data_mof_unit_3743.cif
_audit_creation_date              2013-03-05T15:44:48-0500
_audit_creation_method            fapswitch 2.2
_symmetry_space_group_name_H-M    P1
_symmetry_Int_Tables_number       1
_space_group_crystal_system       triclinic
_cell_length_a                    12.89257
_cell_length_b                    13.248627
_cell_length_c                    15.320781
_cell_angle_alpha                 116.520609
_cell_angle_beta                  63.343222
_cell_angle_gamma                 97.438763
_cell_volume                      2084.43956145

loop_
_atom_site_label
_atom_site_type_symbol
_atom_site_description
_atom_site_fract_x
_atom_site_fract_y
_atom_site_fract_z
_atom_type_partial_charge
C1    C     C_R   0.045608 0.827416 0.013316 0.522340
N1    N     N_R   0.037310 0.720000 0.995790 -0.089833
C2    C     C_R   0.700198 0.404692 0.208808 -0.114536
H1    H     H_    0.647635 0.345274 0.174852 0.148393
N2    N     N_R   0.790790 0.446160 0.152010 -0.041554
C3    C     C_R   0.737004 0.575275 0.948120 0.579877
N3    N     N_R   0.824890 0.517960 0.936420 -0.100675
C4    C     C_R   0.939184 0.716782 0.314274 -0.099351
H2    H     H_    0.891371 0.690952 0.378399 0.100747
N4    N     N_R   0.003210 0.648190 0.211380 -0.038133
C5    C     C_R   0.660342 0.484883 0.052574 -0.136056
H3    H     H_    0.602280 0.451432 0.108037 0.140423
N5    N     N_R   0.774330 0.457010 0.995840 -0.062934
C6    C     C_R   0.025626 0.818927 0.221444 -0.141115
H4    H     H_    0.060429 0.889440 0.203825 0.168941
N6    N     N_R   0.053760 0.709140 0.151960 -0.043719
C7    C     C_R   0.798954 0.490398 0.305448 -0.069732
H5    H     H_    0.833570 0.513739 0.363545 0.141310
N7    N     N_R   0.853860 0.498840 0.211410 -0.049489
C8    C     C_R   0.941992 0.747316 0.919939 -0.143977
H6    H     H_    0.901097 0.734066 0.868618 0.203415
N8    N     N_R   0.974240 0.667310 0.936390 -0.077637
C9    C     C_R   0.974092 0.851377 0.976624 -0.096497
C10   C     C_R   0.703260 0.429857 0.305042 0.003727
C11   C     C_R   0.633911 0.563215 0.027602 -0.059430
C12   C     C_R   0.952728 0.824908 0.323081 0.005043
C13   C     C_R   0.321931 0.581193 0.014929 -0.039276
H7    H     H_    0.366175 0.648038 0.994788 0.116641
N9    N     N_R   0.225670 0.542990 0.004160 -0.060433
C14   C     C_R   0.907188 0.199571 0.791251 0.491889
N10   N     N_R   0.946240 0.290860 0.848040 -0.095509
C15   C     C_R   0.218887 0.435959 0.685863 -0.217248
H8    H     H_    0.191851 0.385513 0.623396 0.138112
N11   N     N_R   0.146140 0.501160 0.788590 -0.065360
C16   C     C_R   0.045578 0.258800 0.093330 0.513116
N12   N     N_R   0.025760 0.332690 0.063610 -0.108708
C17   C     C_R   0.955586 0.172841 0.988707 -0.177639
H9    H     H_    0.907445 0.113320 0.949883 0.211085
N13   N     N_R   0.962690 0.280000 0.004210 -0.068500
C18   C     C_R   0.322623 0.523971 0.777757 0.548574
N14   N     N_R   0.209210 0.553840 0.847990 -0.104879
C19   C     C_R   0.244635 0.478618 0.106076 -0.095359
H10   H     H_    0.223708 0.448401 0.165896 0.204885
N15   N     N_R   0.175110 0.482040 0.063580 -0.061087
C20   C     C_R   0.995167 0.294888 0.692321 -0.233395
H11   H     H_    0.018668 0.326279 0.632345 0.129326
N16   N     N_R   0.996790 0.351810 0.788620 -0.061243
Ni1   Ni    Ni4+2 0.130310 0.630310 0.999970 0.226674
Ni2   Ni    Ni4+2 0.869690 0.369690 0.000030 0.292624
Ni3   Ni    Ni4+2 0.985640 0.509470 0.863740 0.203943
Ni4   Ni    Ni4+2 0.014360 0.490530 0.136260 0.280509
C21   C     C_R   0.335303 0.542154 0.078792 0.061409
C22   C     C_R   0.942269 0.198223 0.691652 -0.113987
C23   C     C_R   0.331646 0.445258 0.675849 -0.100256
C24   C     C_R   0.004862 0.157287 0.045402 -0.105086
C25   C     C_R   0.914550 0.030954 0.434484 -0.174670
H12   H     H_    0.906529 0.042998 0.372260 0.134757
C26   C     C_R   0.915522 0.124181 0.524507 -0.166519
H13   H     H_    0.906962 0.208551 0.532644 0.120699
C27   C     C_R   0.931284 0.106687 0.601480 0.208976
C28   C     C_R   0.946441 0.998189 0.589097 -0.091729
H14   H     H_    0.967609 0.983650 0.643601 0.145285
C29   C     C_R   0.942805 0.906616 0.502155 -0.179198
H15   H     H_    0.960383 0.823747 0.492789 0.128077
C30   C     C_R   0.929537 0.922419 0.423415 0.141004
C31   C     C_R   0.641524 0.412306 0.476625 -0.184222
H16   H     H_    0.723706 0.437152 0.479317 0.131148
C32   C     C_R   0.548358 0.411615 0.569162 -0.183365
H17   H     H_    0.561507 0.434504 0.640244 0.173558
C33   C     C_R   0.437156 0.396076 0.572586 0.160775
C34   C     C_R   0.427074 0.351170 0.475003 -0.156384
H18   H     H_    0.345284 0.328774 0.471035 0.123767
C35   C     C_R   0.519704 0.350055 0.382605 -0.167107
H19   H     H_    0.504173 0.327422 0.312721 0.125822
C36   C     C_R   0.623506 0.392537 0.386736 0.171232
C37   C     C_2   0.426396 0.563870 0.113546 -0.166566
H20   H     H_    0.430836 0.511481 0.149683 0.143968
C38   C     C_2   0.518189 0.614054 0.069798 -0.160878
H21   H     H_    0.510189 0.673731 0.042210 0.132593
C39   C     C_2   0.888517 0.950405 0.038511 -0.236397
H22   H     H_    0.844762 0.965509 0.998774 0.189600
C40   C     C_2   0.849330 0.011748 0.145951 0.001137
H23   H     H_    0.884058 0.996164 0.192004 0.119660
O1    O     O_3   0.138969 0.881941 0.031016 -0.707239
C41   C     C_3   0.165158 0.975836 0.008012 0.137800
H24   H     H_    0.106753 0.048392 0.080953 0.189349
H25   H     H_    0.157170 0.960665 0.933703 0.116647
C42   C     C_3   0.290094 0.002435 0.990989 -0.247548
H26   H     H_    0.293148 0.042890 0.070775 0.230824
H27   H     H_    0.348182 0.922978 0.940510 0.194333
C43   C     C_3   0.336653 0.080263 0.934708 -0.915789
H28   H     H_    0.341250 0.038059 0.851922 0.244359
H29   H     H_    0.425498 0.100671 0.927704 0.281872
H30   H     H_    0.279938 0.160360 0.981329 0.281485
S1    S     S_3+6 0.780317 0.139156 0.851734 -0.097437
O2    O     O_2   0.811722 0.021764 0.829217 -0.368318
O3    O     O_2   0.720776 0.210627 0.972264 -0.329920
O4    O     O_3   0.688433 0.131609 0.798784 -0.546057
H31   H     H_    0.641077 0.068280 0.806352 0.371186
S2    S     S_3+6 0.058527 0.296788 0.213732 -0.110992
O5    O     O_2   0.179906 0.263314 0.186985 -0.347001
O6    O     O_2   0.031078 0.422015 0.284222 -0.361042
O7    O     O_3   0.964190 0.227972 0.282053 -0.566380
H32   H     H_    0.976136 0.251778 0.347818 0.365079
O8    O     O_3   0.413827 0.573369 0.800833 -0.710365
C44   C     C_3   0.417516 0.685180 0.810797 0.116536
H33   H     H_    0.450533 0.736781 0.871821 0.127886
H34   H     H_    0.330329 0.726794 0.841073 0.124818
C45   C     C_3   0.502348 0.686773 0.702364 -0.310194
H35   H     H_    0.589214 0.647148 0.674447 0.203661
H36   H     H_    0.469939 0.637597 0.640414 0.208402
C46   C     C_3   0.515766 0.806853 0.712107 -0.975899
H37   H     H_    0.431207 0.845753 0.733869 0.267276
H38   H     H_    0.580608 0.804374 0.632924 0.274031
H39   H     H_    0.546593 0.859331 0.774621 0.276712
O9    O     O_3   0.748996 0.625826 0.882729 -0.696280
C47   C     C_3   0.689929 0.571160 0.817022 0.209278
H40   H     H_    0.694925 0.624041 0.776060 0.114593
H41   H     H_    0.595441 0.569715 0.864588 0.124672
C48   C     C_3   0.747181 0.452199 0.727527 -0.437787
H42   H     H_    0.746787 0.440212 0.651113 0.178378
H43   H     H_    0.839522 0.443948 0.710798 0.223344
C49   C     C_3   0.681836 0.358807 0.757350 -0.776557
H44   H     H_    0.691630 0.358710 0.825546 0.283247
H45   H     H_    0.717334 0.275126 0.686662 0.264307
H46   H     H_    0.587804 0.370186 0.780218 0.249335

loop_
_geom_bond_atom_site_label_1
_geom_bond_atom_site_label_2
_geom_bond_distance
_ccdc_geom_bond_type
C31   C32   1.390530 A    
C29   C30   1.395855 A    
C13   N9    1.330460 A    
C4    C12   1.372803 A    
C35   H19   1.080045 S    
C16   N12   1.340961 A    
N6    Ni1   1.876193 S    
C46   H38   1.110488 S    
S1    O4    1.682456 S    
C49   H44   1.107796 S    
C41   H24   1.101319 S    
C25   H12   1.083306 S    
C1    O1    1.391758 S    
C17   H9    1.070749 S    
C37   C38   1.332036 D    
C47   H41   1.106922 S    
C14   N10   1.330000 A    
C49   H45   1.107175 S    
C3    C11   1.393357 A    
C44   H33   1.110689 S    
C5    C11   1.379358 A    
C26   C27   1.398932 A    
C25   C30   1.399474 A    
O9    C47   1.418387 S    
C1    N1    1.324346 A    
C28   C29   1.358857 A    
S1    O2    1.503467 D    
C32   H17   1.078940 S    
N1    N8    1.387937 A    
C8    C9    1.389866 A    
C33   C34   1.402165 A    
C9    C39   1.470638 S    
C48   C49   1.529381 S    
N8    Ni3   1.867521 S    
C20   N16   1.332626 A    
C31   H16   1.081417 S    
C20   C22   1.368857 A    
N10   N16   1.376016 A    
C35   C36   1.400323 A    
N2    Ni2   1.875563 S    
C2    C10   1.377076 A    
N11   N14   1.387919 A    
C19   N15   1.337887 A    
N10   Ni2   1.876194 S    
N4    Ni4   1.868336 S    
C15   C23   1.386537 A    
C46   H37   1.109574 S    
C22   C27   1.426267 S    
C48   H43   1.108977 S    
N16   Ni3   1.868336 S    
C41   H25   1.114719 S    
C14   C22   1.375430 A    
N11   Ni3   1.851379 S    
C7    C10   1.382636 A    
N9    Ni1   1.832866 S    
C16   C24   1.380094 A    
C11   C38   1.450329 S    
C37   H20   1.083263 S    
C39   C40   1.338163 D    
C45   C46   1.524139 S    
C43   H28   1.110247 S    
C34   C35   1.378158 A    
C38   H21   1.083072 S    
C4    H2    1.079128 S    
C49   H46   1.110958 S    
N1    Ni1   1.832888 S    
C26   H13   1.082747 S    
C20   H11   1.080704 S    
C40   H23   1.085543 S    
S2    O7    1.681943 S    
C6    C12   1.382106 A    
C27   C28   1.391549 A    
C15   N11   1.331930 A    
C14   S1    1.771492 S    
C43   H29   1.109996 S    
C23   C33   1.468260 S    
C42   C43   1.528511 S    
C8    H6    1.073216 S    
S2    O6    1.501041 D    
C7    H5    1.077960 S    
C48   H42   1.111281 S    
O1    C41   1.400615 S    
C3    O9    1.381868 S    
N12   Ni4   1.867520 S    
N5    Ni2   1.832865 S    
N15   Ni4   1.850822 S    
C4    N4    1.318932 A    
C18   N14   1.345450 A    
N13   Ni2   1.832890 S    
C8    N8    1.344104 A    
C1    C9    1.402546 A    
C18   C23   1.397548 A    
N9    N15   1.376030 A    
C6    N6    1.337094 A    
C47   C48   1.540154 S    
C19   H10   1.072773 S    
C16   S2    1.763337 S    
C2    N2    1.331182 A    
C13   H7    1.077126 S    
C13   C21   1.371461 A    
C41   C42   1.531296 S    
C12   C30   1.426704 S    
N12   N13   1.387937 A    
N3    Ni3   1.850823 S    
C42   H27   1.106580 S    
C39   H22   1.084018 S    
C21   C37   1.443045 S    
C5    H3    1.076316 S    
S1    O3    1.500193 D    
C10   C36   1.460999 S    
C3    N3    1.345949 A    
N2    N7    1.387919 A    
O8    C44   1.416423 S    
C15   H8    1.073269 S    
C45   H36   1.110426 S    
C34   H18   1.078911 S    
C17   N13   1.328569 A    
N4    N6    1.376018 A    
C45   H35   1.111162 S    
C43   H30   1.107390 S    
C5    N5    1.326387 A    
C44   H34   1.116629 S    
C31   C36   1.402972 A    
S2    O5    1.501824 D    
C7    N7    1.340747 A    
N14   Ni1   1.875563 S    
C25   C26   1.384970 A    
C28   H14   1.081938 S    
C29   H15   1.082542 S    
C17   C24   1.374581 A    
N7    Ni4   1.851381 S    
N3    N5    1.376029 A    
C42   H26   1.111616 S    
C32   C33   1.402244 A    
O4    H31   0.990389 S    
O7    H32   0.990592 S    
C6    H4    1.074669 S    
C47   H40   1.110643 S    
C46   H39   1.110857 S    
C2    H1    1.077982 S    
C19   C21   1.367737 A    
C18   O8    1.379508 S    
C44   C45   1.533451 S    
