data_mof_unit_4026.cif
_audit_creation_date              2012-12-10T19:53:48-0500
_audit_creation_method            fapswitch 2.2
_symmetry_space_group_name_H-M    P1
_symmetry_Int_Tables_number       1
_space_group_crystal_system       triclinic
_cell_length_a                    14.826452
_cell_length_b                    14.268885
_cell_length_c                    10.536787
_cell_angle_alpha                 89.929406
_cell_angle_beta                  91.868481
_cell_angle_gamma                 90.721155
_cell_volume                      2227.76795244

loop_
_atom_site_label
_atom_site_type_symbol
_atom_type_description
_atom_site_fract_x
_atom_site_fract_y
_atom_site_fract_z
_atom_type_partial_charge
C1    C     C_R   0.327887 0.499646 0.498672 0.854031
C2    C     C_R   0.421264 0.796308 0.480254 0.352629
C3    C     C_R   0.501702 0.053946 0.497453 -0.072301
C4    C     C_R   0.501098 0.947494 0.497439 -0.094807
C5    C     C_R   0.497210 0.500011 0.257775 1.028854
C6    C     C_R   0.502183 0.499930 0.742439 1.037191
C7    C     C_3   0.461492 0.579544 0.037889 0.474297
C8    C     C_3   0.537733 0.419978 0.962933 0.496293
C9    C     C_3   0.548140 0.574257 0.962863 0.446139
C10   C     C_3   0.450996 0.425125 0.038155 0.443282
C11   C     C_3   0.415489 0.504766 0.952514 0.221580
C12   C     C_R   0.672364 0.500738 0.491854 0.837762
C13   C     C_3   0.583472 0.494744 0.048597 0.222716
C14   C     C_3   0.501929 0.499624 0.876928 -0.485160
C15   C     C_3   0.497043 0.500000 0.123661 -0.479364
C16   C     C_R   0.088881 0.553832 0.547978 -0.196140
C17   C     C_R   0.905524 0.423475 0.422035 -0.193136
C18   C     C_R   0.904641 0.593188 0.439127 -0.220258
C19   C     C_R   0.100055 0.464465 0.352318 -0.191621
C20   C     C_R   0.181150 0.548639 0.568548 -0.160735
C21   C     C_R   0.813442 0.420567 0.439674 -0.170796
C22   C     C_R   0.812822 0.590139 0.456474 -0.183532
C23   C     C_R   0.451937 0.104754 0.404770 0.246020
C24   C     C_R   0.192511 0.459928 0.372859 -0.252583
C25   C     C_R   0.232122 0.499962 0.482301 -0.000417
C26   C     C_R   0.767664 0.503493 0.464480 -0.007746
C27   C     C_R   0.048388 0.511108 0.440370 0.120671
C28   C     C_R   0.951380 0.509615 0.427262 0.116103
C29   C     C_3   0.262782 0.507572 0.986307 0.173948
C30   C     C_3   0.170897 0.527710 0.924674 -0.874869
C31   C     C_3   0.737288 0.499630 0.022944 0.170588
C32   C     C_3   0.827284 0.472851 0.085292 -0.843379
C33   C     C_3   0.444554 0.067219 0.194186 0.135559
C34   C     C_R   0.581774 0.896454 0.506863 0.265976
C35   C     C_3   0.395815 0.004252 0.096951 -0.816630
C36   C     C_3   0.696955 0.943636 0.384830 0.142988
C37   C     C_3   0.782128 0.004005 0.382964 -0.835906
C38   C     C_3   0.554601 0.057329 0.798436 0.115852
C39   C     C_3   0.614791 0.011851 0.900097 -0.796570
C40   C     C_3   0.306813 0.947923 0.610350 0.145187
C41   C     C_3   0.211432 0.985940 0.605354 -0.818329
C42   C     C_3   0.296541 0.229885 0.360015 0.164878
C43   C     C_3   0.240968 0.226425 0.236004 -0.767492
C44   C     C_3   0.677306 0.770109 0.686862 0.173551
C45   C     C_R   0.550648 0.105442 0.591720 0.237686
C46   C     C_3   0.748645 0.702466 0.736845 -0.795721
C47   C     C_3   0.698188 0.240758 0.657970 0.212848
C48   C     C_3   0.753624 0.313616 0.732755 -0.810711
C49   C     C_3   0.318781 0.748902 0.327827 0.216150
C50   C     C_3   0.217223 0.737944 0.307056 -0.835406
C51   C     C_R   0.419766 0.895321 0.490221 0.281691
C52   C     C_R   0.445613 0.203983 0.414917 0.363745
C53   C     C_R   0.578851 0.797422 0.521656 0.353052
C54   C     C_R   0.554007 0.205345 0.585908 0.359330
F1    F     F_    0.423253 0.661851 0.077450 -0.670394
F2    F     F_    0.576929 0.338478 0.922157 -0.614078
F3    F     F_    0.596740 0.651161 0.922787 -0.678093
F4    F     F_    0.402802 0.348368 0.080522 -0.635295
H1    H     H_    0.048841 0.589280 0.617042 0.141330
H2    H     H_    0.259694 0.436525 0.029414 0.173022
H3    H     H_    0.154847 0.475739 0.848592 0.262248
H4    H     H_    0.118192 0.523141 0.997047 0.208204
H5    H     H_    0.170762 0.599297 0.883194 0.259501
H6    H     H_    0.741961 0.574260 0.993315 0.182775
H7    H     H_    0.725382 0.454811 0.937526 0.151792
H8    H     H_    0.824678 0.398797 0.117796 0.264923
H9    H     H_    0.881795 0.480960 0.016141 0.200420
H10   H     H_    0.842793 0.519041 0.168112 0.273289
H11   H     H_    0.516663 0.046296 0.201531 0.108296
H12   H     H_    0.941566 0.358507 0.411420 0.134390
H13   H     H_    0.440314 0.140863 0.159947 0.222369
H14   H     H_    0.322115 0.017233 0.096076 0.258634
H15   H     H_    0.420583 0.018877 0.000734 0.199870
H16   H     H_    0.407919 0.929530 0.120803 0.260479
H17   H     H_    0.646853 0.973843 0.315523 0.117317
H18   H     H_    0.713951 0.871309 0.354828 0.159977
H19   H     H_    0.834269 0.975065 0.449659 0.257936
H20   H     H_    0.808849 0.005172 0.285727 0.207120
H21   H     H_    0.766783 0.076841 0.411721 0.244913
H22   H     H_    0.490975 0.015534 0.787922 0.111522
H23   H     H_    0.939927 0.660186 0.440586 0.143481
H24   H     H_    0.539081 0.129603 0.830284 0.207531
H25   H     H_    0.680117 0.050608 0.909370 0.256439
H26   H     H_    0.581946 0.013053 0.992994 0.205038
H27   H     H_    0.627755 0.937929 0.874211 0.248071
H28   H     H_    0.350697 0.997455 0.666540 0.107539
H29   H     H_    0.305135 0.878556 0.659199 0.158248
H30   H     H_    0.165932 0.937814 0.549716 0.258279
H31   H     H_    0.186351 0.992057 0.703119 0.204515
H32   H     H_    0.210702 0.056248 0.560163 0.240748
H33   H     H_    0.268820 0.284287 0.422085 0.147526
H34   H     H_    0.068897 0.432269 0.268461 0.137152
H35   H     H_    0.286502 0.161710 0.409612 0.146134
H36   H     H_    0.263156 0.167414 0.176689 0.268246
H37   H     H_    0.168489 0.216065 0.256276 0.184100
H38   H     H_    0.249137 0.292549 0.182032 0.270148
H39   H     H_    0.616649 0.762221 0.745864 0.196899
H40   H     H_    0.705015 0.842432 0.698686 0.179583
H41   H     H_    0.763965 0.716724 0.838897 0.228048
H42   H     H_    0.723884 0.629003 0.726503 0.258920
H43   H     H_    0.811715 0.711790 0.684063 0.227725
H44   H     H_    0.715686 0.244775 0.556346 0.089647
H45   H     H_    0.212838 0.582110 0.651062 0.179985
H46   H     H_    0.718445 0.171253 0.695438 0.184004
H47   H     H_    0.745739 0.302139 0.836052 0.276200
H48   H     H_    0.826089 0.307152 0.711151 0.191188
H49   H     H_    0.731229 0.385393 0.707962 0.250530
H50   H     H_    0.351820 0.688307 0.283787 0.202570
H51   H     H_    0.339778 0.814393 0.278082 0.155385
H52   H     H_    0.182471 0.797785 0.350708 0.265107
H53   H     H_    0.199991 0.736295 0.203711 0.214603
H54   H     H_    0.193257 0.671759 0.350309 0.264721
H55   H     H_    0.778806 0.353687 0.435924 0.151832
H56   H     H_    0.778147 0.655562 0.466447 0.219489
H57   H     H_    0.233519 0.427589 0.302573 0.150844
H58   H     H_    0.276045 0.560498 0.062484 0.163751
N1    N     N_R   0.500000 0.252470 0.500000 -0.198679
N2    N     N_R   0.500000 0.747530 0.500000 -0.197542
O1    O     O_R   0.369060 0.579480 0.500010 -0.573927
O2    O     O_3   0.668701 0.487606 0.111255 -0.572499
O3    O     O_3   0.402514 0.056733 0.311499 -0.552649
O4    O     O_3   0.664040 0.943095 0.508888 -0.549969
O5    O     O_3   0.600628 0.057959 0.683623 -0.568631
O6    O     O_3   0.337555 0.940059 0.485549 -0.534030
O7    O     O_3   0.387589 0.253099 0.334540 -0.528386
O8    O     O_3   0.656613 0.750999 0.557375 -0.592792
O9    O     O_3   0.605275 0.256706 0.674098 -0.517328
O10   O     O_3   0.340231 0.749627 0.459570 -0.570709
O11   O     O_R   0.630940 0.420520 0.499990 -0.614995
O12   O     O_R   0.630940 0.579480 0.499990 -0.567938
O13   O     O_R   0.369060 0.420520 0.500010 -0.618299
O14   O     O_R   0.499980 0.579460 0.313950 -0.612469
O15   O     O_R   0.500020 0.420540 0.686050 -0.546559
O16   O     O_R   0.500020 0.579460 0.686050 -0.584215
O17   O     O_R   0.499980 0.420540 0.313950 -0.545810
O18   O     O_3   0.329061 0.511434 0.893149 -0.577366
Zn1   Zn    Zn3+2 0.500000 0.606140 0.500000 1.033575
Zn2   Zn    Zn3+2 0.500000 0.393860 0.500000 1.047538

loop_
_geom_bond_atom_site_label_1
_geom_bond_atom_site_label_2
_ccdc_geom_bond_type
O17   Zn2   S    
C1    C25   S    
C46   H41   S    
C35   H16   S    
C8    C13   S    
C42   H35   S    
C3    C23   A    
N1    Zn2   S    
C7    F1    S    
C21   C26   A    
C8    F2    S    
O16   Zn1   S    
C2    N2    A    
C23   O3    S    
C20   H45   S    
C45   O5    S    
C7    C11   S    
C37   H21   S    
C44   O8    S    
C12   O12   A    
C40   H29   S    
C49   H51   S    
C36   C37   S    
C10   F4    S    
C39   H26   S    
C6    O15   A    
C10   C15   S    
C38   C39   S    
C11   C14   S    
C48   H49   S    
C20   C25   A    
C50   H52   S    
C43   H36   S    
C5    O17   A    
C42   H33   S    
C1    O1    A    
C40   H28   S    
C49   O10   S    
C9    C13   S    
C19   H34   S    
C36   H18   S    
C42   O7    S    
C44   H40   S    
C5    O14   A    
C48   H48   S    
O11   Zn2   S    
C48   H47   S    
C43   H37   S    
N2    Zn1   S    
C19   C27   A    
C38   O5    S    
C33   H11   S    
C32   H10   S    
C52   N1    A    
C16   C27   A    
C7    C15   S    
C41   H32   S    
O15   Zn2   S    
C34   O4    S    
C47   H44   S    
C30   H5    S    
C38   H24   S    
C33   O3    S    
C51   O6    S    
C44   C46   S    
C49   H50   S    
C40   O6    S    
C46   H43   S    
C4    C34   A    
C12   O11   A    
C4    C51   A    
O1    Zn1   S    
C18   C28   A    
C24   C25   A    
C21   H55   S    
C53   O8    S    
C53   N2    A    
O14   Zn1   S    
C37   H19   S    
C3    C45   A    
C17   C21   A    
C12   C26   S    
C16   H1    S    
C36   O4    S    
C9    C14   S    
C29   C30   S    
C36   H17   S    
C6    C14   S    
C44   H39   S    
C47   C48   S    
C29   H2    S    
C16   C20   A    
C50   H54   S    
C43   H38   S    
C34   C53   A    
C32   H9    S    
C40   C41   S    
C29   H58   S    
C35   H14   S    
C18   H23   S    
C13   C15   S    
C54   N1    A    
C42   C43   S    
C39   H27   S    
C3    C4    S    
C13   O2    S    
C32   H8    S    
C54   O9    S    
C31   H7    S    
C41   H30   S    
C46   H42   S    
C35   H15   S    
C8    C14   S    
C47   H46   S    
C41   H31   S    
C18   C22   A    
C17   C28   A    
C31   H6    S    
C31   C32   S    
C1    O13   A    
C45   C54   A    
C52   O7    S    
C47   O9    S    
C37   H20   S    
C2    C51   A    
C30   H4    S    
C19   C24   A    
C39   H25   S    
C6    O16   A    
O13   Zn2   S    
C11   O18   S    
C23   C52   A    
C38   H22   S    
C50   H53   S    
C33   C35   S    
C9    F3    S    
C31   O2    S    
C5    C15   S    
C10   C11   S    
C33   H13   S    
C7    C9    S    
C22   H56   S    
C29   O18   S    
C24   H57   S    
C8    C10   S    
C49   C50   S    
C22   C26   A    
C30   H3    S    
C27   C28   S    
O12   Zn1   S    
C17   H12   S    
C2    O10   S    
