data_mof_unit_3834.cif
_audit_creation_date              2012-12-10T17:58:16-0500
_audit_creation_method            fapswitch 2.2
_symmetry_space_group_name_H-M    P1
_symmetry_Int_Tables_number       1
_space_group_crystal_system       triclinic
_cell_length_a                    9.575295
_cell_length_b                    10.780922
_cell_length_c                    15.500813
_cell_angle_alpha                 89.32482
_cell_angle_beta                  74.201301
_cell_angle_gamma                 90.774519
_cell_volume                      1539.37001831

loop_
_atom_site_label
_atom_site_type_symbol
_atom_type_description
_atom_site_fract_x
_atom_site_fract_y
_atom_site_fract_z
_atom_type_partial_charge
C1    C     C_R   0.997812 0.262467 0.503183 0.843569
C2    C     C_R   0.002179 0.737531 0.496840 0.840074
C3    C     C_R   0.566314 0.421524 0.088298 -0.231644
C4    C     C_R   0.432795 0.577643 0.911378 -0.226773
C5    C     C_R   0.712574 0.402335 0.045460 -0.041315
C6    C     C_R   0.286562 0.596738 0.954148 -0.044219
C7    C     C_R   0.928816 0.067508 0.447797 -0.193490
C8    C     C_R   0.071157 0.932477 0.552254 -0.195014
C9    C     C_R   0.934671 0.939247 0.440015 -0.004997
C10   C     C_R   0.065317 0.060743 0.560028 -0.004131
C11   C     C_R   0.004972 0.871672 0.494188 -0.122485
C12   C     C_R   0.995014 0.128320 0.505853 -0.125433
C13   C     C_R   0.549673 0.411857 0.547849 0.098688
C14   C     C_R   0.450314 0.588175 0.452182 0.096142
C15   C     C_R   0.401991 0.412549 0.547334 -0.048793
C16   C     C_R   0.597999 0.587472 0.452688 -0.049769
C17   C     C_R   0.918172 0.498694 0.672022 0.836784
C18   C     C_R   0.081816 0.501305 0.327971 0.843174
C19   C     C_R   0.872655 0.489852 0.770237 -0.054107
C20   C     C_R   0.127178 0.510003 0.229736 -0.049332
C21   C     C_R   0.917725 0.430275 0.910592 -0.146305
C22   C     C_R   0.081396 0.568656 0.089379 -0.165875
C23   C     C_R   0.968680 0.453583 0.818840 -0.117902
C24   C     C_R   0.030791 0.545503 0.181178 -0.093638
C25   C     C_R   0.727892 0.510909 0.815023 -0.183005
C26   C     C_R   0.271961 0.489343 0.184844 -0.191491
C27   C     C_R   0.673782 0.491707 0.908123 0.092099
C28   C     C_R   0.325614 0.507950 0.091658 0.091549
C29   C     C_R   0.768927 0.441478 0.955424 0.072946
C30   C     C_R   0.230213 0.557738 0.044350 0.066244
C31   C     C_R   0.526550 0.516742 0.954043 0.050414
C32   C     C_R   0.472729 0.482757 0.045683 0.053092
Cu1   Cu    Cu3+1 0.140660 0.500020 0.500000 1.011852
Cu2   Cu    Cu3+1 0.859340 0.499980 0.500000 1.018098
H1    H     H_    0.917376 0.560205 0.214604 0.194152
H2    H     H_    0.082012 0.438419 0.785486 0.196890
H3    H     H_    0.527020 0.381569 0.154622 0.170882
H4    H     H_    0.472000 0.617330 0.844994 0.176976
H5    H     H_    0.878232 0.121275 0.405280 0.202628
H6    H     H_    0.121727 0.878703 0.594777 0.195139
N1    N     N_R   0.352080 0.500030 0.499980 -0.212917
N2    N     N_R   0.647920 0.499970 0.500020 -0.212144
O1    O     O_R   0.118740 0.319660 0.500000 -0.578532
O2    O     O_R   0.881260 0.680340 0.500000 -0.578763
O3    O     O_R   0.881170 0.319630 0.500010 -0.572209
O4    O     O_R   0.118830 0.680370 0.499990 -0.575196
O5    O     O_R   0.055570 0.500030 0.629830 -0.574009
O6    O     O_R   0.944430 0.499970 0.370170 -0.567516
O7    O     O_R   0.818000 0.500000 0.629840 -0.565698
O8    O     O_R   0.182000 0.500000 0.370160 -0.567331
C33   C     C_2   0.798799 0.331933 0.095761 0.823135
O9    O     O_2   0.779604 0.349023 0.175999 -0.599500
O10   O     O_R   0.895622 0.241379 0.053105 -0.743252
H7    H     H_    0.946110 0.199541 0.094968 0.348556
C34   C     C_2   0.201070 0.666367 0.902902 0.827693
O11   O     O_2   0.112407 0.742899 0.939867 -0.573392
O12   O     O_R   0.228868 0.649340 0.810473 -0.769297
H8    H     H_    0.165853 0.702668 0.782516 0.342900
H9    H     H_    0.342427 0.464268 0.225356 0.176890
H10   H     H_    0.657864 0.536781 0.774434 0.175725
H11   H     H_    0.996165 0.402579 0.945361 0.170283
H12   H     H_    0.002511 0.595959 0.054849 0.170975
C35   C     C_2   0.873302 0.880868 0.371665 0.839144
O13   O     O_2   0.930198 0.789956 0.331089 -0.615215
O14   O     O_R   0.752629 0.932805 0.351506 -0.726228
H13   H     H_    0.720889 0.885210 0.303854 0.342863
C36   C     C_2   0.126703 0.119121 0.628370 0.842060
O15   O     O_2   0.069867 0.210077 0.668912 -0.611594
O16   O     O_R   0.247318 0.067129 0.648567 -0.729226
H14   H     H_    0.279077 0.114727 0.696210 0.343749
C37   C     C_2   0.592567 0.311780 0.599943 0.870812
O17   O     O_2   0.603648 0.331307 0.675263 -0.592297
O18   O     O_R   0.608661 0.191962 0.565578 -0.729380
H15   H     H_    0.635233 0.130015 0.607977 0.345361
C38   C     C_2   0.407388 0.688344 0.400178 0.870607
O19   O     O_2   0.396103 0.668910 0.324892 -0.593519
O20   O     O_R   0.391457 0.808135 0.434598 -0.730579
H16   H     H_    0.364830 0.870151 0.392263 0.345583
H17   H     H_    0.326956 0.343039 0.585413 0.160070
H18   H     H_    0.673025 0.657004 0.414629 0.159716

loop_
_geom_bond_atom_site_label_1
_geom_bond_atom_site_label_2
_ccdc_geom_bond_type
C34   O11   D    
C35   O14   S    
C27   C29   A    
O18   H15   S    
Cu2   N2    S    
C6    C34   S    
O10   H7    S    
C2    O4    A    
C1    O1    A    
C15   H17   S    
C20   C24   A    
C2    O2    A    
C25   H10   S    
C26   H9    S    
C21   H11   S    
O20   H16   S    
Cu1   O4    S    
C3    C32   A    
C1    C12   S    
C2    C11   S    
C13   N2    A    
C5    C29   A    
C21   C23   A    
C7    C12   A    
C24   H1    S    
C27   C31   A    
C36   O15   D    
Cu1   O1    S    
C28   C32   A    
Cu2   O2    S    
C15   N1    A    
C4    C6    A    
C17   O7    A    
C37   O18   S    
C13   C37   S    
Cu1   O8    S    
C10   C36   S    
C21   C29   A    
C33   O9    D    
C33   O10   S    
C19   C23   A    
C38   O19   D    
C22   H12   S    
C38   O20   S    
C31   C32   A    
Cu1   Cu2   S    
Cu2   O3    S    
C9    C11   A    
C10   C12   A    
C14   N1    A    
C6    C30   A    
C4    H4    S    
C23   H2    S    
C34   O12   S    
Cu1   O5    S    
C22   C24   A    
Cu2   O6    S    
C16   N2    A    
C18   O8    A    
C36   O16   S    
C7    C9    A    
Cu2   O7    S    
C22   C30   A    
C14   C16   A    
C9    C35   S    
C17   O5    A    
C3    C5    A    
C18   O6    A    
C25   C27   A    
C26   C28   A    
Cu1   N1    S    
C14   C38   S    
C13   C15   A    
C37   O17   D    
C1    O3    A    
O12   H8    S    
C20   C26   A    
C8    C11   A    
C28   C30   A    
C17   C19   S    
C18   C20   S    
O16   H14   S    
C19   C25   A    
C4    C31   A    
C35   O13   D    
C3    H3    S    
C8    C10   A    
O14   H13   S    
C7    H5    S    
C5    C33   S    
C8    H6    S    
C16   H18   S    
