data_mof_unit_4469.cif
_audit_creation_date              2012-12-11T17:01:28-0500
_audit_creation_method            fapswitch 2.2
_symmetry_space_group_name_H-M    P1
_symmetry_Int_Tables_number       1
_space_group_crystal_system       triclinic
_cell_length_a                    14.989538
_cell_length_b                    15.145852
_cell_length_c                    14.830285
_cell_angle_alpha                 109.652861
_cell_angle_beta                  108.806737
_cell_angle_gamma                 110.472158
_cell_volume                      2574.73562254

loop_
_atom_site_label
_atom_site_type_symbol
_atom_type_description
_atom_site_fract_x
_atom_site_fract_y
_atom_site_fract_z
_atom_type_partial_charge
C1    C     C_R   0.985312 0.792713 0.078356 -0.115819
C2    C     C_R   0.223343 0.750871 0.315834 -0.115627
C3    C     C_R   0.907996 0.406306 0.208889 -0.129277
C4    C     C_R   0.792978 0.195504 0.701358 -0.165446
C5    C     C_R   0.299010 0.591329 0.992776 -0.047256
C6    C     C_R   0.934383 0.495045 0.301869 0.077089
C7    C     C_R   0.299029 0.500947 0.928687 0.026771
C8    C     C_R   0.326225 0.775994 0.325906 0.069769
C9    C     C_R   0.944803 0.141345 0.950354 -0.101681
C10   C     C_3   0.468517 0.396088 0.829331 -0.373419
C11   C     C_3   0.364669 0.394712 0.826753 -0.532172
C12   C     C_R   0.698511 0.131789 0.697716 0.074672
C13   C     C_3   0.561261 0.496109 0.037639 -0.645010
C14   C     C_3   0.576956 0.602925 0.937384 0.561928
C15   C     C_3   0.571641 0.497860 0.937442 0.180307
C16   C     C_R   0.021386 0.587403 0.774106 -0.138912
C17   C     C_3   0.396667 0.500579 0.927894 0.196335
C18   C     C_3   0.462496 0.504946 0.036419 0.570588
C19   C     C_3   0.468763 0.599270 0.922697 -0.502315
C20   C     C_R   0.624815 0.964815 0.522073 0.168743
C21   C     C_R   0.621303 0.015243 0.618096 0.035881
C22   C     C_R   0.530809 0.955612 0.625915 -0.206099
C23   C     C_R   0.942639 0.493447 0.671241 0.073127
C24   C     C_R   0.435604 0.863640 0.530417 -0.198834
C25   C     C_R   0.431121 0.832378 0.427556 0.034782
C26   C     C_R   0.530777 0.874909 0.427724 0.143143
C27   C     C_3   0.561293 0.913072 0.355175 -0.512474
C28   C     C_R   0.684257 0.406503 0.935107 -0.144353
C29   C     C_3   0.664200 0.010628 0.458285 -0.524687
C30   C     C_R   0.904355 0.575726 0.459707 0.143832
C31   C     C_R   0.891667 0.486613 0.376129 0.036556
C32   C     C_R   0.844836 0.386429 0.373180 -0.220253
C33   C     C_R   0.843882 0.385241 0.466562 -0.182473
C34   C     C_R   0.673222 0.497336 0.951954 0.106910
C35   C     C_R   0.889466 0.484539 0.563673 -0.004234
C36   C     C_R   0.899026 0.573627 0.549463 0.153317
C37   C     C_3   0.955308 0.695624 0.615039 -0.015021
C38   C     C_3   0.966602 0.697121 0.516446 -0.636604
C39   C     C_R   0.940487 0.951230 0.045819 -0.097178
C40   C     C_R   0.931763 0.405080 0.685243 -0.113252
C41   C     C_R   0.993418 0.910557 0.997672 0.155471
C42   C     C_R   0.989579 0.914658 0.903542 -0.249231
C43   C     C_R   0.948020 0.973608 0.870083 -0.181404
C44   C     C_R   0.922103 0.036948 0.938190 0.124057
C45   C     C_R   0.993940 0.588096 0.300414 -0.154205
C46   C     C_R   0.903613 0.013094 0.016098 -0.047453
C47   C     C_3   0.934364 0.084724 0.133432 -0.128145
C48   C     C_3   0.975014 0.014726 0.164764 0.459586
C49   C     C_R   0.776009 0.589796 0.028020 -0.129686
C50   C     C_R   0.699082 0.195769 0.790249 -0.125638
C51   C     C_R   0.076279 0.793246 0.985287 -0.176734
C52   C     C_R   0.028285 0.844275 0.029401 0.108570
C53   C     C_3   0.160237 0.196904 0.935223 -0.363721
C54   C     C_3   0.657897 0.719438 0.881344 -0.253775
C55   C     C_3   0.493298 0.588452 0.215925 -0.286354
C56   C     C_R   0.207310 0.410107 0.900911 -0.188604
C57   C     C_3   0.817994 0.683767 0.675527 -0.873396
C58   C     C_3   0.859189 0.130442 0.254474 -0.986968
C59   C     C_3   0.119044 0.119614 0.343667 -0.236908
C60   C     C_R   0.313463 0.745649 0.221559 -0.155893
C61   C     C_R   0.908452 0.201225 0.002545 -0.254105
C62   C     C_R   0.007738 0.202417 0.918629 0.616890
H1    H     H_    0.950925 0.816896 0.128939 0.078855
H2    H     H_    0.312997 0.387349 0.748256 0.195632
H3    H     H_    0.829276 0.167045 0.654746 0.114154
H4    H     H_    0.316600 0.320908 0.828385 0.164454
H5    H     H_    0.551308 0.418788 0.035256 0.161419
H6    H     H_    0.407317 0.431750 0.035597 0.002833
H7    H     H_    0.643469 0.675133 0.020502 -0.000991
H8    H     H_    0.422685 0.592065 0.842301 0.189589
H9    H     H_    0.489715 0.678004 0.988656 0.147238
H10   H     H_    0.637544 0.564184 0.116620 0.201589
H11   H     H_    0.527454 0.986594 0.701170 0.123438
H12   H     H_    0.174970 0.326530 0.841283 0.163989
H13   H     H_    0.051349 0.670210 0.793418 0.089408
H14   H     H_    0.362623 0.827328 0.535768 0.125224
H15   H     H_    0.578083 0.857725 0.301006 0.211734
H16   H     H_    0.505841 0.936835 0.313007 0.201762
H17   H     H_    0.740063 0.010849 0.463895 0.194026
H18   H     H_    0.666422 0.088682 0.473564 0.200769
H19   H     H_    0.821132 0.310709 0.305598 0.138952
H20   H     H_    0.821212 0.308677 0.465216 0.128761
H21   H     H_    0.035941 0.739885 0.690885 0.097768
H22   H     H_    0.920697 0.728964 0.475359 0.206512
H23   H     H_    0.373968 0.747426 0.197174 0.126489
H24   H     H_    0.620388 0.321453 0.887100 0.093629
H25   H     H_    0.053207 0.730958 0.534698 0.183086
H26   H     H_    0.022383 0.876650 0.858657 0.134570
H27   H     H_    0.951473 0.981623 0.801433 0.175092
H28   H     H_    0.999552 0.171419 0.172571 0.172357
H29   H     H_    0.926629 0.963965 0.190342 -0.000483
H30   H     H_    0.877735 0.319463 0.624238 0.092105
H31   H     H_    0.796021 0.673166 0.068080 0.077403
H32   H     H_    0.646874 0.167921 0.822576 0.082335
H33   H     H_    0.127282 0.820153 0.951532 0.092667
H34   H     H_    0.847199 0.174330 0.025907 0.158355
H35   H     H_    0.013558 0.669891 0.351257 0.104726
H36   H     H_    0.203184 0.178309 0.889620 0.175054
H37   H     H_    0.212987 0.284998 0.000198 0.147600
H38   H     H_    0.152072 0.146553 0.975230 0.177093
H39   H     H_    0.742592 0.757774 0.949569 0.130267
H40   H     H_    0.619114 0.766990 0.905458 0.124752
H41   H     H_    0.664001 0.721930 0.809572 0.183021
H42   H     H_    0.539872 0.548899 0.238878 0.146891
H43   H     H_    0.406138 0.539035 0.192630 0.148480
H44   H     H_    0.530448 0.668980 0.289720 0.175951
H45   H     H_    0.202274 0.762153 0.380313 0.091302
H46   H     H_    0.911904 0.813442 0.661673 0.175660
H47   H     H_    0.775264 0.727548 0.696470 0.243720
H48   H     H_    0.873173 0.689588 0.751093 0.247233
H49   H     H_    0.754634 0.596553 0.614052 0.256109
H50   H     H_    0.771527 0.993487 0.097313 0.169781
H51   H     H_    0.782860 0.126031 0.251922 0.254770
H52   H     H_    0.924028 0.217647 0.296782 0.260414
H53   H     H_    0.885563 0.092561 0.302006 0.248753
H54   H     H_    0.084573 0.056500 0.364756 0.125843
H55   H     H_    0.092078 0.179690 0.364820 0.142623
H56   H     H_    0.848953 0.321438 0.174112 0.101851
H57   H     H_    0.209807 0.164519 0.395188 0.172639
H58   H     H_    0.354476 0.675827 0.022117 0.088667
H59   H     H_    0.462672 0.319064 0.823584 0.150020
H60   H     H_    0.472309 0.397443 0.756097 0.207125
N1    N     N_R   0.995640 0.706130 0.053910 -0.039677
N2    N     N_R   0.054010 0.556790 0.847890 -0.042660
N3    N     N_R   0.789940 0.443190 0.997130 -0.040197
N4    N     N_R   0.997630 0.443170 0.791110 -0.040775
N5    N     N_R   0.846320 0.556810 0.053910 -0.042344
N6    N     N_R   0.791080 0.293860 0.847890 -0.036402
N7    N     N_R   0.052880 0.706130 0.997130 -0.036314
N8    N     N_R   0.002370 0.556830 0.208890 -0.041793
N9    N     N_2   0.879608 0.730559 0.629275 -0.093411
N10   N     N_2   0.837808 0.072477 0.143074 -0.113439
N11   N     N_R   0.153680 0.443190 0.946090 -0.040498
N12   N     N_R   0.208920 0.706140 0.152110 -0.041479
N13   N     N_R   0.947120 0.293870 0.002870 -0.067473
N14   N     N_R   0.004360 0.293870 0.946090 -0.094261
N15   N     N_R   0.151690 0.706140 0.208890 -0.039695
N16   N     N_R   0.945990 0.443210 0.152110 -0.037497
N17   N     N_R   0.210060 0.556810 0.002870 -0.053940
N18   N     N_R   0.848310 0.293860 0.791110 -0.041052
Ni1   Ni    Ni4+2 0.999010 0.630300 0.130220 0.213260
Ni2   Ni    Ni4+2 0.000990 0.369700 0.869780 0.229605
Ni3   Ni    Ni4+2 0.130280 0.630280 0.000000 0.207664
Ni4   Ni    Ni4+2 0.869720 0.369720 0.000000 0.201647
O1    O     O_3   0.056853 0.172489 0.859605 -0.648453
O2    O     O_3   0.594488 0.609424 0.850651 -0.613261
O3    O     O_3   0.499611 0.605108 0.129617 -0.627471
O4    O     O_3   0.090497 0.071396 0.231624 -0.598855

loop_
_geom_bond_atom_site_label_1
_geom_bond_atom_site_label_2
_ccdc_geom_bond_type
C38   H25   S    
C6    C45   A    
C27   C29   S    
C16   H13   S    
C41   C42   A    
C54   H39   S    
C19   H9    S    
C35   C36   A    
C3    C6    A    
N12   N15   A    
C56   N11   A    
C51   N7    A    
C61   H34   S    
N13   N14   A    
C39   C41   A    
C57   H49   S    
C53   H37   S    
C32   H19   S    
C26   C27   S    
C43   H27   S    
C13   C18   S    
C55   H43   S    
C9    C61   A    
C36   C37   S    
N18   Ni2   S    
C10   C15   S    
C30   C31   A    
N3    Ni4   S    
C18   H6    S    
C23   C40   A    
C2    H45   S    
C30   C38   S    
N5    Ni1   S    
C62   N14   A    
N8    Ni1   S    
H46   N9    S    
N14   Ni2   S    
C17   C19   S    
N12   Ni3   S    
N17   Ni3   S    
C57   H47   S    
C57   H48   S    
C58   N10   S    
C59   H54   S    
C7    C17   S    
C62   O1    S    
C58   H51   S    
N2    Ni3   S    
C4    C12   A    
C33   H20   S    
C15   C34   S    
C11   H4    S    
C54   O2    S    
C24   H14   S    
C59   O4    S    
C27   H16   S    
C6    C31   S    
C28   C34   A    
C45   N8    A    
C59   H55   S    
C54   H40   S    
C21   C22   A    
N1    N7    A    
C8    C25   S    
C7    C56   A    
C1    H1    S    
C44   C46   A    
C5    N17   A    
C20   C29   S    
C53   H38   S    
C49   N5    A    
C56   H12   S    
C5    H58   S    
C9    C62   A    
C54   H41   S    
C24   C25   A    
C18   O3    S    
C5    C7    A    
C50   H32   S    
C55   H44   S    
C10   H60   S    
C25   C26   A    
C55   H42   S    
C48   H29   S    
C40   H30   S    
C51   C52   A    
C43   C44   A    
C1    N1    A    
C37   C38   S    
C3    H56   S    
C4    N18   A    
C55   O3    S    
C47   C48   S    
C29   H17   S    
C40   N4    A    
N1    Ni1   S    
C53   O1    S    
C17   C18   S    
N11   Ni2   S    
C3    N16   A    
H50   N10   S    
N3    N5    A    
N6    Ni4   S    
C39   C46   A    
N13   Ni4   S    
C11   H2    S    
C16   C23   A    
C23   C35   S    
C13   C15   S    
C28   H24   S    
C58   H53   S    
C14   H7    S    
C22   C24   A    
C50   N6    A    
C42   C43   A    
N8    N16   A    
C60   N12   A    
C28   N3    A    
C61   N13   A    
N2    N4    A    
C13   H5    S    
N15   Ni1   S    
C46   C47   S    
C11   C17   S    
C9    C44   S    
C59   H57   S    
C41   C52   S    
C38   H22   S    
C2    N15   A    
C14   C19   S    
C57   N9    S    
C31   C32   A    
C2    C8    A    
C27   H15   S    
C12   C50   A    
C60   H23   S    
N11   N17   A    
N7    Ni3   S    
C13   H10   S    
C53   H36   S    
C14   O2    S    
C30   C36   A    
C47   N10   S    
C32   C33   A    
C16   N2    A    
C45   H35   S    
C8    C60   A    
C4    H3    S    
C29   H18   S    
C20   C26   A    
C48   O4    S    
C33   C35   A    
N4    Ni2   S    
C10   H59   S    
N6    N18   A    
C1    C52   A    
C47   H28   S    
C10   C11   S    
C12   C21   S    
C37   N9    S    
C42   H26   S    
C20   C21   A    
C34   C49   A    
C58   H52   S    
C14   C15   S    
C37   H21   S    
C19   H8    S    
N16   Ni4   S    
C22   H11   S    
C49   H31   S    
C51   H33   S    
C39   C48   S    
