data_mof_unit_4800.cif
_audit_creation_date              2012-12-10T17:48:43-0500
_audit_creation_method            fapswitch 2.2
_symmetry_space_group_name_H-M    P1
_symmetry_Int_Tables_number       1
_space_group_crystal_system       triclinic
_cell_length_a                    15.72489
_cell_length_b                    10.721067
_cell_length_c                    9.89706
_cell_angle_alpha                 90.981923
_cell_angle_beta                  90.059616
_cell_angle_gamma                 91.736574
_cell_volume                      1667.50832748

loop_
_atom_site_label
_atom_site_type_symbol
_atom_type_description
_atom_site_fract_x
_atom_site_fract_y
_atom_site_fract_z
_atom_type_partial_charge
C1    C     C_R   0.507977 0.260975 0.499432 0.854713
C2    C     C_R   0.565514 0.069921 0.864593 0.299662
C3    C     C_R   0.518235 0.958326 0.876525 -0.263299
C4    C     C_R   0.338362 0.499504 0.500008 0.889013
C5    C     C_R   0.487428 0.894683 0.761687 -0.202766
C6    C     C_R   0.502214 0.942656 0.631020 0.105652
C7    C     C_R   0.531601 0.066175 0.622060 0.045115
C8    C     C_R   0.517300 0.128304 0.499569 -0.099484
C9    C     C_R   0.495631 0.062040 0.381346 -0.228599
C10   C     C_R   0.485080 0.935040 0.384672 -0.224101
C11   C     C_R   0.489199 0.873993 0.508054 -0.119751
C12   C     C_3   0.949728 0.430762 0.625559 -0.402871
C13   C     C_R   0.388708 0.336166 0.137397 -0.134139
C14   C     C_R   0.333732 0.255315 0.065811 -0.205593
C15   C     C_R   0.333136 0.255802 0.926013 -0.191378
C16   C     C_R   0.494295 0.740043 0.502111 0.880976
C17   C     C_R   0.387501 0.337136 0.857012 -0.116391
C18   C     C_R   0.444220 0.420350 0.926209 0.097751
C19   C     C_R   0.444722 0.419825 0.070861 0.159276
C20   C     C_R   0.553472 0.575800 0.073623 -0.189699
C21   C     C_R   0.555057 0.574215 0.930022 0.226767
C22   C     C_R   0.661654 0.500159 0.500019 0.915090
C23   C     C_3   0.917327 0.497414 0.498671 0.336113
C24   C     C_3   0.047917 0.431073 0.625598 -0.459762
C25   C     C_3   0.047317 0.425298 0.370601 0.085474
C26   C     C_3   0.948629 0.428183 0.370287 -0.445218
C27   C     C_1   0.750553 0.499035 0.500039 -0.200385
C28   C     C_3   0.082581 0.497353 0.498092 0.301370
C29   C     C_3   0.650419 0.243439 0.976213 -0.797594
C30   C     C_3   0.702367 0.606157 0.871754 -0.767445
C31   C     C_3   0.084936 0.391831 0.131330 -0.819754
C32   C     C_3   0.953662 0.633220 0.498860 -0.405584
C33   C     C_3   0.051719 0.633370 0.501356 -0.409706
C34   C     C_1   0.825887 0.498062 0.499579 -0.112698
C35   C     C_1   0.174115 0.497816 0.499518 -0.090061
C36   C     C_1   0.249461 0.498553 0.499927 -0.179093
C37   C     C_R   0.571652 0.124143 0.736234 -0.182574
H1    H     H_    0.924153 0.332814 0.626928 0.167095
H2    H     H_    0.924897 0.474998 0.278637 0.174932
H3    H     H_    0.075195 0.682465 0.594835 0.172482
H4    H     H_    0.077761 0.686842 0.414669 0.163228
H5    H     H_    0.072543 0.479591 0.718707 0.184769
H6    H     H_    0.607522 0.210774 0.724489 0.162520
H7    H     H_    0.574536 0.106447 0.073222 0.221272
H8    H     H_    0.676701 0.269299 0.077404 0.244775
H9    H     H_    0.607026 0.316968 0.944782 0.247318
H10   H     H_    0.704410 0.237230 0.904422 0.233377
H11   H     H_    0.449900 0.810403 0.778298 0.179996
H12   H     H_    0.927032 0.478790 0.718821 0.174895
H13   H     H_    0.472718 0.884928 0.290305 0.167812
H14   H     H_    0.385678 0.329920 0.244434 0.201388
H15   H     H_    0.291398 0.191822 0.119305 0.142080
H16   H     H_    0.290381 0.192585 0.870468 0.142257
H17   H     H_    0.613479 0.742282 0.888713 0.216631
H18   H     H_    0.726515 0.619037 0.976808 0.210221
H19   H     H_    0.744399 0.660645 0.802953 0.234937
H20   H     H_    0.705079 0.505874 0.842281 0.254876
H21   H     H_    0.062345 0.564071 0.222583 0.231094
H22   H     H_    0.117125 0.438905 0.045455 0.245719
H23   H     H_    0.931859 0.682017 0.407258 0.165522
H24   H     H_    0.019243 0.363083 0.100139 0.234609
H25   H     H_    0.121352 0.308038 0.156255 0.244176
H26   H     H_    0.921889 0.330814 0.367136 0.153259
H27   H     H_    0.930220 0.685749 0.588714 0.170690
H28   H     H_    0.485539 0.108200 0.286377 0.165243
H29   H     H_    0.508044 0.917659 0.974881 0.130928
H30   H     H_    0.597114 0.637160 0.129693 0.157824
H31   H     H_    0.069746 0.333302 0.627946 0.163304
H32   H     H_    0.383389 0.331195 0.749851 0.202982
H33   H     H_    0.066196 0.326214 0.378965 0.131461
N1    N     N_R   0.499210 0.498800 0.142780 -0.129283
N2    N     N_R   0.499180 0.498720 0.857170 -0.142625
N3    N     N_2   0.604761 0.124498 0.982891 -0.310435
N4    N     N_2   0.616289 0.649370 0.861410 -0.247651
N5    N     N_2   0.082823 0.476677 0.246508 -0.290817
O1    O     O_R   0.500000 0.316780 0.614690 -0.648252
O2    O     O_R   0.499990 0.316750 0.385360 -0.641453
O3    O     O_R   0.377150 0.500020 0.614720 -0.639468
O4    O     O_R   0.377140 0.499990 0.385380 -0.624765
O5    O     O_R   0.500010 0.683250 0.614640 -0.613459
O6    O     O_R   0.500000 0.683220 0.385310 -0.618425
O7    O     O_R   0.622860 0.500010 0.614620 -0.591848
O8    O     O_R   0.622850 0.499980 0.385280 -0.612723
Zn1   Zn    Zn3+2 0.500010 0.500020 0.653130 0.935620
Zn2   Zn    Zn3+2 0.499990 0.499980 0.346870 0.932885

loop_
_geom_bond_atom_site_label_1
_geom_bond_atom_site_label_2
_ccdc_geom_bond_type
C4    C36   S    
C17   H32   S    
C1    C8    S    
C1    O2    A    
C31   H24   S    
C20   H30   S    
C19   N1    A    
C35   C36   T    
O5    Zn1   S    
O1    Zn1   S    
C12   H12   S    
C7    C8    A    
C25   C28   S    
C12   C23   S    
C29   H10   S    
C15   H16   S    
C5    C6    A    
C30   N4    S    
C26   H2    S    
C29   N3    S    
C30   H20   S    
C24   H5    S    
C18   C19   A    
C23   C26   S    
C31   H22   S    
C13   H14   S    
C14   H15   S    
C28   C35   S    
C8    C9    A    
C20   N1    A    
H17   N4    S    
C9    C10   A    
O2    Zn2   S    
N1    Zn2   S    
C13   C14   A    
C31   H25   S    
H21   N5    S    
C27   C34   T    
C18   N2    A    
C5    H11   S    
C33   H3    S    
C13   C19   A    
C21   N2    A    
C32   H27   S    
C4    O4    A    
C6    C11   A    
C25   C26   S    
C30   H19   S    
C21   N4    S    
C29   H8    S    
C25   N5    S    
C37   H6    S    
C26   H26   S    
C4    O3    A    
C11   C16   S    
C31   N5    S    
C23   C34   S    
C17   C18   A    
C7    C37   A    
N2    Zn1   S    
C2    N3    S    
O8    Zn2   S    
C28   C33   S    
O7    Zn1   S    
C22   C27   S    
C3    H29   S    
C32   H23   S    
C10   H13   S    
C22   O7    A    
O4    Zn2   S    
C15   C17   A    
C1    O1    A    
C24   C28   S    
C3    C5    A    
C6    C7    A    
C30   H18   S    
C12   C24   S    
C29   H9    S    
C33   H4    S    
C32   C33   S    
C2    C3    A    
C23   C32   S    
C22   O8    A    
C2    C37   A    
C16   O6    A    
C12   H1    S    
H7    N3    S    
C9    H28   S    
C10   C11   A    
C24   H31   S    
O3    Zn1   S    
C20   C21   A    
C14   C15   A    
C25   H33   S    
C16   O5    A    
O6    Zn2   S    
