data_mof_unit_3833.cif
_audit_creation_date              2012-12-11T16:32:27-0500
_audit_creation_method            fapswitch 2.2
_symmetry_space_group_name_H-M    P1
_symmetry_Int_Tables_number       1
_space_group_crystal_system       triclinic
_cell_length_a                    6.948526
_cell_length_b                    14.39335
_cell_length_c                    15.976561
_cell_angle_alpha                 90.015125
_cell_angle_beta                  90.159165
_cell_angle_gamma                 90.371018
_cell_volume                      1597.81714346

loop_
_atom_site_label
_atom_site_type_symbol
_atom_type_description
_atom_site_fract_x
_atom_site_fract_y
_atom_site_fract_z
_atom_type_partial_charge
O1    O     O_R   0.361630 0.167340 0.164570 -0.540495
O2    O     O_R   0.638370 0.832660 0.835430 -0.538521
O3    O     O_R   0.690860 0.157560 0.338690 -0.541633
O4    O     O_R   0.309140 0.842440 0.661310 -0.539811
O5    O     O_R   0.861260 0.336420 0.339380 -0.543309
O6    O     O_R   0.138740 0.663580 0.660620 -0.547600
C1    C     C_R   0.521779 0.136174 0.369156 0.675488
C2    C     C_R   0.478509 0.866454 0.632883 0.671798
O7    O     O_R   0.691330 0.156310 0.165190 -0.538454
O8    O     O_R   0.308670 0.843690 0.834810 -0.537783
O9    O     O_R   0.861730 0.335160 0.164640 -0.537647
O10   O     O_R   0.138270 0.664840 0.835360 -0.535951
C3    C     C_R   0.521646 0.134310 0.136295 0.693492
C4    C     C_R   0.478382 0.867113 0.862410 0.695732
O11   O     O_R   0.361150 0.168600 0.339320 -0.536222
O12   O     O_R   0.638850 0.831400 0.660680 -0.535219
O13   O     O_3   0.527950 0.310560 0.252000 -0.363924
O14   O     O_3   0.472050 0.689440 0.748000 -0.365555
V1    V     V_3+5 0.802770 0.240990 0.251980 1.413820
V2    V     V_3+5 0.197230 0.759010 0.748020 1.411683
O15   O     O_R   0.191450 0.346190 0.165260 -0.541269
O16   O     O_R   0.808550 0.653810 0.834740 -0.543894
C5    C     C_R   0.023246 0.367235 0.136073 0.697338
C6    C     C_R   0.976995 0.630518 0.862180 0.694874
O17   O     O_R   0.190980 0.347440 0.338770 -0.522870
O18   O     O_R   0.809020 0.652560 0.661230 -0.522262
C7    C     C_R   0.022959 0.368818 0.368185 0.719416
C8    C     C_R   0.977643 0.628837 0.633664 0.714770
V3    V     V_3+5 0.302780 0.262760 0.251980 1.439966
V4    V     V_3+5 0.697220 0.737240 0.748020 1.428643
O19   O     O_3   0.027730 0.193200 0.251960 -0.373608
O20   O     O_3   0.972270 0.806800 0.748040 -0.370135
C9    C     C_3   0.840512 0.444628 0.499336 -0.229246
C10   C     C_3   0.162269 0.550047 0.504735 -0.227111
C11   C     C_3   0.980693 0.450307 0.575315 -0.328797
C12   C     C_3   0.022169 0.544503 0.428865 -0.317365
H1    H     H_    0.960634 0.412969 0.635253 0.118151
H2    H     H_    0.043516 0.580745 0.368374 0.109555
H3    H     H_    0.708069 0.401616 0.494610 0.169152
H4    H     H_    0.294461 0.592890 0.510672 0.158936
C13   C     C_3   0.988439 0.557242 0.565063 -0.113135
C14   C     C_3   0.014072 0.437708 0.438896 -0.108433
C15   C     C_3   0.850842 0.551016 0.490240 0.519961
C16   C     C_3   0.152019 0.443556 0.513977 0.537252
H5    H     H_    0.071436 0.314409 0.753038 0.101875
H6    H     H_    0.951100 0.682205 0.244589 0.131232
C17   C     C_R   0.922679 0.687537 0.033270 -0.142677
C18   C     C_R   0.070909 0.308572 0.964735 -0.145294
C19   C     C_R   0.911892 0.718442 0.115689 -0.108411
C20   C     C_R   0.086560 0.277645 0.882488 -0.101962
C21   C     C_R   0.945762 0.657092 0.181172 -0.171129
C22   C     C_R   0.064372 0.339612 0.816569 -0.156187
C23   C     C_R   0.976517 0.563411 0.165344 -0.143531
C24   C     C_R   0.032986 0.433626 0.832234 -0.142359
C25   C     C_R   0.983722 0.529672 0.082449 0.074717
C26   C     C_R   0.018368 0.467185 0.915115 0.072186
C27   C     C_R   0.963213 0.593423 0.015097 0.056131
C28   C     C_R   0.034727 0.403151 0.982588 0.054058
C29   C     C_R   0.015134 0.434432 0.066107 -0.183841
C30   C     C_R   0.984820 0.562508 0.931574 -0.184384
H7    H     H_    0.901696 0.738394 0.984268 0.112837
H8    H     H_    0.086496 0.257506 0.013961 0.109150
H9    H     H_    0.884653 0.791000 0.128699 0.133979
H10   H     H_    0.112857 0.204925 0.869827 0.130799
H11   H     H_    0.998473 0.518243 0.218608 0.089847
H12   H     H_    0.018310 0.479424 0.778946 0.088826
C31   C     C_3   0.321821 0.023609 0.476112 -0.107670
C32   C     C_3   0.678182 0.983098 0.529107 -0.117070
C33   C     C_3   0.414009 0.925857 0.473775 -0.139732
C34   C     C_3   0.586048 0.080934 0.531220 -0.135213
H13   H     H_    0.341175 0.862008 0.450528 0.098171
H14   H     H_    0.657135 0.144964 0.555163 0.090751
H15   H     H_    0.173880 0.040081 0.454533 0.107481
H16   H     H_    0.826160 0.966442 0.550512 0.109045
C35   C     C_3   0.490105 0.940044 0.563700 -0.014135
C36   C     C_3   0.509965 0.066260 0.441245 -0.011239
C37   C     C_3   0.398036 0.037390 0.566723 -0.140132
C38   C     C_3   0.602152 0.969407 0.438655 -0.152337
H17   H     H_    0.313629 0.065829 0.619661 0.097810
H18   H     H_    0.691520 0.944901 0.386057 0.120012
H19   H     H_    0.274925 0.832960 0.236073 0.108646
H20   H     H_    0.638394 0.177720 0.753524 0.108825
C39   C     C_R   0.593281 0.188964 0.964704 -0.143098
C40   C     C_R   0.404818 0.813514 0.033003 -0.142157
C41   C     C_R   0.624034 0.218036 0.882660 -0.111911
C42   C     C_R   0.350164 0.786852 0.113137 -0.109888
C43   C     C_R   0.613931 0.154600 0.817128 -0.141043
C44   C     C_R   0.331684 0.853050 0.175792 -0.136687
C45   C     C_R   0.571806 0.061457 0.833143 -0.142319
C46   C     C_R   0.387825 0.944725 0.161394 -0.141507
C47   C     C_R   0.537582 0.030017 0.915707 0.068981
C48   C     C_R   0.449334 0.973510 0.081141 0.068096
C49   C     C_R   0.548603 0.095137 0.982911 0.059715
C50   C     C_R   0.448286 0.907430 0.014712 0.060598
C51   C     C_R   0.490093 0.935763 0.931879 -0.185270
C52   C     C_R   0.508507 0.066445 0.066041 -0.187071
H21   H     H_    0.602104 0.241128 0.013386 0.109876
H22   H     H_    0.410730 0.759887 0.985598 0.110326
H23   H     H_    0.656425 0.290280 0.870067 0.140579
H24   H     H_    0.317555 0.714705 0.126066 0.138147
H25   H     H_    0.564412 0.014711 0.780136 0.091304
H26   H     H_    0.379300 0.992746 0.213339 0.103036
O21   O     O_3   0.683346 0.605870 0.487710 -0.583791
C53   C     C_3   0.641446 0.634870 0.405544 0.070739
H27   H     H_    0.482844 0.641369 0.400104 0.141849
H28   H     H_    0.684313 0.583698 0.356678 0.110934
C54   C     C_3   0.732173 0.730263 0.389659 -0.331360
H29   H     H_    0.706580 0.775987 0.444498 0.210595
H30   H     H_    0.890120 0.723901 0.382476 0.170890
C55   C     C_3   0.645922 0.774902 0.311802 -0.858450
H31   H     H_    0.618985 0.722908 0.261730 0.244607
H32   H     H_    0.744231 0.829393 0.287121 0.227695
H33   H     H_    0.507324 0.806846 0.328898 0.227062
O22   O     O_3   0.319807 0.388546 0.517501 -0.577672
C56   C     C_3   0.368837 0.364623 0.600603 0.025694
H34   H     H_    0.486236 0.312761 0.596821 0.140947
H35   H     H_    0.248057 0.328708 0.632563 0.103768
C57   C     C_3   0.442104 0.448700 0.651358 -0.294532
H36   H     H_    0.542577 0.490757 0.612879 0.233329
H37   H     H_    0.319447 0.493382 0.669218 0.188735
C58   C     C_3   0.545578 0.418513 0.731059 -0.827896
H38   H     H_    0.446087 0.378740 0.771890 0.238665
H39   H     H_    0.597531 0.480719 0.765726 0.244006
H40   H     H_    0.671094 0.374416 0.715707 0.215626

loop_
_geom_bond_atom_site_label_1
_geom_bond_atom_site_label_2
_ccdc_geom_bond_type
C19   H9    S    
C25   C29   A    
C20   H10   S    
C12   C14   S    
C31   C37   S    
O4    C2    A    
V1    O19   S    
C53   H28   S    
O22   C56   S    
C17   C19   A    
C32   C35   S    
C5    C29   S    
O9    V1    S    
C24   H12   S    
C9    H3    S    
C10   H4    S    
C9    C14   S    
C11   H1    S    
C36   C38   S    
O3    C1    A    
C38   H18   S    
C17   C27   A    
C32   H16   S    
H20   C43   S    
C39   C49   A    
C8    C13   S    
C48   C52   A    
O13   V3    S    
C33   H13   S    
O7    C3    A    
C55   H31   S    
C46   H26   S    
C58   H40   S    
C55   H32   S    
C9    C11   S    
O5    C7    A    
C18   H8    S    
O7    V1    S    
O6    C8    A    
O8    V2    S    
C19   C21   A    
C20   C22   A    
C54   H29   S    
O3    V1    S    
C31   H15   S    
C45   C47   A    
C42   H24   S    
C13   C15   S    
O14   V2    S    
C18   C20   A    
C16   O22   S    
C2    O12   A    
C57   H36   S    
C34   C37   S    
O17   V3    S    
C54   H30   S    
C33   C38   S    
C10   C13   S    
C14   C16   S    
C11   C13   S    
O1    V3    S    
C53   H27   S    
C22   C24   A    
O11   V3    S    
C57   H37   S    
C23   C25   A    
C32   C38   S    
C24   C26   A    
C41   C43   A    
C9    C15   S    
C10   C16   S    
O8    C4    A    
C27   C30   A    
C1    O11   A    
C3    C52   S    
H5    C22   S    
C56   H35   S    
C28   C29   A    
O15   V3    S    
H6    C21   S    
C2    C35   S    
C26   C30   A    
C21   C23   A    
C57   C58   S    
C41   H23   S    
C47   C49   A    
C46   C48   A    
C6    C30   S    
C56   C57   S    
O10   V2    S    
C48   C50   A    
C37   H17   S    
C40   C50   A    
C11   C16   S    
C35   C37   S    
C55   H33   S    
C58   H38   S    
O14   V4    S    
C39   C41   A    
C44   C46   A    
O18   V4    S    
C49   C52   A    
C25   C27   A    
C34   C36   S    
C54   C55   S    
O16   C6    A    
O1    C3    A    
C12   H2    S    
C4    C51   S    
C23   H11   S    
V2    O20   S    
O16   V4    S    
C45   H25   S    
C40   C42   A    
C17   H7    S    
C18   C28   A    
C1    C36   S    
O5    V1    S    
O17   C7    A    
O6    V2    S    
O10   C6    A    
O18   C8    A    
O2    V4    S    
C40   H22   S    
O15   C5    A    
V3    O19   S    
V4    O20   S    
C7    C14   S    
O9    C5    A    
O13   V1    S    
C10   C12   S    
C26   C28   A    
C33   C35   S    
C42   C44   A    
C50   C51   A    
O2    C4    A    
C15   O21   S    
C58   H39   S    
H19   C44   S    
C47   C51   A    
O4    V2    S    
C32   C34   S    
C39   H21   S    
O21   C53   S    
C43   C45   A    
C12   C15   S    
C34   H14   S    
C31   C36   S    
C31   C33   S    
O12   V4    S    
C53   C54   S    
C56   H34   S    
