data_mof_unit_847.cif
_audit_creation_date              2012-10-26T21:10:50-0400
_audit_creation_method            fapswitch 2.2
_symmetry_space_group_name_H-M    P1
_symmetry_Int_Tables_number       1
_space_group_crystal_system       triclinic
_cell_length_a                    10.736641
_cell_length_b                    14.878702
_cell_length_c                    15.010413
_cell_angle_alpha                 63.600444
_cell_angle_beta                  107.466369
_cell_angle_gamma                 102.290234
_cell_volume                      2039.91457847

loop_
_atom_site_label
_atom_site_type_symbol
_atom_type_description
_atom_site_fract_x
_atom_site_fract_y
_atom_site_fract_z
_atom_type_partial_charge
C1    C     C_R   0.475827 0.119498 0.312582 0.532724
C2    C     C_R   0.689386 0.766920 0.966161 0.369426
C3    C     C_R   0.350524 0.161024 0.132706 -0.069178
C4    C     C_R   0.649529 0.838970 0.867285 -0.069130
C5    C     C_R   0.511866 0.285042 0.175534 -0.116812
C6    C     C_R   0.488171 0.714953 0.824467 -0.116747
C7    C     C_R   0.470777 0.360706 0.077502 0.021073
C8    C     C_R   0.529284 0.639285 0.922491 0.021083
C9    C     C_R   0.368739 0.332943 0.006025 0.071626
C10   C     C_R   0.631334 0.667047 0.993963 0.071628
C11   C     C_R   0.524762 0.463223 0.049824 0.051304
C12   C     C_R   0.524180 0.880501 0.687418 0.532707
C13   C     C_R   0.475306 0.536766 0.950167 0.051300
C14   C     C_R   0.374937 0.505055 0.881088 -0.140554
C15   C     C_R   0.625142 0.494934 0.118899 -0.140558
C16   C     C_R   0.263302 0.999260 0.501066 0.586546
C17   C     C_R   0.736699 0.000739 0.498935 0.586547
C18   C     C_R   0.323676 0.405391 0.908504 -0.104343
C19   C     C_R   0.676409 0.594596 0.091480 -0.104346
C20   C     C_R   0.761517 0.303949 0.624376 -0.152642
C21   C     C_R   0.238480 0.696051 0.375625 -0.152655
C22   C     C_R   0.706787 0.212146 0.619459 0.027889
C23   C     C_R   0.870584 0.001231 0.498005 -0.038920
C24   C     C_R   0.293210 0.787853 0.380546 0.027849
C25   C     C_R   0.505327 0.283882 0.514842 0.185226
C26   C     C_R   0.494675 0.716120 0.485151 0.185325
C27   C     C_R   0.548893 0.370667 0.537605 0.021555
C28   C     C_R   0.451109 0.629337 0.462386 0.021598
C29   C     C_R   0.684691 0.385209 0.577766 0.018454
C30   C     C_R   0.315310 0.614794 0.422228 0.018448
C31   C     C_R   0.469597 0.450734 0.507003 0.014523
C32   C     C_R   0.530405 0.549270 0.492985 0.014525
C33   C     C_R   0.667688 0.564437 0.507468 -0.149757
C34   C     C_R   0.129416 0.998767 0.501997 -0.038938
C35   C     C_R   0.332314 0.435567 0.492521 -0.149717
C36   C     C_R   0.743796 0.482991 0.559593 -0.131776
C37   C     C_R   0.256206 0.517012 0.440399 -0.131775
C38   C     C_R   0.310362 0.873070 0.854796 0.370706
C39   C     C_R   0.689719 0.126924 0.145176 0.370725
C40   C     C_R   0.215661 0.886147 0.763807 -0.096615
C41   C     C_R   0.784387 0.113848 0.236179 -0.096591
C42   C     C_R   0.199317 0.982623 0.684786 0.035610
C43   C     C_R   0.800689 0.017376 0.315215 0.035583
C44   C     C_R   0.277909 0.066370 0.698125 0.443762
C45   C     C_R   0.901346 0.004958 0.411419 -0.024610
C46   C     C_R   0.722079 0.933632 0.301881 0.443786
C47   C     C_R   0.376102 0.053055 0.788568 -0.005398
C48   C     C_R   0.623934 0.946943 0.211412 -0.005392
C49   C     C_R   0.391264 0.955835 0.866753 -0.117119
C50   C     C_R   0.608821 0.044161 0.133211 -0.117101
C51   C     C_R   0.968421 0.996462 0.585719 0.343921
C52   C     C_R   0.031580 0.003535 0.414284 0.343891
C53   C     C_3   0.607731 0.707541 0.579143 -0.206937
C54   C     C_3   0.578174 0.620657 0.677083 -0.446168
C55   C     C_3   0.392273 0.292460 0.420851 -0.206952
C56   C     C_R   0.098654 0.995040 0.588584 -0.024606
C57   C     C_3   0.421832 0.379341 0.322909 -0.446135
C58   C     C_3   0.465609 0.141632 0.801574 -0.261827
C59   C     C_3   0.396323 0.203430 0.827149 -0.369932
C60   C     C_3   0.534396 0.858378 0.198400 -0.261832
C61   C     C_3   0.603760 0.796322 0.173225 -0.370281
C62   C     C_R   0.448781 0.187804 0.204340 -0.049832
C63   C     C_R   0.551250 0.812193 0.795658 -0.049813
C64   C     C_R   0.310686 0.233071 0.033825 0.369376
Cu1   Cu    Cu3+1 0.466270 0.918260 0.475690 0.966874
Cu2   Cu    Cu3+1 0.533730 0.081740 0.524310 0.966850
F1    F     F_    0.210268 0.206450 0.967104 -0.643633
F2    F     F_    0.789827 0.793538 0.032870 -0.643627
F3    F     F_    0.324836 0.779704 0.931282 -0.633041
F4    F     F_    0.675275 0.220287 0.068681 -0.633043
F5    F     F_    0.259982 0.160123 0.622757 -0.667886
F6    F     F_    0.739947 0.839889 0.377278 -0.667916
F7    F     F_    0.936359 0.990693 0.669322 -0.619029
F8    F     F_    0.063642 0.009304 0.330682 -0.619040
H1    H     H_    0.465491 0.944151 0.937174 0.128039
H2    H     H_    0.135378 0.687293 0.339911 0.132930
H3    H     H_    0.717144 0.638895 0.477463 0.175323
H4    H     H_    0.282859 0.361109 0.522528 0.175378
H5    H     H_    0.154931 0.821173 0.754753 0.146953
H6    H     H_    0.845126 0.178819 0.245232 0.146967
H7    H     H_    0.246486 0.385456 0.852742 0.172945
H8    H     H_    0.753609 0.614530 0.147237 0.172951
H9    H     H_    0.409456 0.700714 0.766927 0.126275
H10   H     H_    0.590560 0.299285 0.233082 0.126268
H11   H     H_    0.699516 0.914266 0.845493 0.169930
H12   H     H_    0.534628 0.055847 0.062775 0.127917
H13   H     H_    0.300536 0.085728 0.154494 0.169930
H14   H     H_    0.476967 0.620980 0.681405 0.153646
H15   H     H_    0.588413 0.546731 0.680122 0.166574
H16   H     H_    0.648054 0.628918 0.745154 0.155583
H17   H     H_    0.703506 0.702238 0.570518 0.148748
H18   H     H_    0.630619 0.773988 0.594724 0.221272
H19   H     H_    0.411592 0.453267 0.319867 0.166563
H20   H     H_    0.523041 0.379017 0.318590 0.153654
H21   H     H_    0.351955 0.371077 0.254839 0.155587
H22   H     H_    0.369379 0.226011 0.405273 0.221275
H23   H     H_    0.331953 0.555058 0.804547 0.102104
H24   H     H_    0.296498 0.297767 0.429473 0.148709
H25   H     H_    0.310266 0.235009 0.764135 0.208300
H26   H     H_    0.363430 0.155072 0.898830 0.206947
H27   H     H_    0.465169 0.266732 0.838531 0.166311
H28   H     H_    0.554401 0.115429 0.864094 0.147624
H29   H     H_    0.499711 0.190246 0.730502 0.188611
H30   H     H_    0.637143 0.844522 0.101766 0.207308
H31   H     H_    0.689461 0.764583 0.236494 0.208158
H32   H     H_    0.534832 0.733135 0.161667 0.166240
H33   H     H_    0.499993 0.809951 0.269348 0.188549
H34   H     H_    0.668135 0.444927 0.195437 0.102113
H35   H     H_    0.445807 0.884593 0.135695 0.147636
H36   H     H_    0.849678 0.497214 0.578135 0.123729
H37   H     H_    0.150324 0.502788 0.421859 0.123730
H38   H     H_    0.232934 0.849927 0.346579 0.184663
H39   H     H_    0.767061 0.150070 0.653431 0.184655
H40   H     H_    0.864619 0.312706 0.660094 0.132932
N1    N     N_R   0.584450 0.204570 0.560790 -0.243871
N2    N     N_R   0.415550 0.795430 0.439210 -0.243869
O1    O     O_R   0.455540 0.022090 0.338120 -0.499764
O2    O     O_R   0.544460 0.977910 0.661880 -0.499767
O3    O     O_R   0.512510 0.160150 0.379180 -0.530906
O4    O     O_R   0.487490 0.839850 0.620820 -0.530917
O5    O     O_R   0.291160 0.930970 0.479480 -0.467589
O6    O     O_R   0.708840 0.069030 0.520520 -0.467596
O7    O     O_R   0.348130 0.069020 0.520540 -0.499522
O8    O     O_R   0.651870 0.930980 0.479460 -0.499463

loop_
_geom_bond_atom_site_label_1
_geom_bond_atom_site_label_2
_ccdc_geom_bond_type
C15   H34   S    
C54   H14   S    
C15   C19   A    
C34   C56   A    
C8    C13   A    
C23   C45   A    
C27   C29   A    
C9    C64   A    
C59   H25   S    
C14   C18   A    
C24   H38   S    
C1    C62   S    
C33   C36   A    
C41   H6    S    
C47   C49   A    
C38   C49   A    
C53   C54   S    
C7    C11   A    
C29   C36   A    
C17   C23   S    
C35   C37   A    
C16   O7    A    
C54   H16   S    
C2    F2    S    
C25   N1    A    
C18   H7    S    
C44   F5    S    
C51   C56   A    
C1    O3    A    
Cu1   O8    S    
C60   H35   S    
C16   C34   S    
C12   O4    A    
C11   C15   A    
C39   F4    S    
C22   H39   S    
C53   H17   S    
C49   H1    S    
C58   H28   S    
Cu1   O5    S    
C19   H8    S    
C61   H31   S    
C46   F6    S    
C44   C47   A    
C42   C56   S    
C40   C42   A    
C38   F3    S    
C38   C40   A    
C57   H19   S    
C13   C14   A    
C59   H26   S    
C41   C43   A    
C42   C44   A    
C26   C28   A    
C48   C60   S    
C20   C29   A    
C46   C48   A    
Cu2   N1    S    
C27   C31   A    
C59   H27   S    
C64   F1    S    
C51   F7    S    
C28   C32   A    
C61   H30   S    
C54   H15   S    
C39   C41   A    
Cu2   O2    S    
C5    C7    A    
C5    H10   S    
C6    C8    A    
C4    H11   S    
C45   C52   A    
C58   C59   S    
C3    C64   A    
C3    H13   S    
C30   C37   A    
C60   C61   S    
C6    C63   A    
C2    C4    A    
C16   O5    A    
C9    C18   A    
C17   O8    A    
C23   C51   A    
C31   C32   A    
C21   H2    S    
C10   C19   A    
C53   H18   S    
Cu2   O6    S    
C40   H5    S    
C1    O1    A    
C61   H32   S    
C43   C45   S    
C60   H33   S    
C12   O2    A    
C4    C63   A    
C22   N1    A    
C20   C22   A    
C24   N2    A    
Cu2   O3    S    
C55   C57   S    
C36   H36   S    
Cu1   N2    S    
C31   C35   A    
C2    C10   A    
C26   C53   S    
C14   H23   S    
C3    C62   A    
C7    C9    A    
C6    H9    S    
C34   C52   A    
C25   C55   S    
C55   H22   S    
C25   C27   A    
C21   C30   A    
C35   H4    S    
C52   F8    S    
C57   H20   S    
C32   C33   A    
C28   C30   A    
C47   C58   S    
C20   H40   S    
C11   C13   A    
C33   H3    S    
C55   H24   S    
C48   C50   A    
Cu1   O4    S    
C5    C62   A    
C43   C46   A    
C26   N2    A    
C37   H37   S    
C50   H12   S    
C17   O6    A    
C39   C50   A    
C8    C10   A    
Cu1   Cu2   S    
C57   H21   S    
C21   C24   A    
Cu1   O1    S    
Cu2   O7    S    
C58   H29   S    
C12   C63   S    
