data_mof_unit_3142.cif
_audit_creation_date              2013-03-05T15:52:27-0500
_audit_creation_method            fapswitch 2.2
_symmetry_space_group_name_H-M    P1
_symmetry_Int_Tables_number       1
_space_group_crystal_system       triclinic
_cell_length_a                    27.561193
_cell_length_b                    10.88155
_cell_length_c                    9.629859
_cell_angle_alpha                 88.516767
_cell_angle_beta                  89.112176
_cell_angle_gamma                 93.28709
_cell_volume                      2881.94175771

loop_
_atom_site_label
_atom_site_type_symbol
_atom_site_description
_atom_site_fract_x
_atom_site_fract_y
_atom_site_fract_z
_atom_type_partial_charge
O1    O     O_R   0.500000 0.319640 0.618810 -0.588258
O2    O     O_R   0.500000 0.319660 0.381240 -0.595917
C1    C     C_R   0.501220 0.262180 0.502807 0.773979
O3    O     O_R   0.430260 0.500010 0.618770 -0.528674
O4    O     O_R   0.430270 0.500030 0.381200 -0.580502
C2    C     C_R   0.407575 0.495519 0.500701 0.856981
Cu1   Cu    Cu3+1 0.500000 0.499990 0.640660 1.020666
Cu2   Cu    Cu3+1 0.500000 0.500010 0.359340 0.946628
O5    O     O_R   0.500000 0.680340 0.618760 -0.487551
O6    O     O_R   0.500000 0.680360 0.381190 -0.609035
O7    O     O_R   0.569730 0.499970 0.618800 -0.522046
O8    O     O_R   0.569740 0.499990 0.381230 -0.602098
C3    C     C_R   0.495819 0.736780 0.498043 0.821438
C4    C     C_R   0.592282 0.499703 0.498950 0.818888
C5    C     C_R   0.176085 0.358674 0.605593 0.575821
O9    O     O_2   0.199789 0.329059 0.722307 -0.518852
N1    N     N_R   0.201726 0.403008 0.490774 -0.467954
C6    C     C_R   0.179012 0.428314 0.368897 0.613635
C7    C     C_R   0.273478 0.546310 0.495822 -0.192403
C8    C     C_R   0.324074 0.570261 0.495517 0.360353
C9    C     C_R   0.334531 0.348058 0.501384 0.134553
C10   C     C_R   0.283859 0.326976 0.500516 -0.107533
C11   C     C_R   0.253449 0.425380 0.498376 0.238230
C12   C     C_R   0.100642 0.381469 0.482958 -0.132687
C13   C     C_R   0.125135 0.345967 0.603244 -0.027831
C14   C     C_R   0.098539 0.293900 0.716481 -0.242951
C15   C     C_R   0.127797 0.415965 0.361387 -0.107367
C16   C     C_R   0.354673 0.471116 0.501416 -0.129818
H1    H     H_    0.267864 0.233968 0.495811 0.162174
H2    H     H_    0.117441 0.256032 0.804164 0.182055
C17   C     C_R   0.645071 0.494361 0.496525 -0.125558
C18   C     C_R   0.971156 0.360459 0.613193 0.016201
C19   C     C_R   0.975394 0.448500 0.374677 0.108581
C20   C     C_R   0.948053 0.412218 0.496601 0.038791
C21   C     C_R   0.943113 0.340026 0.736595 -0.198163
C22   C     C_R   0.893031 0.353671 0.741740 0.228969
C23   C     C_R   0.869283 0.397988 0.623416 -0.066582
C24   C     C_R   0.897394 0.432397 0.503251 -0.092552
C25   C     C_R   0.875022 0.490017 0.390280 0.004280
C26   C     C_R   0.824707 0.502431 0.393340 0.533862
N2    N     N_R   0.797470 0.461498 0.506633 -0.452020
C27   C     C_R   0.818554 0.412728 0.621682 0.602560
C28   C     C_R   0.714379 0.366025 0.493229 0.300036
C29   C     C_R   0.664203 0.378349 0.488734 -0.316297
C30   C     C_R   0.676164 0.601932 0.502993 0.272061
C31   C     C_R   0.726624 0.588188 0.510528 -0.160305
C32   C     C_R   0.745675 0.471602 0.505139 0.262352
O10   O     O_2   0.790340 0.379161 0.733419 -0.507171
C33   C     C_R   0.022168 0.342231 0.606680 0.057960
C34   C     C_R   0.049188 0.382038 0.484552 -0.064352
C35   C     C_R   0.025300 0.422702 0.363936 -0.020912
C36   C     C_R   0.047587 0.283382 0.715623 0.393386
H3    H     H_    0.639897 0.297222 0.479053 0.149809
H4    H     H_    0.959223 0.320625 0.835036 0.227432
O11   O     O_2   0.206035 0.467076 0.256434 -0.448177
C37   C     C_R   0.103387 0.430251 0.235107 0.355361
H5    H     H_    0.249438 0.621608 0.491110 0.147175
C38   C     C_R   0.952831 0.519930 0.272330 -0.139373
C39   C     C_R   0.903488 0.537830 0.278552 -0.208993
O12   O     O_2   0.802997 0.553695 0.283129 -0.555614
C40   C     C_R   0.052049 0.433651 0.235914 0.276996
H6    H     H_    0.973001 0.568706 0.189201 0.187748
H7    H     H_    0.887871 0.591678 0.196178 0.183714
H8    H     H_    0.751905 0.667207 0.518858 0.157846
H9    H     H_    0.506752 0.123808 0.285797 0.173190
C41   C     C_R   0.495106 0.101479 0.768060 -0.214846
H10   H     H_    0.514932 0.186636 0.790063 0.196976
C42   C     C_R   0.474992 0.035778 0.882659 -0.394303
H11   H     H_    0.477263 0.076201 0.984124 0.166222
C43   C     C_R   0.450157 0.921740 0.865686 0.478718
C44   C     C_R   0.450285 0.868086 0.735320 0.431314
C45   C     C_R   0.476197 0.929015 0.620492 -0.141886
C46   C     C_R   0.491151 0.054568 0.632709 0.065040
C47   C     C_R   0.500462 0.127000 0.508762 -0.133853
C48   C     C_R   0.502123 0.069533 0.381362 -0.220518
C49   C     C_R   0.498021 0.942907 0.372135 0.266286
C50   C     C_R   0.487709 0.869882 0.494653 -0.176664
H12   H     H_    0.438344 0.379841 0.136821 0.143127
C51   C     C_R   0.571948 0.637372 0.143084 -0.179944
H13   H     H_    0.567943 0.664599 0.247459 0.227664
C52   C     C_R   0.614826 0.679494 0.078856 -0.383275
H14   H     H_    0.643471 0.722447 0.139968 0.176162
C53   C     C_R   0.618629 0.678576 0.935772 0.342183
C54   C     C_R   0.577285 0.642136 0.858986 0.432630
C55   C     C_R   0.537219 0.568164 0.923704 0.041212
C56   C     C_R   0.536004 0.567659 0.073032 0.139099
N3    N     N_R   0.500460 0.501210 0.147910 -0.192574
C57   C     C_R   0.466012 0.434206 0.077916 -0.092152
C58   C     C_R   0.465108 0.435891 0.930145 0.334086
N4    N     N_R   0.500480 0.501290 0.852040 -0.177730
N5    N     N_2   0.364442 0.245896 0.487427 -0.426061
H15   H     H_    0.399318 0.265698 0.450376 0.249502
C59   C     C_3   0.361681 0.154668 0.599703 -0.629037
H16   H     H_    0.381965 0.074027 0.569258 0.229283
H17   H     H_    0.323484 0.122034 0.623204 0.237532
H18   H     H_    0.378433 0.193427 0.694026 0.231272
O13   O     O_3   0.130031 0.434887 0.112090 -0.660307
H19   H     H_    0.110834 0.391677 0.040152 0.332417
N6    N     N_2   0.656258 0.721019 0.502994 -0.398323
H20   H     H_    0.621505 0.725072 0.465745 0.236436
C60   C     C_3   0.687231 0.829103 0.465396 -0.687657
H21   H     H_    0.665112 0.911247 0.460421 0.217428
H22   H     H_    0.704585 0.818245 0.361862 0.227015
H23   H     H_    0.715198 0.845705 0.545498 0.245425
O14   O     O_3   0.027480 0.436612 0.112117 -0.754866
H24   H     H_    0.046338 0.492083 0.045295 0.328949
O15   O     O_3   0.424737 0.861097 0.974085 -0.686660
H25   H     H_    0.424482 0.915824 0.054803 0.324412
O16   O     O_3   0.420900 0.762396 0.721760 -0.665982
H26   H     H_    0.412588 0.755407 0.622883 0.342002
N7    N     N_2   0.500958 0.893630 0.236622 -0.439241
H27   H     H_    0.479721 0.816783 0.211739 0.302495
C61   C     C_3   0.545489 0.920855 0.157142 -0.679659
H28   H     H_    0.543595 0.872647 0.057007 0.240427
H29   H     H_    0.577111 0.891005 0.216717 0.226698
H30   H     H_    0.550748 0.020830 0.132379 0.222700
O17   O     O_3   0.660198 0.726241 0.866808 -0.717759
H31   H     H_    0.685464 0.748024 0.935656 0.335592
O18   O     O_3   0.574344 0.694505 0.729109 -0.686711
H32   H     H_    0.595690 0.770882 0.719291 0.348089
N8    N     N_2   0.426954 0.368743 0.863447 -0.408609
H33   H     H_    0.426336 0.275892 0.887951 0.223538
C62   C     C_3   0.379555 0.417387 0.883673 -0.580801
H34   H     H_    0.366995 0.403374 0.993435 0.207994
H35   H     H_    0.352778 0.369120 0.816238 0.227104
H36   H     H_    0.380766 0.517277 0.855673 0.280877
N9    N     N_2   0.733865 0.248842 0.477995 -0.421638
H37   H     H_    0.728512 0.214547 0.380235 0.251849
C63   C     C_3   0.720198 0.158530 0.586658 -0.630389
H38   H     H_    0.742222 0.077055 0.575062 0.225379
H39   H     H_    0.681158 0.128220 0.579524 0.201348
H40   H     H_    0.727112 0.196943 0.690642 0.277732
N10   N     N_2   0.867537 0.326758 0.869540 -0.377951
H41   H     H_    0.878351 0.248454 0.920263 0.258151
C64   C     C_3   0.866904 0.430014 0.960843 -0.571908
H42   H     H_    0.844383 0.403743 0.054683 0.250707
H43   H     H_    0.850988 0.509921 0.908010 0.244226
H44   H     H_    0.904453 0.456986 0.993233 0.205086
O19   O     O_3   0.023030 0.207351 0.813673 -0.743007
H45   H     H_    0.046290 0.173743 0.880297 0.334218
O20   O     O_3   0.344286 0.689111 0.484074 -0.754047
H46   H     H_    0.317921 0.747384 0.480702 0.335584

loop_
_geom_bond_atom_site_label_1
_geom_bond_atom_site_label_2
_geom_bond_distance
_ccdc_geom_bond_type
C38   H6    1.077937 S    
C64   H44   1.111011 S    
C41   C42   1.389635 A    
N3    C57   1.361329 A    
C59   H16   1.110393 S    
C26   O12   1.350160 S    
C10   H1    1.082821 S    
C62   H34   1.111110 S    
N2    C27   1.368087 A    
N7    H27   1.028524 S    
C35   C40   1.425398 A    
C12   C15   1.410497 A    
C4    C17   1.459258 S    
C48   C49   1.381319 A    
C22   N10   1.423036 S    
C52   H14   1.083706 S    
C64   H42   1.110182 S    
C55   C56   1.437748 A    
C7    H5    1.083359 S    
Cu1   O7    1.930104 S    
C19   C38   1.413161 A    
C22   C23   1.410723 A    
C61   H28   1.110119 S    
C43   O15   1.380079 S    
C49   N7    1.426521 S    
O4    C2    1.299684 A    
O7    C4    1.302513 A    
C62   H35   1.109157 S    
C5    O9    1.349822 S    
C36   O19   1.381880 S    
C64   H43   1.111337 S    
C46   C47   1.424904 A    
C23   C27   1.416743 A    
C1    C47   1.469539 S    
O5    C3    1.310399 A    
C59   H17   1.109595 S    
C45   C50   1.426557 A    
O20   H46   0.991777 S    
C29   H3    1.084045 S    
C2    C16   1.466856 S    
C7    C8    1.403822 A    
C42   H11   1.083098 S    
O15   H25   0.991543 S    
C43   C44   1.398206 A    
C40   O14   1.380699 S    
C61   H30   1.108502 S    
C41   H10   1.076017 S    
C60   H22   1.111120 S    
O1    Cu1   1.979143 S    
C9    C10   1.402468 A    
C21   H4    1.074150 S    
C37   O13   1.382328 S    
O3    Cu1   1.936901 S    
C52   C53   1.380578 A    
O13   H19   0.990258 S    
C49   C50   1.421049 A    
C10   C11   1.397057 A    
C12   C34   1.418344 A    
O19   H45   0.991877 S    
C3    C50   1.477726 S    
C17   C29   1.399034 A    
C6    C15   1.413374 A    
C60   H21   1.110896 S    
Cu1   Cu2   2.709066 S    
C12   C13   1.406303 A    
O3    C2    1.306687 A    
C47   C48   1.392667 A    
C28   N9    1.421865 S    
N5    H15   1.029217 S    
C51   C52   1.374672 A    
C15   C37   1.408245 A    
C62   H36   1.111622 S    
C27   O10   1.347966 S    
C8    C16   1.407488 A    
C34   C35   1.417346 A    
C38   C39   1.385430 A    
C30   C31   1.410030 A    
C41   C46   1.415558 A    
C31   H8    1.080682 S    
O1    C1    1.295130 A    
C21   C22   1.396986 A    
C18   C20   1.419085 A    
C7    C11   1.396974 A    
C28   C29   1.398251 A    
N9    C63   1.447321 S    
C23   C24   1.412815 A    
C14   C36   1.402571 A    
N5    C59   1.446879 S    
C53   C54   1.411341 A    
Cu2   O8    1.936895 S    
C33   C36   1.428615 A    
C25   C39   1.393526 A    
N1    C6    1.367857 A    
N2    C32   1.438284 S    
N7    C61   1.448218 S    
N1    C11   1.435676 S    
C54   C55   1.451389 A    
O18   H32   0.991929 S    
N8    H33   1.030707 S    
C6    O11   1.349389 S    
Cu2   O6    1.979143 S    
C26   N2    1.365024 A    
N6    C60   1.447869 S    
C9    C16   1.419863 A    
O8    C4    1.301148 A    
C14   H2    1.083693 S    
C59   H18   1.107518 S    
C30   N6    1.435883 S    
N10   H41   1.032247 S    
N9    H37   1.031244 S    
C25   C26   1.400915 A    
C56   N3    1.368335 A    
C63   H38   1.109815 S    
C9    N5    1.429306 S    
H12   C57   1.082005 S    
Cu1   O5    1.968351 S    
C31   C32   1.402439 A    
C20   C24   1.426474 A    
C8    O20   1.379536 S    
O2    Cu2   1.968352 S    
C18   C21   1.413189 A    
C45   C46   1.412626 A    
O6    C3    1.302425 A    
O4    Cu2   1.930107 S    
C55   N4    1.412174 A    
C5    N1    1.365205 A    
C19   C35   1.422258 A    
O14   H24   0.991020 S    
C39   H7    1.083176 S    
H9    C48   1.082389 S    
N6    H20   1.030871 S    
Cu2   N3    2.035583 S    
C63   H40   1.110041 S    
O2    C1    1.314746 A    
C13   C14   1.393935 A    
C44   C45   1.433736 A    
O17   H31   0.992060 S    
Cu1   N4    2.036218 S    
C53   O17   1.383170 S    
C24   C25   1.409496 A    
C58   N8    1.417506 S    
C54   O18   1.366417 S    
C44   O16   1.378359 S    
C19   C20   1.420108 A    
C18   C33   1.431740 A    
N8    C62   1.449670 S    
C5    C13   1.403710 A    
C51   H13   1.061108 S    
C57   C58   1.423276 A    
C42   C43   1.397007 A    
C33   C34   1.426481 A    
C17   C30   1.413798 A    
N10   C64   1.445244 S    
C37   C40   1.417449 A    
C60   H23   1.109709 S    
C61   H29   1.110191 S    
C58   N4    1.375706 A    
O16   H26   0.986611 S    
C28   C32   1.404726 A    
C51   C56   1.404621 A    
C63   H39   1.110853 S    
