data_mof_unit_3230.cif
_audit_creation_date              2013-03-05T16:10:47-0500
_audit_creation_method            fapswitch 2.2
_symmetry_space_group_name_H-M    P1
_symmetry_Int_Tables_number       1
_space_group_crystal_system       triclinic
_cell_length_a                    22.449953
_cell_length_b                    7.084326
_cell_length_c                    19.522798
_cell_angle_alpha                 89.911684
_cell_angle_beta                  99.005465
_cell_angle_gamma                 90.280923
_cell_volume                      3066.64882123

loop_
_atom_site_label
_atom_site_type_symbol
_atom_site_description
_atom_site_fract_x
_atom_site_fract_y
_atom_site_fract_z
_atom_type_partial_charge
O1    O     O_R   0.443980 0.494320 0.557430 -0.574719
O2    O     O_R   0.556020 0.994320 0.442570 -0.575074
O3    O     O_R   0.441210 0.822520 0.414610 -0.592105
O4    O     O_R   0.558790 0.322520 0.585390 -0.590422
C1    C     C_R   0.426709 0.654951 0.389458 0.931690
C2    C     C_R   0.573441 0.155157 0.610620 0.929336
O5    O     O_R   0.436920 0.823940 0.555180 -0.581169
O6    O     O_R   0.563080 0.323940 0.444820 -0.580456
O7    O     O_R   0.551700 0.995760 0.584140 -0.589348
O8    O     O_R   0.448300 0.495760 0.415860 -0.588622
C3    C     C_R   0.421601 0.655006 0.574854 0.951869
C4    C     C_R   0.578443 0.155678 0.425155 0.952273
O9    O     O_3   0.537660 0.661290 0.509340 -0.274756
O10   O     O_3   0.462340 0.161290 0.490660 -0.274912
V1    V     V_3+5 0.493010 0.935560 0.498270 1.208360
V2    V     V_3+5 0.506990 0.435560 0.501730 1.210771
C5    C     C_R   0.750305 0.941384 0.206457 0.102058
C6    C     C_R   0.249128 0.441904 0.794119 0.096763
C7    C     C_R   0.793016 0.087557 0.204478 0.029681
C8    C     C_R   0.206849 0.588268 0.795500 0.031400
C9    C     C_R   0.791943 0.244527 0.247909 -0.150183
C10   C     C_R   0.208460 0.744457 0.751651 -0.146158
H1    H     H_    0.824499 0.357637 0.247193 0.161966
H2    H     H_    0.176253 0.857724 0.751982 0.162329
C11   C     C_R   0.749072 0.257846 0.292667 -0.132682
C12   C     C_R   0.251410 0.756683 0.706930 -0.134276
H3    H     H_    0.749142 0.381508 0.325274 0.175841
H4    H     H_    0.251760 0.879719 0.673952 0.176892
C13   C     C_R   0.706459 0.113828 0.295394 -0.050196
C14   C     C_R   0.293560 0.612373 0.704688 -0.050408
C15   C     C_R   0.706948 0.954047 0.252003 0.285928
C16   C     C_R   0.292568 0.453435 0.748587 0.289187
C17   C     C_1   0.838528 0.078126 0.158747 0.110718
C18   C     C_1   0.161195 0.579550 0.841032 0.111880
C19   C     C_1   0.661689 0.133405 0.341734 0.159039
C20   C     C_1   0.338408 0.631172 0.658355 0.159182
C21   C     C_1   0.624020 0.146135 0.380010 -0.226577
C22   C     C_1   0.376076 0.644087 0.620048 -0.227399
C23   C     C_1   0.876560 0.070294 0.120769 -0.227832
C24   C     C_1   0.123111 0.571589 0.878930 -0.224525
C25   C     C_R   0.625612 0.070339 0.799562 -0.121924
C26   C     C_R   0.372215 0.702918 0.199463 -0.122935
H5    H     H_    0.540175 0.099405 0.734512 0.143285
H6    H     H_    0.457599 0.723000 0.265271 0.144458
H7    H     H_    0.701170 0.960657 0.907113 0.176839
H8    H     H_    0.293083 0.759322 0.089398 0.175744
H9    H     H_    0.604704 0.036129 0.844483 0.144223
H10   H     H_    0.391485 0.742911 0.153947 0.144581
C27   C     C_R   0.613916 0.143548 0.677519 -0.111422
C28   C     C_R   0.386397 0.647437 0.322660 -0.111372
C29   C     C_R   0.908131 0.131921 0.767949 -0.202386
C30   C     C_R   0.095675 0.507262 0.232227 -0.201202
C31   C     C_R   0.873420 0.179163 0.705207 0.288762
C32   C     C_R   0.132205 0.480079 0.295546 0.288879
C33   C     C_R   0.810862 0.175003 0.697813 -0.215392
C34   C     C_R   0.193821 0.514695 0.302744 -0.215274
C35   C     C_R   0.780832 0.116460 0.752689 0.046458
C36   C     C_R   0.220777 0.583614 0.246871 0.046240
C37   C     C_R   0.816714 0.058603 0.817179 0.027292
C38   C     C_R   0.182732 0.618710 0.181387 0.027977
C39   C     C_R   0.716047 0.114625 0.745162 0.116760
C40   C     C_R   0.284657 0.618198 0.254435 0.116137
C41   C     C_R   0.688568 0.069091 0.803629 0.120597
C42   C     C_R   0.310006 0.671299 0.195220 0.120521
C43   C     C_R   0.723416 0.008854 0.864745 -0.228558
C44   C     C_R   0.273068 0.706260 0.132793 -0.229159
C45   C     C_R   0.785583 0.989684 0.870308 0.124823
C46   C     C_R   0.210679 0.695180 0.126787 0.121537
C47   C     C_R   0.677102 0.151087 0.681469 -0.226036
C48   C     C_R   0.324477 0.607327 0.318785 -0.226836
C49   C     C_R   0.588705 0.106413 0.737020 -0.138601
C50   C     C_R   0.409975 0.692066 0.262734 -0.139413
C51   C     C_R   0.881473 0.074885 0.824841 -0.186488
C52   C     C_R   0.119359 0.573016 0.174370 -0.187657
H11   H     H_    0.694098 0.176393 0.633605 0.107277
H12   H     H_    0.308698 0.576913 0.367013 0.108250
H13   H     H_    0.956758 0.145139 0.772968 0.139287
H14   H     H_    0.048172 0.471886 0.227667 0.138850
H15   H     H_    0.787053 0.221899 0.648623 0.141789
H16   H     H_    0.219551 0.482573 0.352629 0.142158
O11   O     O_R   0.051730 0.724670 0.084120 -0.574186
O12   O     O_R   0.948270 0.224670 0.915880 -0.588210
O13   O     O_R   0.063080 0.393540 0.944820 -0.581620
O14   O     O_R   0.936920 0.893540 0.055180 -0.567717
C53   C     C_R   0.077542 0.562105 0.924076 0.977241
C54   C     C_R   0.922200 0.061763 0.075667 0.977603
O15   O     O_R   0.058800 0.395030 0.085390 -0.586123
O16   O     O_R   0.941200 0.895030 0.914610 -0.573064
O17   O     O_R   0.943980 0.223310 0.057440 -0.588389
O18   O     O_R   0.056020 0.723310 0.942560 -0.572901
C55   C     C_R   0.076558 0.565117 0.108004 0.959101
C56   C     C_R   0.923755 0.063900 0.891577 0.958978
O19   O     O_3   0.962360 0.556290 0.990650 -0.260875
O20   O     O_3   0.037640 0.056290 0.009350 -0.255802
V3    V     V_3+5 0.006980 0.281990 0.001730 1.223668
V4    V     V_3+5 0.993020 0.781990 0.998270 1.234205
N1    N     N_R   0.663697 0.805094 0.254203 0.242774
O21   O     O_R   0.657366 0.726874 0.313000 -0.413834
O22   O     O_R   0.627488 0.756636 0.198239 -0.345467
N2    N     N_R   0.335369 0.304260 0.746906 0.243061
O23   O     O_R   0.341719 0.225482 0.688332 -0.414033
O24   O     O_R   0.371187 0.256113 0.803123 -0.344799
I1    I     I_    0.916085 0.269221 0.621775 -0.336095
I2    I     I_    0.094260 0.375567 0.380500 -0.335900
I3    I     I_    0.818698 0.801234 0.951409 -0.322270
I4    I     I_    0.170393 0.855575 0.040993 -0.320135
I5    I     I_    0.753630 0.696837 0.143454 -0.282713
I6    I     I_    0.244962 0.199008 0.858169 -0.285909

loop_
_geom_bond_atom_site_label_1
_geom_bond_atom_site_label_2
_geom_bond_distance
_ccdc_geom_bond_type
C36   C40   1.438344 A    
C44   C46   1.388964 A    
C41   C43   1.388246 A    
O4    V2    2.017856 S    
O15   C55   1.321958 A    
O1    C3    1.313115 A    
O2    C4    1.312420 A    
C2    O7    1.303081 A    
O16   V4    2.018059 S    
N1    O21   1.301241 A    
O5    C3    1.316813 A    
C17   C23   1.216787 T    
C35   C39   1.438751 A    
C18   C24   1.216145 T    
C32   I2    2.111154 S    
C19   C21   1.216725 T    
O14   C54   1.317631 A    
H8    C44   1.085111 S    
C30   C52   1.399828 A    
C5    I5    2.134580 S    
C35   C37   1.444359 A    
C36   C38   1.443965 A    
O12   C56   1.318706 A    
C40   C48   1.425534 A    
O14   V4    1.973737 S    
C38   C52   1.443006 A    
C4    C21   1.453096 S    
C39   C41   1.415935 A    
C28   C50   1.392822 A    
C40   C42   1.415730 A    
C37   C45   1.422920 A    
O16   C56   1.317043 A    
C43   C45   1.390120 A    
O15   V3    2.015527 S    
C47   H11   1.077657 S    
C14   C16   1.416173 A    
C37   C51   1.442098 A    
C25   C49   1.388179 A    
C8    C18   1.459070 S    
O5    V1    1.967446 S    
O19   V3    2.185482 S    
C27   C47   1.409265 A    
C46   I4    2.108197 S    
C30   H14   1.084319 S    
C26   C50   1.386672 A    
N1    O22   1.301052 A    
C30   C32   1.386062 A    
C31   C33   1.389345 A    
C11   C13   1.401859 A    
C32   C34   1.388984 A    
O4    C2    1.306864 A    
C7    C17   1.460118 S    
O11   V4    2.005689 S    
C45   I3    2.115808 S    
C16   N2    1.435676 S    
C29   C31   1.386400 A    
C42   C44   1.385304 A    
C24   C53   1.452343 S    
O17   V3    1.957164 S    
C3    C22   1.452688 S    
C29   H13   1.084288 S    
C33   H15   1.076276 S    
O6    C4    1.316875 A    
O13   V3    1.967412 S    
N2    O24   1.301044 A    
C25   H9    1.084085 S    
O1    V2    1.960997 S    
C26   H10   1.084149 S    
O20   V4    2.177326 S    
O2    V1    1.957336 S    
C52   C55   1.488321 S    
O13   C53   1.315806 A    
C8    C10   1.401733 A    
C12   C14   1.401819 A    
O19   V4    1.735044 S    
C33   C35   1.412891 A    
H7    C43   1.084877 S    
C5    C15   1.420623 A    
C10   H2    1.083459 S    
C1    C28   1.467222 S    
C6    C16   1.420655 A    
C25   C41   1.403201 A    
C26   C42   1.402941 A    
O3    V1    2.015328 S    
C39   C47   1.427657 A    
C9    C11   1.401138 A    
H5    C49   1.083802 S    
O12   V3    2.004115 S    
C7    C9    1.402027 A    
C29   C51   1.399788 A    
C51   C56   1.489229 S    
O3    C1    1.305489 A    
C54   O17   1.312706 A    
C53   O18   1.314980 A    
O18   V4    1.960823 S    
C11   H3    1.083555 S    
C13   C19   1.460934 S    
C12   H4    1.083561 S    
C34   H16   1.076284 S    
C14   C20   1.460511 S    
C9    H1    1.083447 S    
C28   C48   1.407868 A    
C1    O8    1.303013 A    
C13   C15   1.415988 A    
O8    V2    2.010007 S    
C48   H12   1.077710 S    
C27   C49   1.393688 A    
C31   I1    2.111104 S    
C20   C22   1.216476 T    
N2    O23   1.301245 A    
C5    C7    1.412436 A    
C34   C36   1.412990 A    
H6    C50   1.083858 S    
C6    C8    1.412288 A    
C15   N1    1.435630 S    
C2    C27   1.472101 S    
O7    V1    2.008360 S    
O20   V3    1.740832 S    
C6    I6    2.135826 S    
O11   C55   1.314885 A    
C38   C46   1.423948 A    
O6    V2    1.973774 S    
C10   C12   1.400725 A    
O9    V2    1.735319 S    
O10   V1    1.741110 S    
C23   C54   1.453283 S    
