data_mof_unit_1678.cif
_audit_creation_date              2012-12-10T16:53:52-0500
_audit_creation_method            fapswitch 2.2
_symmetry_space_group_name_H-M    P1
_symmetry_Int_Tables_number       1
_space_group_crystal_system       triclinic
_cell_length_a                    7.752013
_cell_length_b                    8.594304
_cell_length_c                    10.633482
_cell_angle_alpha                 91.391746
_cell_angle_beta                  85.114752
_cell_angle_gamma                 93.768252
_cell_volume                      704.212035087

loop_
_atom_site_label
_atom_site_type_symbol
_atom_type_description
_atom_site_fract_x
_atom_site_fract_y
_atom_site_fract_z
_atom_type_partial_charge
C1    C     C_R   0.544578 0.794150 0.488663 0.967803
C2    C     C_3   0.372673 0.622458 0.938976 -0.415534
C3    C     C_3   0.365980 0.611044 0.082520 -0.427470
C4    C     C_3   0.445420 0.341046 0.922911 -0.424563
C5    C     C_3   0.686476 0.557627 0.917689 -0.388797
C6    C     C_3   0.502572 0.507622 0.877711 0.093295
C7    C     C_3   0.502551 0.499727 0.120181 -0.032593
C8    C     C_3   0.458005 0.331691 0.066338 0.333690
C9    C     C_3   0.682988 0.565040 0.061357 -0.340915
C10   C     C_2   0.564414 0.957610 0.483148 -0.479532
C11   C     C_2   0.427922 0.043914 0.469264 0.309911
C12   C     C_R   0.502272 0.507859 0.741885 0.840214
C13   C     C_R   0.453638 0.205264 0.496241 0.882369
C14   C     C_R   0.499661 0.499218 0.257327 0.908345
H1    H     H_    0.239707 0.594883 0.909048 0.202432
H2    H     H_    0.308884 0.310811 0.901574 0.163574
H3    H     H_    0.328886 0.288922 0.110765 0.126206
H4    H     H_    0.781519 0.472937 0.880030 0.224156
H5    H     H_    0.731294 0.673977 0.878933 0.166476
H6    H     H_    0.708143 0.688031 0.093499 0.172178
H7    H     H_    0.620506 0.945090 0.034620 0.367041
H8    H     H_    0.036451 0.085810 0.305037 0.391942
H9    H     H_    0.790867 0.499608 0.091428 0.238319
H10   H     H_    0.525683 0.254953 0.869193 0.212314
H11   H     H_    0.689573 0.008519 0.507843 0.187515
H12   H     H_    0.014731 0.385379 0.402444 0.232117
H13   H     H_    0.985270 0.615598 0.596948 0.208679
H14   H     H_    0.413327 0.743733 0.909603 0.207442
H15   H     H_    0.392956 0.729345 0.123057 0.264059
H16   H     H_    0.232897 0.568388 0.119384 0.206911
N1    N     N_2   0.950330 0.457950 0.465890 -0.155323
N2    N     N_2   0.049670 0.542050 0.534110 -0.141727
O1    O     O_R   0.389250 0.738570 0.508370 -0.548891
O2    O     O_2   0.635341 0.178222 0.232981 -0.298024
O3    O     O_3   0.521218 0.012087 0.048310 -0.562722
O4    O     O_2   0.250734 0.845122 0.315001 -0.291533
O5    O     O_2   0.096762 0.931539 0.512846 -0.324758
O6    O     O_3   0.152072 0.126136 0.328910 -0.564698
O7    O     O_R   0.678390 0.711620 0.486510 -0.612858
O8    O     O_R   0.355430 0.513500 0.696140 -0.635861
O9    O     O_R   0.644580 0.486550 0.674270 -0.640979
O10   O     O_R   0.321610 0.288380 0.513490 -0.578271
O11   O     O_R   0.610750 0.261430 0.491630 -0.615062
O12   O     O_R   0.355420 0.513450 0.325730 -0.610038
O13   O     O_R   0.644570 0.486500 0.303860 -0.591044
O14   O     O_2   0.779624 0.218826 0.021663 -0.344819
S1    S     S_3+6 0.607562 0.185915 0.095671 0.003168
S2    S     S_3+6 0.227502 0.979679 0.406054 0.062210
Zn1   Zn    Zn3+2 0.306940 0.517990 0.514600 1.040375
Zn2   Zn    Zn3+2 0.693060 0.482010 0.485400 1.013271

loop_
_geom_bond_atom_site_label_1
_geom_bond_atom_site_label_2
_ccdc_geom_bond_type
O12   Zn1   S    
C12   O8    A    
C3    H16   S    
O11   Zn2   S    
C4    H2    S    
C12   O9    A    
C5    H5    S    
C9    H6    S    
O6    S2    S    
C8    H3    S    
C4    C8    S    
O3    S1    S    
O2    S1    D    
C2    C3    S    
C8    S1    S    
C1    O1    A    
C7    C8    S    
O5    S2    D    
C5    C9    S    
C2    H1    S    
C11   C13   S    
C3    H15   S    
C11   S2    S    
C2    C6    S    
O13   Zn2   S    
H7    O3    S    
C10   H11   S    
C4    C6    S    
C13   O10   A    
O4    S2    D    
C14   O13   A    
C3    C7    S    
C6    C12   S    
C5    C6    S    
C4    H10   S    
N2    Zn1   S    
C10   C11   D    
C1    O7    A    
N1    Zn2   S    
O1    Zn1   S    
O8    Zn1   S    
H8    O6    S    
O9    Zn2   S    
C13   O11   A    
O7    Zn2   S    
C14   O12   A    
C7    C9    S    
O14   S1    D    
C9    H9    S    
C2    H14   S    
C5    H4    S    
O10   Zn1   S    
H13   N2    S    
H12   N1    S    
C7    C14   S    
C1    C10   S    
N1    N2    D    
