data_mof_unit_3531.cif
_audit_creation_date              2012-12-10T18:19:04-0500
_audit_creation_method            fapswitch 2.2
_symmetry_space_group_name_H-M    P1
_symmetry_Int_Tables_number       1
_space_group_crystal_system       triclinic
_cell_length_a                    14.932461
_cell_length_b                    14.145776
_cell_length_c                    11.525807
_cell_angle_alpha                 89.986239
_cell_angle_beta                  89.659481
_cell_angle_gamma                 89.753031
_cell_volume                      2434.54493225

loop_
_atom_site_label
_atom_site_type_symbol
_atom_type_description
_atom_site_fract_x
_atom_site_fract_y
_atom_site_fract_z
_atom_type_partial_charge
C1    C     C_R   0.327338 0.500167 0.501319 0.985062
C2    C     C_R   0.440155 0.202325 0.568483 0.542203
C3    C     C_R   0.427374 0.799608 0.542182 0.537145
C4    C     C_R   0.559435 0.201896 0.430885 0.536512
C5    C     C_R   0.430196 0.900079 0.554204 -0.240450
C6    C     C_R   0.566320 0.101406 0.437870 -0.244248
C7    C     C_R   0.569185 0.899505 0.444003 -0.239653
C8    C     C_R   0.433204 0.101898 0.561086 -0.243332
C9    C     C_R   0.499935 0.950299 0.499662 -0.122474
C10   C     C_R   0.499904 0.051166 0.499695 -0.122047
C11   C     C_R   0.363334 0.951454 0.615599 0.432364
C12   C     C_R   0.672696 0.499652 0.499682 0.984398
C13   C     C_R   0.636418 0.050001 0.383365 0.426764
C14   C     C_R   0.634759 0.950452 0.380382 0.428893
C15   C     C_R   0.362253 0.051079 0.613714 0.420790
C16   C     C_R   0.500231 0.499989 0.282027 0.906356
C17   C     C_R   0.499702 0.499978 0.717974 0.905207
C18   C     C_1   0.500184 0.499903 0.161563 -0.201351
C19   C     C_1   0.499618 0.499865 0.838439 -0.201031
C20   C     C_1   0.499996 0.499759 0.059338 -0.029206
C21   C     C_1   0.499735 0.499740 0.940666 -0.029774
C22   C     C_R   0.813722 0.454853 0.408690 -0.030701
C23   C     C_R   0.907355 0.453573 0.409306 0.080034
C24   C     C_R   0.186468 0.541060 0.595722 -0.042035
C25   C     C_R   0.768032 0.497938 0.500865 -0.181020
C26   C     C_R   0.232039 0.500636 0.501666 -0.185323
C27   C     C_R   0.812232 0.536755 0.596079 0.377870
C28   C     C_R   0.187734 0.460290 0.407531 0.411102
C29   C     C_R   0.905412 0.538962 0.595534 0.011019
C30   C     C_R   0.094645 0.456593 0.409216 0.007675
C31   C     C_R   0.953173 0.496900 0.502471 0.006423
C32   C     C_R   0.046931 0.498390 0.502501 0.002151
C33   C     C_3   0.746385 0.505689 0.769984 -0.350849
C34   C     C_R   0.092792 0.541423 0.595851 0.077949
C35   C     C_3   0.252348 0.490944 0.232734 -0.364151
C36   C     C_3   0.713590 0.761017 0.508827 -0.136505
C37   C     C_3   0.420848 0.244758 0.756929 -0.195648
C38   C     C_3   0.289247 0.763236 0.476895 -0.197305
C39   C     C_3   0.576852 0.244565 0.242219 -0.200810
C40   C     C_3   0.324905 0.890320 0.790396 -0.226993
C41   C     C_3   0.774936 0.109943 0.412153 -0.224246
C42   C     C_3   0.667466 0.891429 0.202509 -0.209084
C43   C     C_3   0.224174 0.112042 0.581228 -0.193652
C44   C     C_R   0.951433 0.582214 0.686538 -0.178635
C45   C     C_R   0.048665 0.412333 0.318929 -0.174678
C46   C     C_R   0.044077 0.583070 0.687069 -0.225575
C47   C     C_R   0.956061 0.410979 0.318750 -0.236707
C48   C     C_R   0.572073 0.798902 0.455795 0.519463
H1    H     H_    0.916050 0.615526 0.758041 0.186374
H2    H     H_    0.809526 0.475791 0.805734 0.165443
H3    H     H_    0.704517 0.448166 0.733485 0.157168
H4    H     H_    0.188696 0.519604 0.196994 0.162487
H5    H     H_    0.290517 0.458882 0.159754 0.200913
H6    H     H_    0.293508 0.549411 0.268356 0.150434
H7    H     H_    0.773126 0.718054 0.484696 0.181915
H8    H     H_    0.689125 0.736142 0.594974 0.170898
H9    H     H_    0.736171 0.835459 0.516517 0.135143
H10   H     H_    0.387120 0.297570 0.813530 0.177046
H11   H     H_    0.494209 0.258402 0.760487 0.125407
H12   H     H_    0.084041 0.378871 0.247524 0.187718
H13   H     H_    0.407136 0.173763 0.793828 0.158564
H14   H     H_    0.317704 0.735755 0.393904 0.126250
H15   H     H_    0.268632 0.838247 0.465495 0.145384
H16   H     H_    0.227694 0.722563 0.496196 0.177454
H17   H     H_    0.609954 0.297315 0.185288 0.173066
H18   H     H_    0.503424 0.258725 0.239967 0.142025
H19   H     H_    0.590247 0.173613 0.204696 0.157730
H20   H     H_    0.336502 0.958558 0.835884 0.151085
H21   H     H_    0.386401 0.845584 0.792974 0.150105
H22   H     H_    0.271532 0.852192 0.838386 0.176816
H23   H     H_    0.076714 0.616794 0.759540 0.140725
H24   H     H_    0.801436 0.041308 0.444845 0.153795
H25   H     H_    0.751027 0.154526 0.485768 0.150830
H26   H     H_    0.831137 0.147852 0.369643 0.177704
H27   H     H_    0.655100 0.960609 0.159260 0.144893
H28   H     H_    0.605548 0.847846 0.201939 0.147555
H29   H     H_    0.719078 0.853205 0.150977 0.183382
H30   H     H_    0.198325 0.043558 0.547909 0.147093
H31   H     H_    0.249113 0.156429 0.508142 0.159914
H32   H     H_    0.167221 0.150274 0.622236 0.182298
H33   H     H_    0.923450 0.376626 0.246702 0.141367
H34   H     H_    0.778833 0.342827 0.308359 0.225930
H35   H     H_    0.781712 0.448738 0.237536 0.174815
H36   H     H_    0.219148 0.542832 0.766685 0.177121
H37   H     H_    0.221000 0.650608 0.700607 0.225114
H38   H     H_    0.708457 0.537803 0.843134 0.198910
N1    N     N_R   0.500000 0.750030 0.500000 -0.199118
N2    N     N_R   0.500000 0.249970 0.500000 -0.197482
N3    N     N_3   0.763538 0.414836 0.314708 -0.421222
N4    N     N_3   0.236819 0.578991 0.690877 -0.422985
O1    O     O_R   0.367850 0.580280 0.500030 -0.594647
O2    O     O_3   0.236136 0.420402 0.316777 -0.604011
O3    O     O_3   0.647719 0.749535 0.422135 -0.551485
O4    O     O_3   0.386352 0.253795 0.643406 -0.540838
O5    O     O_3   0.350037 0.751491 0.569735 -0.542147
O6    O     O_3   0.612508 0.252958 0.355190 -0.546975
O7    O     O_3   0.296046 0.905205 0.675572 -0.568772
O8    O     O_3   0.706915 0.096014 0.329658 -0.576564
O9    O     O_3   0.699805 0.903851 0.316144 -0.568274
O10   O     O_3   0.290963 0.097774 0.665508 -0.575105
O11   O     O_R   0.632150 0.419720 0.499970 -0.597449
O12   O     O_R   0.632150 0.580280 0.499970 -0.569030
O13   O     O_R   0.367850 0.419720 0.500030 -0.558504
O14   O     O_R   0.500010 0.580270 0.334450 -0.616744
O15   O     O_R   0.499990 0.419730 0.665550 -0.621962
O16   O     O_R   0.499990 0.580270 0.665550 -0.593063
O17   O     O_R   0.500010 0.419730 0.334450 -0.593044
O18   O     O_3   0.763777 0.576567 0.686800 -0.628449
Zn1   Zn    Zn3+2 0.500000 0.607200 0.500000 1.009969
Zn2   Zn    Zn3+2 0.500000 0.392800 0.500000 1.015135

loop_
_geom_bond_atom_site_label_1
_geom_bond_atom_site_label_2
_ccdc_geom_bond_type
C44   H1    S    
O15   Zn2   S    
C45   H12   S    
C35   H5    S    
C30   C45   A    
C15   O10   S    
C42   H28   S    
C14   O9    S    
C43   H30   S    
C5    C9    A    
C42   H27   S    
H34   N3    S    
C40   H22   S    
O13   Zn2   S    
C19   C21   T    
C24   C26   A    
C5    C11   A    
O14   Zn1   S    
C27   C29   A    
C43   H31   S    
C13   O8    S    
C16   O17   A    
C17   C19   S    
C41   H26   S    
C4    O6    S    
C11   C15   A    
C36   O3    S    
C16   O14   A    
C7    C14   A    
C22   C25   A    
C38   O5    S    
C2    N2    A    
C34   C46   A    
C9    C10   A    
C1    O13   A    
C37   H10   S    
N2    Zn2   S    
C35   O2    S    
C1    O1    A    
C13   C14   A    
C35   H6    S    
C39   H17   S    
C33   O18   S    
H36   N4    S    
C44   C46   A    
C38   H16   S    
C45   C47   A    
H35   N3    S    
C23   C47   A    
C48   O3    S    
C3    N1    A    
C2    O4    S    
C43   O10   S    
C4    C6    A    
C36   H9    S    
C40   H21   S    
C40   O7    S    
O11   Zn2   S    
C24   C34   A    
C32   C34   A    
C33   H38   S    
C12   O12   A    
C36   H8    S    
C17   O15   A    
C31   C32   A    
C48   N1    A    
C28   O2    S    
C46   H23   S    
C37   H11   S    
C41   H24   S    
C4    N2    A    
C16   C18   S    
C8    C15   A    
C29   C44   A    
C1    C26   S    
O17   Zn2   S    
C33   H3    S    
C43   H32   S    
C38   H15   S    
C7    C9    A    
C22   C23   A    
C39   H19   S    
C2    C8    A    
C3    C5    A    
C24   N4    S    
C6    C10   A    
C37   H13   S    
H37   N4    S    
N1    Zn1   S    
C25   C27   A    
C26   C28   A    
C12   C25   S    
C11   O7    S    
C7    C48   A    
O1    Zn1   S    
C28   C30   A    
C33   H2    S    
C12   O11   A    
C29   C31   A    
C36   H7    S    
C42   O9    S    
C6    C13   A    
C30   C32   A    
C27   O18   S    
C39   H18   S    
C22   N3    S    
C37   O4    S    
C18   C20   T    
C47   H33   S    
C39   O6    S    
C41   H25   S    
C20   C21   S    
C42   H29   S    
C8    C10   A    
C40   H20   S    
C35   H4    S    
C41   O8    S    
O12   Zn1   S    
C3    O5    S    
C17   O16   A    
C23   C31   A    
C38   H14   S    
O16   Zn1   S    
