data_mof_unit_3129.cif
_audit_creation_date              2012-12-11T17:39:19-0500
_audit_creation_method            fapswitch 2.2
_symmetry_space_group_name_H-M    P1
_symmetry_Int_Tables_number       1
_space_group_crystal_system       triclinic
_cell_length_a                    24.798037
_cell_length_b                    7.190154
_cell_length_c                    22.677344
_cell_angle_alpha                 89.999945
_cell_angle_beta                  96.383058
_cell_angle_gamma                 90.0
_cell_volume                      4018.34334382

loop_
_atom_site_label
_atom_site_type_symbol
_atom_type_description
_atom_site_fract_x
_atom_site_fract_y
_atom_site_fract_z
_atom_type_partial_charge
O1    O     O_R   0.801910 0.607900 0.699140 -0.537256
O2    O     O_R   0.198090 0.392100 0.300860 -0.537257
O3    O     O_R   0.698090 0.107900 0.800860 -0.537257
O4    O     O_R   0.301910 0.892100 0.199140 -0.537257
O5    O     O_R   0.692320 0.276320 0.686350 -0.531490
O6    O     O_R   0.307680 0.723680 0.313650 -0.531490
O7    O     O_R   0.807680 0.776320 0.813650 -0.531490
O8    O     O_R   0.192320 0.223680 0.186350 -0.531490
C1    C     C_R   0.673819 0.446660 0.671258 0.710908
C2    C     C_R   0.326181 0.553340 0.328742 0.710909
C3    C     C_R   0.826181 0.946660 0.828742 0.710908
C4    C     C_R   0.173819 0.053340 0.171258 0.710908
O9    O     O_R   0.801140 0.278070 0.692060 -0.540790
O10   O     O_R   0.198860 0.721930 0.307940 -0.540790
O11   O     O_R   0.698860 0.778070 0.807940 -0.540791
O12   O     O_R   0.301140 0.221930 0.192060 -0.540790
O13   O     O_R   0.807690 0.109570 0.806600 -0.530987
O14   O     O_R   0.192310 0.890430 0.193400 -0.530987
O15   O     O_R   0.692310 0.609570 0.693400 -0.530987
O16   O     O_R   0.307690 0.390430 0.306600 -0.530987
C5    C     C_R   0.818376 0.446936 0.678534 0.680895
C6    C     C_R   0.181624 0.553064 0.321466 0.680896
C7    C     C_R   0.681624 0.946936 0.821466 0.680895
C8    C     C_R   0.318376 0.053064 0.178534 0.680895
O17   O     O_3   0.752020 0.441970 0.787570 -0.373049
O18   O     O_3   0.247980 0.558030 0.212430 -0.373049
O19   O     O_3   0.747980 0.941970 0.712430 -0.373049
O20   O     O_3   0.252020 0.058030 0.287570 -0.373049
V1    V     V_3+5 0.749620 0.166420 0.743030 1.413277
V2    V     V_3+5 0.250380 0.833580 0.256970 1.413277
V3    V     V_3+5 0.750380 0.666420 0.756970 1.413277
V4    V     V_3+5 0.249620 0.333580 0.243030 1.413277
C9    C     C_R   0.421871 0.192295 0.073476 -0.135259
C10   C     C_R   0.578129 0.807705 0.926524 -0.135259
C11   C     C_R   0.078129 0.692295 0.426524 -0.135259
C12   C     C_R   0.921871 0.307705 0.573476 -0.135259
H1    H     H_    0.437896 0.318924 0.056255 0.106374
H2    H     H_    0.562104 0.681076 0.943745 0.106374
H3    H     H_    0.062104 0.818924 0.443744 0.106374
H4    H     H_    0.937896 0.181076 0.556255 0.106374
C13   C     C_R   0.381908 0.204144 0.112619 -0.166880
C14   C     C_R   0.618092 0.795856 0.887381 -0.166880
C15   C     C_R   0.118092 0.704144 0.387381 -0.166880
C16   C     C_R   0.881908 0.295856 0.612619 -0.166880
H5    H     H_    0.368156 0.340464 0.124669 0.122596
H6    H     H_    0.631845 0.659536 0.875331 0.122596
H7    H     H_    0.131844 0.840464 0.375331 0.122596
H8    H     H_    0.868155 0.159536 0.624669 0.122596
C17   C     C_R   0.360326 0.042058 0.136023 -0.051854
C18   C     C_R   0.639674 0.957942 0.863977 -0.051854
C19   C     C_R   0.139674 0.542057 0.363976 -0.051854
C20   C     C_R   0.860326 0.457942 0.636023 -0.051855
C21   C     C_R   0.379860 0.868138 0.118829 -0.163194
C22   C     C_R   0.620139 0.131862 0.881171 -0.163194
C23   C     C_R   0.120139 0.368138 0.381171 -0.163194
C24   C     C_R   0.879860 0.631862 0.618829 -0.163194
H9    H     H_    0.364501 0.739958 0.135655 0.125774
H10   H     H_    0.635499 0.260042 0.864345 0.125774
H11   H     H_    0.135499 0.239958 0.364345 0.125774
H12   H     H_    0.864501 0.760042 0.635655 0.125774
C25   C     C_R   0.419737 0.856788 0.079733 -0.138114
C26   C     C_R   0.580263 0.143212 0.920267 -0.138114
C27   C     C_R   0.080263 0.356788 0.420267 -0.138115
C28   C     C_R   0.919737 0.643212 0.579733 -0.138115
H13   H     H_    0.434034 0.721328 0.067423 0.106287
H14   H     H_    0.565966 0.278672 0.932577 0.106287
H15   H     H_    0.065966 0.221328 0.432577 0.106287
H16   H     H_    0.934034 0.778672 0.567423 0.106287
C29   C     C_R   0.441055 0.018575 0.056902 0.130921
C30   C     C_R   0.558945 0.981425 0.943098 0.130921
C31   C     C_R   0.058945 0.518575 0.443098 0.130921
C32   C     C_R   0.941055 0.481425 0.556902 0.130921
C33   C     C_1   0.482622 0.005739 0.016752 -0.058942
C34   C     C_1   0.517378 0.994261 0.983248 -0.058942
C35   C     C_1   0.017378 0.505739 0.483248 -0.058942
C36   C     C_1   0.982622 0.494261 0.516752 -0.058942
C37   C     C_3   0.955594 0.951449 0.026339 -0.276233
C38   C     C_3   0.044406 0.048551 0.973661 -0.276232
C39   C     C_3   0.544406 0.451448 0.473660 -0.276233
C40   C     C_3   0.455594 0.548551 0.526339 -0.276232
C41   C     C_3   0.990073 0.129126 0.038460 0.501058
C42   C     C_3   0.009927 0.870874 0.961540 0.501058
C43   C     C_3   0.509927 0.629126 0.461540 0.501058
C44   C     C_3   0.490073 0.370874 0.538460 0.501058
H17   H     H_    0.919104 0.914878 0.048040 0.134521
H18   H     H_    0.080896 0.085122 0.951959 0.134521
H19   H     H_    0.580896 0.414877 0.451960 0.134521
H20   H     H_    0.419104 0.585123 0.548040 0.134521
H21   H     H_    0.983326 0.300078 0.948615 0.143262
H22   H     H_    0.016674 0.699922 0.051385 0.143262
H23   H     H_    0.516674 0.800079 0.551385 0.143262
H24   H     H_    0.483326 0.199921 0.448615 0.143262
C45   C     C_1   0.128130 0.043513 0.125300 -0.178765
C46   C     C_1   0.871870 0.956487 0.874700 -0.178765
C47   C     C_1   0.371870 0.543513 0.374700 -0.178765
C48   C     C_1   0.628130 0.456487 0.625300 -0.178765
C49   C     C_3   0.008777 0.835282 0.028549 -0.279548
C50   C     C_3   0.991223 0.164717 0.971451 -0.279548
C51   C     C_3   0.491223 0.335282 0.471451 -0.279548
C52   C     C_3   0.508777 0.664717 0.528549 -0.279548
C53   C     C_3   0.042598 0.015285 0.040968 0.066984
C54   C     C_3   0.957402 0.984715 0.959032 0.066984
C55   C     C_3   0.457402 0.515284 0.459032 0.066984
C56   C     C_3   0.542598 0.484716 0.540968 0.066984
C57   C     C_1   0.089670 0.032295 0.087204 0.005034
C58   C     C_1   0.910330 0.967704 0.912796 0.005035
C59   C     C_1   0.410330 0.532295 0.412796 0.005035
C60   C     C_1   0.589670 0.467705 0.587204 0.005035
O21   O     O_3   0.982153 0.265212 0.081521 -0.571439
C61   C     C_3   0.931389 0.352032 0.066915 0.063103
H25   H     H_    0.898025 0.247516 0.061783 0.119872
H26   H     H_    0.931373 0.433013 0.025054 0.126724
C62   C     C_3   0.920724 0.485601 0.116709 -0.273751
H27   H     H_    0.923061 0.408439 0.159397 0.204101
H28   H     H_    0.952247 0.596049 0.120921 0.198221
C63   C     C_3   0.864823 0.575514 0.104684 -0.850373
H29   H     H_    0.860720 0.648606 0.061282 0.229005
H30   H     H_    0.859253 0.677930 0.140147 0.234927
H31   H     H_    0.832584 0.468102 0.104246 0.234079
O22   O     O_3   0.017847 0.734788 0.918479 -0.571439
C64   C     C_3   0.068611 0.647967 0.933085 0.063102
H32   H     H_    0.068627 0.566986 0.974946 0.126725
H33   H     H_    0.101975 0.752483 0.938218 0.119872
C65   C     C_3   0.079276 0.514398 0.883291 -0.273752
H34   H     H_    0.047753 0.403951 0.879079 0.198221
H35   H     H_    0.076939 0.591561 0.840603 0.204102
C66   C     C_3   0.135177 0.424485 0.895316 -0.850373
H36   H     H_    0.167416 0.531898 0.895754 0.234080
H37   H     H_    0.140747 0.322070 0.859853 0.234928
H38   H     H_    0.139280 0.351394 0.938719 0.229005
O23   O     O_3   0.517847 0.765212 0.418478 -0.571439
C67   C     C_3   0.568611 0.852032 0.433085 0.063103
H39   H     H_    0.601975 0.747516 0.438216 0.119872
H40   H     H_    0.568627 0.933012 0.474946 0.126724
C68   C     C_3   0.579276 0.985602 0.383290 -0.273751
H41   H     H_    0.576938 0.908440 0.340602 0.204101
H42   H     H_    0.547753 0.096049 0.379079 0.198221
C69   C     C_3   0.635177 0.075514 0.395315 -0.850373
H43   H     H_    0.639280 0.148605 0.438718 0.229005
H44   H     H_    0.640747 0.177930 0.359852 0.234928
H45   H     H_    0.667416 0.968101 0.395753 0.234080
O24   O     O_3   0.482153 0.234788 0.581522 -0.571439
C70   C     C_3   0.431389 0.147968 0.566915 0.063103
H46   H     H_    0.431373 0.066987 0.525054 0.126724
H47   H     H_    0.398025 0.252483 0.561783 0.119872
C71   C     C_3   0.420724 0.014398 0.616709 -0.273750
H48   H     H_    0.452247 0.903951 0.620922 0.198221
H49   H     H_    0.423062 0.091561 0.659397 0.204101
C72   C     C_3   0.364823 0.924485 0.604684 -0.850372
H50   H     H_    0.332584 0.031898 0.604247 0.234079
H51   H     H_    0.359253 0.822070 0.640148 0.234928
H52   H     H_    0.360720 0.851395 0.561282 0.229005

loop_
_geom_bond_atom_site_label_1
_geom_bond_atom_site_label_2
_ccdc_geom_bond_type
O17   V3    S    
C70   C71   S    
C51   C55   S    
O1    C5    A    
C23   H11   S    
O19   V1    S    
O13   V1    S    
C33   C34   T    
O3    C7    A    
C10   C14   A    
C52   C56   S    
C32   C36   S    
O4    V2    S    
O15   V3    S    
C39   H19   S    
C72   H50   S    
C68   H41   S    
C41   C53   S    
O7    C3    A    
C18   C22   A    
C43   C55   S    
C28   H16   S    
O9    V1    S    
C71   H48   S    
C72   H51   S    
O16   V4    S    
O4    C8    A    
C41   C50   S    
C25   C29   A    
C70   H46   S    
C70   H47   S    
O1    V3    S    
C63   H29   S    
C26   C30   A    
O2    V4    S    
C14   H6    S    
O3    V1    S    
C30   C34   S    
C64   C65   S    
C45   C57   T    
C61   H25   S    
C21   C25   A    
C1    O15   A    
C46   C58   T    
C12   C32   A    
C2    O16   A    
C67   H39   S    
C23   C27   A    
C38   C50   S    
C24   C28   A    
C29   C33   S    
O14   V2    S    
C37   C41   S    
H23   C52   S    
C11   C15   A    
C10   C30   A    
H22   C49   S    
C71   H49   S    
C9    C29   A    
C62   C63   S    
C38   H18   S    
O11   C7    A    
C48   C60   T    
C37   H17   S    
O12   C8    A    
C40   C52   S    
C38   C53   S    
C37   C54   S    
O10   V2    S    
C13   C17   A    
O5    V1    S    
C53   C57   S    
C27   H15   S    
C31   C35   S    
O7    V3    S    
C26   H14   S    
C40   C55   S    
C40   C44   S    
O8    V4    S    
C12   H4    S    
C72   H52   S    
C21   H9    S    
O18   V4    S    
C7    C18   S    
C22   C26   A    
C50   C54   S    
C9    H1    S    
C24   H12   S    
C11   H3    S    
C35   C36   T    
C66   H37   S    
O5    C1    A    
C71   C72   S    
C38   C42   S    
C61   C62   S    
C44   O24   S    
O8    C4    A    
C42   C54   S    
O9    C5    A    
C37   C49   S    
C1    C48   S    
C64   H32   S    
C68   C69   S    
C47   C59   T    
C14   C18   A    
C65   C66   S    
C42   O22   S    
C3    C46   S    
O6    V2    S    
C27   C31   A    
C43   C52   S    
C44   C56   S    
C42   C49   S    
C4    C45   S    
C12   C16   A    
C66   H36   S    
C56   C60   S    
O22   C64   S    
C65   H35   S    
C62   H27   S    
C22   H10   S    
C39   C51   S    
C8    C17   S    
C68   H42   S    
C3    O13   A    
C10   H2    S    
C44   C51   S    
C41   O21   S    
C69   H45   S    
C16   C20   A    
O6    C2    A    
O11   V3    S    
C69   H44   S    
O12   V4    S    
C63   H31   S    
H21   C50   S    
C9    C13   A    
O10   C6    A    
O20   V2    S    
C43   O23   S    
C66   H38   S    
C40   H20   S    
C16   H8    S    
O2    C6    A    
C39   C43   S    
C15   C19   A    
C2    C47   S    
C67   C68   S    
C17   C21   A    
C63   H30   S    
C54   C58   S    
C19   C23   A    
C28   C32   A    
O23   C67   S    
C39   C56   S    
C61   H26   S    
C64   H33   S    
C69   H43   S    
C11   C31   A    
C25   H13   S    
C67   H40   S    
C4    O14   A    
C13   H5    S    
O24   C70   S    
C65   H34   S    
C55   C59   S    
O21   C61   S    
C15   H7    S    
C5    C20   S    
C49   C53   S    
C20   C24   A    
H24   C51   S    
C6    C19   S    
C62   H28   S    
