data_mof_unit_862.cif
_audit_creation_date              2012-10-26T20:40:17-0400
_audit_creation_method            fapswitch 2.2
_symmetry_space_group_name_H-M    P1
_symmetry_Int_Tables_number       1
_space_group_crystal_system       triclinic
_cell_length_a                    15.008439
_cell_length_b                    10.788148
_cell_length_c                    9.656124
_cell_angle_alpha                 86.479341
_cell_angle_beta                  91.450789
_cell_angle_gamma                 93.4824
_cell_volume                      1557.25665519

loop_
_atom_site_label
_atom_site_type_symbol
_atom_type_description
_atom_site_fract_x
_atom_site_fract_y
_atom_site_fract_z
_atom_type_partial_charge
C1    C     C_R   0.503030 0.261502 0.504738 0.585879
C2    C     C_R   0.182676 0.382758 0.552974 0.048318
C3    C     C_R   0.232774 0.487352 0.495642 -0.019325
C4    C     C_R   0.329356 0.494696 0.498897 0.565654
C5    C     C_R   0.191738 0.591829 0.441657 -0.105308
C6    C     C_R   0.472684 0.081708 0.768893 0.023167
C7    C     C_R   0.414068 0.013602 0.864461 0.002560
C8    C     C_R   0.369085 0.901266 0.825473 0.027798
C9    C     C_R   0.387441 0.856139 0.697970 -0.086119
C10   C     C_R   0.444989 0.923503 0.604948 -0.001006
C11   C     C_R   0.473182 0.046734 0.629223 0.020650
C12   C     C_R   0.913110 0.610922 0.464270 -0.009233
C13   C     C_R   0.504708 0.124698 0.513065 0.027660
C14   C     C_R   0.524414 0.070231 0.389935 -0.075569
C15   C     C_R   0.512222 0.943213 0.379244 -0.093577
C16   C     C_R   0.491044 0.735891 0.496040 0.545960
C17   C     C_R   0.477624 0.868730 0.489534 -0.000949
C18   C     C_R   0.610623 0.680901 0.124049 -0.102922
C19   C     C_R   0.657792 0.767952 0.032571 0.009266
C20   C     C_R   0.674358 0.733167 0.899039 -0.162366
C21   C     C_R   0.646536 0.613795 0.862713 0.046732
C22   C     C_R   0.568058 0.562462 0.925564 0.150647
C23   C     C_R   0.939890 0.278079 0.574321 -0.098192
C24   C     C_R   0.560814 0.577467 0.070484 0.103174
C25   C     C_R   0.433635 0.438435 0.073473 0.188290
C26   C     C_R   0.433261 0.442086 0.925784 0.056074
C27   C     C_R   0.670785 0.500658 0.501509 0.563582
C28   C     C_R   0.818944 0.613825 0.466593 0.037459
C29   C     C_R   0.767655 0.504035 0.505111 0.009821
C30   C     C_R   0.808234 0.394277 0.543974 -0.092374
C31   C     C_R   0.900706 0.390409 0.542266 0.014349
C32   C     C_R   0.953757 0.498165 0.501791 0.049312
C33   C     C_2   0.773388 0.729990 0.430568 0.543232
C34   C     C_R   0.032141 0.269792 0.567813 0.072894
C35   C     C_2   0.551390 0.157633 0.820514 0.630591
C36   C     C_2   0.398092 0.056896 0.003532 0.621346
C37   C     C_2   0.311157 0.819461 0.920269 0.611846
C38   C     C_2   0.352422 0.380433 0.139492 0.616542
C39   C     C_2   0.693289 0.892089 0.074233 0.658475
C40   C     C_2   0.721015 0.528358 0.852978 0.624838
C41   C     C_2   0.064277 0.142330 0.570286 0.617629
C42   C     C_2   0.229277 0.284886 0.636821 0.598498
C43   C     C_2   0.111469 0.832335 0.380148 0.588234
C44   C     C_R   0.088033 0.380004 0.540550 -0.004896
C45   C     C_R   0.047365 0.493049 0.499326 0.017305
C46   C     C_R   0.100154 0.600794 0.454076 0.004421
C47   C     C_R   0.059940 0.714218 0.420377 0.047559
C48   C     C_R   0.967652 0.718116 0.428034 -0.093923
Cu1   Cu    Cu3+1 0.499990 0.499990 0.640660 1.040909
Cu2   Cu    Cu3+1 0.500010 0.500010 0.359340 1.051796
H1    H     H_    0.530212 0.902395 0.285539 0.203958
H2    H     H_    0.297000 0.256692 0.281590 0.351087
H3    H     H_    0.610902 0.699586 0.231155 0.202190
H4    H     H_    0.767594 0.050146 0.024120 0.366352
H5    H     H_    0.809670 0.657669 0.762537 0.313499
H6    H     H_    0.379157 0.394479 0.870167 0.155115
H7    H     H_    0.897532 0.194488 0.596947 0.163290
H8    H     H_    0.054129 0.965891 0.653188 0.364101
H9    H     H_    0.235140 0.178326 0.815195 0.373699
H10   H     H_    0.233489 0.668363 0.396565 0.171476
H11   H     H_    0.121348 0.986412 0.250639 0.380891
H12   H     H_    0.719462 0.790683 0.833237 0.188010
H13   H     H_    0.551056 0.126160 0.301886 0.215821
H14   H     H_    0.767115 0.310899 0.572939 0.134276
H15   H     H_    0.939712 0.807531 0.407839 0.196585
H16   H     H_    0.685011 0.851025 0.484498 0.355865
H17   H     H_    0.684116 0.199294 0.805906 0.375901
H18   H     H_    0.305659 0.079552 0.146367 0.371886
H19   H     H_    0.207278 0.692020 0.938445 0.368847
H20   H     H_    0.357353 0.766503 0.671546 0.175222
N1    N     N_R   0.500860 0.501210 0.147910 -0.257707
N2    N     N_R   0.500890 0.501290 0.852040 -0.251843
O1    O     O_R   0.499990 0.319640 0.618810 -0.480887
O2    O     O_R   0.710324 0.769668 0.519589 -0.711380
O3    O     O_2   0.544674 0.228461 0.912991 -0.460302
O4    O     O_R   0.634423 0.147078 0.760961 -0.689443
O5    O     O_2   0.459880 0.071818 0.086416 -0.483623
O6    O     O_R   0.310400 0.069826 0.043318 -0.662223
O7    O     O_2   0.326563 0.812376 0.045407 -0.482551
O8    O     O_R   0.240873 0.745623 0.864680 -0.669000
O9    O     O_2   0.279391 0.415009 0.100064 -0.504159
O10   O     O_R   0.357437 0.284243 0.241925 -0.636686
O11   O     O_2   0.673455 0.930447 0.184915 -0.513825
O12   O     O_R   0.500000 0.319660 0.381240 -0.452647
O13   O     O_R   0.748619 0.967267 0.985014 -0.653210
O14   O     O_2   0.709013 0.418667 0.890858 -0.452562
O15   O     O_R   0.805697 0.569739 0.805274 -0.652852
O16   O     O_2   0.119353 0.117215 0.486828 -0.475890
O17   O     O_R   0.028040 0.049319 0.663222 -0.652277
O18   O     O_2   0.293940 0.238683 0.590807 -0.504618
O19   O     O_R   0.198734 0.245944 0.768905 -0.645061
O20   O     O_2   0.178891 0.864439 0.445678 -0.482539
O21   O     O_R   0.080516 0.909203 0.269630 -0.636704
O22   O     O_R   0.370250 0.499960 0.618800 -0.511121
O23   O     O_R   0.370260 0.499980 0.381230 -0.474025
O24   O     O_R   0.500000 0.680340 0.618760 -0.504153
O25   O     O_R   0.500010 0.680360 0.381190 -0.526999
O26   O     O_R   0.629740 0.500020 0.618770 -0.480468
O27   O     O_R   0.629750 0.500040 0.381200 -0.512756
O28   O     O_2   0.790806 0.790333 0.322655 -0.483267

loop_
_geom_bond_atom_site_label_1
_geom_bond_atom_site_label_2
_ccdc_geom_bond_type
C41   O17   S    
C27   O26   A    
C30   H14   S    
C27   C29   S    
C26   N2    A    
C32   C45   A    
C19   C20   A    
C12   C48   A    
Cu2   O12   S    
C7    C8    A    
C45   C46   A    
C1    O12   A    
C37   O7    D    
C27   O27   A    
Cu2   O27   S    
C12   C28   A    
C18   C24   A    
C40   O15   S    
C28   C29   A    
C18   C19   A    
C36   O5    D    
C30   C31   A    
H11   O21   S    
C16   O25   A    
C10   C17   A    
H16   O2    S    
C6    C35   S    
C23   H7    S    
C42   O19   S    
C7    C36   S    
C40   O14   D    
C18   H3    S    
Cu1   O26   S    
C31   C32   A    
C2    C44   A    
C8    C9    A    
Cu1   N2    S    
C25   N1    A    
C15   H1    S    
C48   H15   S    
C9    C10   A    
C21   C22   A    
C12   C32   A    
H5    O15   S    
C34   C41   S    
C22   N2    A    
H18   O6    S    
C37   O8    S    
C35   O4    S    
C16   O24   A    
C34   C44   A    
C9    H20   S    
C6    C11   A    
C16   C17   S    
C25   C26   A    
C42   O18   D    
C23   C31   A    
Cu2   N1    S    
C29   C30   A    
C25   C38   S    
C4    O23   A    
C47   C48   A    
C23   C34   A    
C35   O3    D    
H9    O19   S    
H2    O10   S    
C19   C39   S    
C4    O22   A    
C28   C33   S    
C38   O9    D    
Cu1   O22   S    
Cu1   O1    S    
C1    C13   S    
C8    C37   S    
C39   O13   S    
C3    C4    S    
C44   C45   A    
C15   C17   A    
C41   O16   D    
C46   C47   A    
Cu2   O25   S    
C5    H10   S    
C3    C5    A    
C26   H6    S    
H4    O13   S    
C6    C7    A    
C5    C46   A    
C43   O20   D    
C33   O28   D    
C1    O1    A    
C2    C3    A    
C39   O11   D    
C36   O6    S    
C11   C13   A    
C21   C40   S    
C2    C42   S    
C14   H13   S    
C43   O21   S    
C22   C24   A    
Cu1   O24   S    
C20   H12   S    
Cu2   O23   S    
H8    O17   S    
C10   C11   A    
C33   O2    S    
C20   C21   A    
Cu1   Cu2   S    
C14   C15   A    
H19   O8    S    
H17   O4    S    
C13   C14   A    
C43   C47   S    
C38   O10   S    
C24   N1    A    
