data_mof_unit_3144.cif
_audit_creation_date              2012-10-26T18:27:28-0400
_audit_creation_method            fapswitch 2.2
_symmetry_space_group_name_H-M    P1
_symmetry_Int_Tables_number       1
_space_group_crystal_system       triclinic
_cell_length_a                    10.818436
_cell_length_b                    11.054917
_cell_length_c                    9.813617
_cell_angle_alpha                 111.320841
_cell_angle_beta                  98.695019
_cell_angle_gamma                 90.964826
_cell_volume                      1077.49404936

loop_
_atom_site_label
_atom_site_type_symbol
_atom_type_description
_atom_site_fract_x
_atom_site_fract_y
_atom_site_fract_z
_atom_type_partial_charge
C1    C     C_R   0.490596 0.253756 0.439941 0.572154
C2    C     C_2   0.496209 0.928879 0.482714 -0.130590
C3    C     C_2   0.510534 0.510620 0.081792 -0.013293
C4    C     C_R   0.263615 0.513988 0.504502 0.578117
C5    C     C_2   0.488292 0.490667 0.918534 0.003056
C6    C     C_R   0.509036 0.746064 0.559745 0.579855
C7    C     C_R   0.737980 0.492095 0.498449 0.544916
C8    C     C_R   0.154411 0.625815 0.789425 0.258064
C9    C     C_R   0.115637 0.613364 0.913442 -0.078743
C10   C     C_R   0.005362 0.539323 0.896963 -0.170120
C11   C     C_R   0.926235 0.490523 0.759809 -0.102811
C12   C     C_R   0.083528 0.558025 0.645630 0.030453
C13   C     C_R   0.959174 0.511554 0.635353 0.000656
C14   C     C_R   0.130683 0.531358 0.511382 0.012044
C15   C     C_R   0.047242 0.498292 0.377037 -0.151044
C16   C     C_R   0.919655 0.483814 0.373635 -0.150301
C17   C     C_R   0.873709 0.489316 0.501333 0.002126
C18   C     C_2   0.484712 0.113723 0.403313 0.213541
C19   C     C_2   0.500695 0.067766 0.512928 -0.130132
C20   C     C_2   0.513553 0.885419 0.593523 -0.116239
Cl1   Cl    Cl    0.456359 0.010532 0.213150 -0.551761
Cl2   Cl    Cl    0.273431 0.749624 0.823917 -0.523119
Cu1   Cu    Cu3+1 0.521920 0.521810 0.644910 1.003093
Cu2   Cu    Cu3+1 0.478080 0.478190 0.355090 0.989443
H1    H     H_    0.080437 0.482378 0.273551 0.141344
H2    H     H_    0.478801 0.860556 0.368532 0.216060
H3    H     H_    0.517852 0.134184 0.628360 0.123708
H4    H     H_    0.531033 0.952364 0.708634 0.140892
H5    H     H_    0.413575 0.419995 0.844958 0.147808
H6    H     H_    0.584197 0.582501 0.155664 0.152722
H7    H     H_    0.625984 0.620120 0.934847 0.216810
H8    H     H_    0.375561 0.378097 0.064680 0.216190
H9    H     H_    0.170364 0.662254 0.023003 0.162474
H10   H     H_    0.977955 0.525219 0.992128 0.116138
H11   H     H_    0.841667 0.433529 0.752386 0.152713
H12   H     H_    0.857173 0.465488 0.269766 0.138587
N1    N     N_2   0.445130 0.445430 0.137370 -0.349400
N2    N     N_2   0.554930 0.554500 0.862630 -0.328898
O1    O     O_R   0.511700 0.332330 0.577400 -0.544099
O2    O     O_R   0.474680 0.295500 0.332650 -0.438136
O3    O     O_R   0.338160 0.518420 0.622400 -0.462869
O4    O     O_R   0.301140 0.481590 0.377650 -0.506363
O5    O     O_R   0.525320 0.704500 0.667350 -0.435210
O6    O     O_R   0.488300 0.667670 0.422600 -0.510088
O7    O     O_R   0.698860 0.518410 0.622350 -0.513473
O8    O     O_R   0.661840 0.481580 0.377600 -0.506274

loop_
_geom_bond_atom_site_label_1
_geom_bond_atom_site_label_2
_ccdc_geom_bond_type
C3    H6    S    
C8    Cl2   S    
Cu1   Cu2   S    
Cu1   O7    S    
Cu1   N2    S    
Cu2   O4    S    
C9    C10   A    
Cu1   O3    S    
H7    N2    S    
C13   C17   A    
C8    C12   A    
Cu2   O8    S    
C11   H11   S    
Cu2   N1    S    
Cu1   O5    S    
C10   H10   S    
C6    O6    A    
H8    N1    S    
C16   H12   S    
C9    H9    S    
C11   C13   A    
C1    C18   S    
C4    O4    A    
Cu1   O1    S    
C7    O7    A    
C19   H3    S    
Cu2   O2    S    
C12   C14   A    
C5    H5    S    
C6    O5    A    
C4    C14   S    
Cu2   O6    S    
C15   H1    S    
C4    O3    A    
C1    O1    A    
C2    C20   D    
C15   C16   A    
C18   Cl1   S    
C7    O8    A    
C6    C20   S    
C12   C13   A    
C3    N1    D    
C2    H2    S    
C18   C19   D    
C10   C11   A    
C14   C15   A    
C8    C9    A    
C20   H4    S    
C1    O2    A    
C3    C5    S    
C2    C19   S    
C5    N2    D    
C16   C17   A    
C7    C17   S    
