data_mof_unit_1073.cif
_audit_creation_date              2012-12-10T17:55:28-0500
_audit_creation_method            fapswitch 2.2
_symmetry_space_group_name_H-M    P1
_symmetry_Int_Tables_number       1
_space_group_crystal_system       triclinic
_cell_length_a                    10.81343
_cell_length_b                    9.607154
_cell_length_c                    10.948356
_cell_angle_alpha                 89.727831
_cell_angle_beta                  92.115287
_cell_angle_gamma                 89.715632
_cell_volume                      1136.58117209

loop_
_atom_site_label
_atom_site_type_symbol
_atom_type_description
_atom_site_fract_x
_atom_site_fract_y
_atom_site_fract_z
_atom_type_partial_charge
C1    C     C_R   0.262547 0.500352 0.495809 0.830489
C2    C     C_R   0.737511 0.499970 0.495040 0.812906
C3    C     C_R   0.497419 0.499673 0.265408 0.778415
C4    C     C_R   0.503997 0.499608 0.734598 0.762835
C5    C     C_2   0.501715 0.386275 0.934497 0.319696
C6    C     C_2   0.531407 0.393770 0.067587 0.289527
C7    C     C_2   0.526165 0.498927 0.866206 0.380398
C8    C     C_2   0.481147 0.496502 0.133323 0.361154
C9    C     C_R   0.066566 0.390457 0.540762 -0.223356
C10   C     C_R   0.939323 0.389323 0.537869 -0.290835
C11   C     C_R   0.871591 0.500529 0.486598 -0.162783
C12   C     C_R   0.128658 0.500808 0.488026 -0.176230
C13   C     C_R   0.932235 0.611448 0.428999 0.390192
C14   C     C_R   0.062544 0.607672 0.425241 0.371860
C15   C     C_R   0.427695 0.076575 0.417094 0.415152
C16   C     C_R   0.560988 0.073597 0.591512 0.417331
C17   C     C_R   0.442420 0.928609 0.407045 0.428933
C18   C     C_R   0.557579 0.925004 0.593710 0.376924
Cu1   Cu    Cu3+1 0.500000 0.640660 0.500000 1.052906
Cu2   Cu    Cu3+1 0.500000 0.359340 0.500000 1.025211
H1    H     H_    0.116545 0.305363 0.585733 0.198258
H2    H     H_    0.894547 0.302145 0.578414 0.165697
N1    N     N_R   0.500000 0.852070 0.500000 -0.282412
N2    N     N_R   0.500000 0.147940 0.500000 -0.274769
O1    O     O_R   0.319640 0.618740 0.499990 -0.521146
O2    O     O_R   0.680360 0.618740 0.500010 -0.566727
O3    O     O_R   0.319620 0.381170 0.499990 -0.540467
O4    O     O_R   0.680380 0.381170 0.500010 -0.588755
O5    O     O_R   0.500000 0.618750 0.321940 -0.524324
O6    O     O_R   0.500000 0.618750 0.678060 -0.513760
O7    O     O_R   0.499970 0.381180 0.321940 -0.575961
O8    O     O_R   0.500030 0.381180 0.678060 -0.516883
O9    O     O_3   0.433596 0.277468 0.881549 -0.594120
C19   C     C_3   0.464649 0.146956 0.933363 -0.122996
H3    H     H_    0.420629 0.133639 0.021759 0.114844
H4    H     H_    0.566371 0.129964 0.941846 0.195498
H5    H     H_    0.426728 0.064767 0.872020 0.204119
O10   O     O_3   0.608592 0.295011 0.123986 -0.624853
C20   C     C_3   0.730384 0.316634 0.086574 -0.351498
H6    H     H_    0.738506 0.297087 0.987109 0.154328
H7    H     H_    0.792656 0.241872 0.136325 0.193723
H8    H     H_    0.762794 0.423473 0.109846 0.185209
F1    F     F_    0.583308 0.612095 0.916914 -0.665713
F2    F     F_    0.404722 0.593202 0.078892 -0.691604
O11   O     O_3   0.861721 0.710432 0.364128 -0.584424
C21   C     C_3   0.897196 0.847537 0.395424 -0.222926
H9    H     H_    0.943743 0.856364 0.487638 0.137591
H10   H     H_    0.812813 0.913786 0.395123 0.139228
H11   H     H_    0.957908 0.890311 0.324992 0.208529
O12   O     O_3   0.124893 0.707416 0.360293 -0.564774
C22   C     C_3   0.137969 0.658867 0.240069 -0.175794
H12   H     H_    0.194974 0.562104 0.238882 0.146076
H13   H     H_    0.186499 0.739410 0.187291 0.227350
H14   H     H_    0.046292 0.641294 0.193199 0.143536
O13   O     O_3   0.317465 0.139292 0.377154 -0.534467
C23   C     C_3   0.309286 0.155608 0.249668 -0.249244
H15   H     H_    0.397088 0.192410 0.212933 0.174245
H16   H     H_    0.238842 0.237023 0.227258 0.160662
H17   H     H_    0.276854 0.058516 0.204780 0.185322
O14   O     O_3   0.598950 0.141868 0.696703 -0.515621
C24   C     C_3   0.728420 0.156245 0.704480 -0.270548
H18   H     H_    0.749574 0.268266 0.715711 0.167011
H19   H     H_    0.778053 0.114058 0.625027 0.103924
H20   H     H_    0.764644 0.104605 0.789185 0.150333
O15   O     O_3   0.397967 0.862796 0.303107 -0.527073
C25   C     C_3   0.484047 0.884827 0.210136 -0.245074
H21   H     H_    0.506809 0.995971 0.196120 0.101213
H22   H     H_    0.443781 0.846027 0.122328 0.246450
H23   H     H_    0.572798 0.829153 0.230459 0.201974
O16   O     O_3   0.595982 0.856927 0.700132 -0.506251
C26   C     C_3   0.723152 0.822658 0.698685 -0.115434
H24   H     H_    0.771165 0.868341 0.779979 0.140429
H25   H     H_    0.770870 0.857238 0.615688 0.079194
H26   H     H_    0.734526 0.708460 0.708801 0.182149

loop_
_geom_bond_atom_site_label_1
_geom_bond_atom_site_label_2
_ccdc_geom_bond_type
C18   N1    A    
C18   O16   S    
C26   H26   S    
C13   O11   S    
O13   C23   S    
C6    O10   S    
O16   C26   S    
Cu2   O3    S    
C7    F1    S    
C24   H20   S    
C19   H5    S    
C2    O4    A    
C9    C10   A    
C16   N2    A    
C17   O15   S    
Cu1   Cu2   S    
C23   H17   S    
C22   H14   S    
C1    O3    A    
C24   H19   S    
O9    C19   S    
C26   H24   S    
C2    O2    A    
C4    O8    A    
O11   C21   S    
C10   H2    S    
C3    O7    A    
C11   C13   A    
C21   H11   S    
C9    H1    S    
C17   N1    A    
C1    C12   S    
C4    C7    S    
C5    C6    S    
C2    C11   S    
C16   C18   A    
C15   N2    A    
C12   C14   A    
O12   C22   S    
C20   H8    S    
C19   H4    S    
C5    O9    S    
O15   C25   S    
C16   O14   S    
C24   H18   S    
Cu1   O1    S    
C9    C12   A    
C21   H10   S    
C3    C8    S    
C25   H23   S    
C10   C11   A    
C14   O12   S    
C22   H12   S    
Cu1   O5    S    
Cu2   N2    S    
C20   H6    S    
C3    O5    A    
O10   C20   S    
C23   H15   S    
C20   H7    S    
C5    C7    D    
C19   H3    S    
Cu2   O8    S    
C26   H25   S    
C25   H21   S    
C15   C17   A    
Cu1   O2    S    
Cu1   N1    S    
O14   C24   S    
C6    C8    D    
Cu2   O4    S    
C25   H22   S    
C21   H9    S    
Cu1   O6    S    
C1    O1    A    
C4    O6    A    
C8    F2    S    
C23   H16   S    
C13   C14   A    
C22   H13   S    
Cu2   O7    S    
C15   O13   S    
