data_mof_unit_4263.cif
_audit_creation_date              2012-12-11T14:56:04-0500
_audit_creation_method            fapswitch 2.2
_symmetry_space_group_name_H-M    P1
_symmetry_Int_Tables_number       1
_space_group_crystal_system       triclinic
_cell_length_a                    28.024041
_cell_length_b                    17.269368
_cell_length_c                    17.996734
_cell_angle_alpha                 90.03289
_cell_angle_beta                  137.91924
_cell_angle_gamma                 90.014521
_cell_volume                      5837.00951133

loop_
_atom_site_label
_atom_site_type_symbol
_atom_type_description
_atom_site_fract_x
_atom_site_fract_y
_atom_site_fract_z
_atom_type_partial_charge
C1    C     C_R   0.666440 0.920548 0.817569 0.483274
C2    C     C_3   0.277609 0.701808 0.004445 -0.404807
C3    C     C_3   0.661306 0.748884 0.958200 0.477248
C4    C     C_3   0.208199 0.803669 0.915744 0.488849
C5    C     C_3   0.839054 0.249375 0.041531 0.482332
C6    C     C_3   0.792234 0.804292 0.085838 0.489506
C7    C     C_3   0.161305 0.248877 0.958197 0.477268
C8    C     C_3   0.258139 0.770253 0.032179 0.463875
C9    C     C_3   0.788324 0.281755 0.923129 0.492288
C10   C     C_3   0.743060 0.770688 0.969596 0.466761
C11   C     C_3   0.211170 0.281441 0.076386 0.489842
C12   C     C_3   0.758166 0.270210 0.032249 0.464139
C13   C     C_3   0.230156 0.351359 0.047843 -0.368448
C14   C     C_3   0.288483 0.781640 0.923303 0.491692
C15   C     C_3   0.243068 0.270704 0.969621 0.467085
C16   C     C_3   0.711184 0.781448 0.076392 0.489832
C17   C     C_3   0.319633 0.817404 0.069904 -0.209213
C18   C     C_3   0.726937 0.235598 0.886540 -0.224705
C19   C     C_3   0.681010 0.817290 0.930658 -0.208007
C20   C     C_3   0.273205 0.235890 0.114330 -0.222555
C21   C     C_3   0.819590 0.317444 0.069852 -0.208800
C22   C     C_3   0.227008 0.735572 0.886573 -0.224144
C23   C     C_3   0.181007 0.317293 0.930663 -0.207903
C24   C     C_3   0.723361 0.701966 0.996613 -0.400835
C25   C     C_3   0.773208 0.735884 0.114319 -0.222565
C26   C     C_3   0.269687 0.851264 0.952498 -0.363599
C27   C     C_3   0.777625 0.201827 0.004418 -0.402680
C28   C     C_3   0.730172 0.851356 0.047840 -0.368358
C29   C     C_3   0.223371 0.201974 0.996627 -0.400349
C30   C     C_R   0.704767 0.756171 0.580739 0.121526
C31   C     C_R   0.395688 0.134148 0.657505 0.065807
C32   C     C_R   0.283549 0.752633 0.374409 0.144849
C33   C     C_R   0.311933 0.108101 0.210446 0.528198
C34   C     C_R   0.610751 0.148825 0.353875 0.121642
C35   C     C_R   0.204331 0.256700 0.578667 0.107193
C36   C     C_R   0.895660 0.634468 0.657401 0.065033
C37   C     C_R   0.783562 0.252632 0.374476 0.145107
C38   C     C_R   0.110786 0.648898 0.353936 0.121572
C39   C     C_R   0.394383 0.236116 0.748868 -0.167680
C40   C     C_R   0.724582 0.628403 0.550566 -0.207341
C41   C     C_R   0.605461 0.250551 0.254777 -0.218121
C42   C     C_R   0.258620 0.623506 0.392779 -0.218156
C43   C     C_R   0.894597 0.736359 0.749159 -0.168331
C44   C     C_R   0.334298 0.920944 0.182718 0.482143
C45   C     C_R   0.223972 0.128837 0.548458 -0.185792
C46   C     C_R   0.105473 0.750595 0.254786 -0.218007
C47   C     C_R   0.758633 0.123494 0.392822 -0.217797
C48   C     C_R   0.431297 0.195079 0.736546 0.024240
C49   C     C_R   0.677797 0.684611 0.521952 0.012963
C50   C     C_R   0.573832 0.211367 0.277499 -0.001710
C51   C     C_R   0.301718 0.672880 0.400805 0.041450
C52   C     C_R   0.931346 0.695408 0.736469 0.023947
C53   C     C_R   0.176987 0.185450 0.518887 0.014316
C54   C     C_R   0.073863 0.711437 0.277554 -0.001777
C55   C     C_R   0.688077 0.108021 0.789967 0.527093
C56   C     C_R   0.801735 0.172878 0.400870 0.040944
C57   C     C_R   0.336147 0.101107 0.622629 -0.206074
C58   C     C_R   0.778618 0.769407 0.665926 -0.205919
C59   C     C_R   0.665783 0.113241 0.377520 -0.233061
C60   C     C_R   0.213861 0.774941 0.311839 -0.205608
C61   C     C_R   0.836244 0.601328 0.622815 -0.207178
C62   C     C_R   0.278220 0.269522 0.664638 -0.198774
C63   C     C_R   0.165798 0.613292 0.377542 -0.233992
C64   C     C_R   0.713870 0.274932 0.311899 -0.205630
C65   C     C_R   0.295691 0.146441 0.623109 0.159635
C66   C     C_R   0.166436 0.420549 0.817570 0.483433
C67   C     C_R   0.823827 0.716830 0.683116 0.126341
C68   C     C_R   0.696892 0.152101 0.354147 0.165434
C69   C     C_R   0.170754 0.725213 0.302850 0.150176
C70   C     C_R   0.796096 0.646379 0.624153 0.169017
C71   C     C_R   0.323462 0.216807 0.682213 0.125148
C72   C     C_R   0.196891 0.652130 0.354132 0.165752
C73   C     C_R   0.670754 0.225187 0.302874 0.150209
C74   C     C_R   0.364423 0.066868 0.498344 -0.017970
C75   C     C_R   0.671817 0.895771 0.584124 -0.111629
C76   C     C_R   0.638482 0.071364 0.505552 -0.031337
C77   C     C_R   0.811933 0.608101 0.210443 0.528142
C78   C     C_R   0.325316 0.893708 0.402031 -0.119080
C79   C     C_R   0.864414 0.566938 0.498342 -0.017988
C80   C     C_R   0.171693 0.395995 0.583524 -0.103948
C81   C     C_R   0.138525 0.571437 0.505616 -0.032499
C82   C     C_R   0.825320 0.393713 0.402060 -0.119104
C83   C     C_R   0.409095 0.802837 0.495455 -0.082518
C84   C     C_R   0.557566 0.166502 0.421730 -0.085024
C85   C     C_R   0.588350 0.804268 0.496069 -0.077910
C86   C     C_R   0.445363 0.161855 0.584289 -0.102689
C87   C     C_R   0.909101 0.302840 0.495478 -0.082351
C88   C     C_R   0.834286 0.420957 0.182715 0.482381
C89   C     C_R   0.057576 0.666531 0.421758 -0.084617
C90   C     C_R   0.088305 0.304397 0.495632 -0.098682
C91   C     C_R   0.945309 0.661977 0.584159 -0.102446
C92   C     C_R   0.603652 0.195424 0.708449 -0.211140
C93   C     C_R   0.418207 0.829531 0.275121 -0.146150
C94   C     C_R   0.396388 0.195547 0.292185 -0.190659
C95   C     C_R   0.582186 0.829660 0.725335 -0.146218
C96   C     C_R   0.103677 0.695424 0.708458 -0.211069
C97   C     C_R   0.918195 0.329548 0.275089 -0.147915
C98   C     C_R   0.896389 0.695545 0.292180 -0.190656
C99   C     C_R   0.188086 0.608007 0.789956 0.527043
C100  C     C_R   0.082186 0.329659 0.725335 -0.144297
C101  C     C_R   0.639152 0.860535 0.828456 0.053022
C102  C     C_R   0.324980 0.183565 0.206783 0.078558
C103  C     C_R   0.361741 0.860855 0.172077 0.056291
C104  C     C_R   0.675017 0.183293 0.794120 0.081243
C105  C     C_R   0.139150 0.360535 0.828457 0.051780
C106  C     C_R   0.824982 0.683561 0.206774 0.078572
C107  C     C_R   0.861724 0.360885 0.172047 0.055371
C108  C     C_R   0.175051 0.683284 0.794122 0.081342
C109  C     C_R   0.403355 0.120516 0.585372 0.016067
C110  C     C_3   0.769540 0.351316 0.952421 -0.364746
C111  C     C_R   0.656312 0.817907 0.550063 0.074331
C112  C     C_R   0.601777 0.128790 0.422998 0.031933
C113  C     C_R   0.337452 0.814130 0.424370 0.073583
C114  C     C_R   0.903304 0.620693 0.585268 0.016912
C115  C     C_R   0.156078 0.318282 0.548920 0.067247
C116  C     C_R   0.101811 0.628857 0.423057 0.032097
C117  C     C_R   0.837459 0.314134 0.424414 0.073368
C118  C     C_3   0.708129 0.303631 0.915793 0.488772
C119  C     C_3   0.339121 0.749272 0.041697 0.481935
C120  C     C_3   0.292229 0.304308 0.085859 0.489088
Cl1   Cl    Cl    0.750115 0.962648 0.929726 -0.545437
Cl2   Cl    Cl    0.806330 0.289052 0.847077 -0.477472
Cl3   Cl    Cl    0.765562 0.759469 0.899733 -0.567826
Cl4   Cl    Cl    0.191970 0.288287 0.150844 -0.485441
Cl5   Cl    Cl    0.736943 0.258525 0.103866 -0.572408
Cl6   Cl    Cl    0.306617 0.788838 0.847419 -0.476014
Cl7   Cl    Cl    0.265593 0.259499 0.899789 -0.564939
Cl8   Cl    Cl    0.691999 0.788311 0.150870 -0.483647
Cl9   Cl    Cl    0.623607 0.344975 0.839587 -0.563175
Cl10  Cl    Cl    0.426188 0.713085 0.124260 -0.528153
Cl11  Cl    Cl    0.376596 0.346855 0.163242 -0.575478
Cl12  Cl    Cl    0.236634 0.084185 0.177234 -0.494365
Cl13  Cl    Cl    0.574336 0.711809 0.874893 -0.498650
Cl14  Cl    Cl    0.123700 0.845142 0.839436 -0.562278
Cl15  Cl    Cl    0.926049 0.213198 0.123751 -0.537553
Cl16  Cl    Cl    0.876602 0.846825 0.163207 -0.574212
Cl17  Cl    Cl    0.074339 0.211785 0.874878 -0.498523
Cl18  Cl    Cl    0.250729 0.962986 0.070359 -0.542783
Cl19  Cl    Cl    0.763307 0.084701 0.822784 -0.489522
Cl20  Cl    Cl    0.250101 0.462665 0.929739 -0.545811
Cl21  Cl    Cl    0.736644 0.584211 0.177268 -0.494245
Cl22  Cl    Cl    0.750682 0.462950 0.070392 -0.543180
Cl23  Cl    Cl    0.263302 0.584649 0.822749 -0.489966
Cl24  Cl    Cl    0.236795 0.758665 0.103639 -0.572883
H1    H     H_    0.918887 0.787069 0.802175 0.160962
H2    H     H_    0.723992 0.922198 0.643832 0.138690
H3    H     H_    0.677525 0.031839 0.528909 0.100831
H4    H     H_    0.273863 0.921100 0.337601 0.147931
H5    H     H_    0.826474 0.525365 0.474907 0.096501
H6    H     H_    0.223861 0.422438 0.643051 0.137078
H7    H     H_    0.177639 0.532012 0.529051 0.100204
H8    H     H_    0.773866 0.421105 0.337643 0.147970
H9    H     H_    0.437271 0.749207 0.521600 0.118078
H10   H     H_    0.522909 0.214768 0.372142 0.137486
H11   H     H_    0.564582 0.749015 0.481528 0.117440
H12   H     H_    0.203036 0.075264 0.501499 0.137398
H13   H     H_    0.480841 0.208937 0.637569 0.119308
H14   H     H_    0.937279 0.249212 0.521629 0.118751
H15   H     H_    0.022911 0.714790 0.372166 0.137574
H16   H     H_    0.064658 0.248939 0.480819 0.128288
H17   H     H_    0.980744 0.709116 0.637303 0.119188
H18   H     H_    0.577116 0.250809 0.676473 0.190287
H19   H     H_    0.447857 0.777979 0.295559 0.173624
H20   H     H_    0.423161 0.250837 0.324142 0.185801
H21   H     H_    0.551711 0.778882 0.704708 0.174811
H22   H     H_    0.077150 0.750812 0.676481 0.190530
H23   H     H_    0.081513 0.803434 0.206333 0.158879
H24   H     H_    0.947830 0.277994 0.295481 0.172138
H25   H     H_    0.923160 0.750837 0.324135 0.186040
H26   H     H_    0.051712 0.278880 0.704708 0.174780
H27   H     H_    0.767339 0.412737 0.931872 0.236022
H28   H     H_    0.280548 0.640353 0.025726 0.247417
H29   H     H_    0.231850 0.412776 0.067964 0.233042
H30   H     H_    0.720825 0.640551 0.975518 0.248606
H31   H     H_    0.267556 0.912675 0.931989 0.236325
H32   H     H_    0.780635 0.140359 0.025728 0.247554
H33   H     H_    0.731876 0.912775 0.067966 0.233184
H34   H     H_    0.776019 0.064704 0.423734 0.149276
H35   H     H_    0.220844 0.140561 0.975534 0.248849
H36   H     H_    0.800376 0.823269 0.711860 0.147538
H37   H     H_    0.312728 0.048458 0.574194 0.124681
H38   H     H_    0.195728 0.833550 0.281664 0.141490
H39   H     H_    0.690585 0.060724 0.426094 0.130388
H40   H     H_    0.300051 0.323185 0.711050 0.147119
H41   H     H_    0.812715 0.548744 0.574231 0.125039
H42   H     H_    0.695736 0.333541 0.281728 0.141438
H43   H     H_    0.190593 0.560768 0.426103 0.129966
H44   H     H_    0.589636 0.620146 0.438759 0.141473
H45   H     H_    0.418646 0.286799 0.801934 0.160545
H46   H     H_    0.593204 0.661934 0.357926 0.190959
H47   H     H_    0.503877 0.267325 0.775135 0.181816
H48   H     H_    0.529300 0.172357 0.804532 0.139052
H49   H     H_    0.346602 0.597746 0.380739 0.156684
H50   H     H_    0.395371 0.615764 0.514182 0.141677
H51   H     H_    0.509363 0.294989 0.242599 0.180733
H52   H     H_    0.469496 0.231361 0.138591 0.185300
H53   H     H_    0.090884 0.115927 0.394304 0.160463
H54   H     H_    0.087030 0.207222 0.357772 0.182364
H55   H     H_    0.003787 0.767660 0.774644 0.181926
H56   H     H_    0.703117 0.574866 0.503405 0.141683
H57   H     H_    0.029309 0.672697 0.804298 0.139034
H58   H     H_    0.846634 0.097753 0.380821 0.157524
H59   H     H_    0.895390 0.115764 0.514261 0.142120
H60   H     H_    0.009411 0.795069 0.242680 0.181049
H61   H     H_    0.969526 0.731442 0.138663 0.185113
H62   H     H_    0.581503 0.303394 0.206333 0.158865
H63   H     H_    0.276004 0.564718 0.423694 0.148966
H64   H     H_    0.326456 0.025302 0.474828 0.096499
N1    N     N_R   0.625380 0.928280 0.709340 -0.089242
N2    N     N_R   0.613900 0.929750 0.547530 -0.050164
N3    N     N_R   0.613900 0.070250 0.547530 -0.038991
N4    N     N_R   0.386100 0.929750 0.452470 -0.054604
N5    N     N_R   0.886100 0.570250 0.452470 -0.038877
N6    N     N_R   0.113900 0.429750 0.547530 -0.049805
N7    N     N_R   0.113900 0.570250 0.547530 -0.039176
N8    N     N_R   0.886100 0.429750 0.452470 -0.054775
N9    N     N_R   0.437800 0.869550 0.507970 -0.056479
N10   N     N_R   0.562200 0.130450 0.492030 -0.052060
N11   N     N_R   0.562200 0.869550 0.492030 -0.057059
N12   N     N_R   0.374620 0.071720 0.290660 -0.116391
N13   N     N_R   0.437800 0.130450 0.507970 -0.045186
N14   N     N_R   0.937800 0.369550 0.507970 -0.056658
N15   N     N_R   0.062200 0.630450 0.492030 -0.052077
N16   N     N_R   0.062200 0.369550 0.492030 -0.054724
N17   N     N_R   0.937800 0.630450 0.507970 -0.045247
N18   N     N_R   0.573690 0.128980 0.653840 -0.088855
N19   N     N_R   0.426310 0.871020 0.346160 -0.080619
N20   N     N_R   0.426310 0.128980 0.346160 -0.089104
N21   N     N_R   0.573690 0.871020 0.653840 -0.081093
N22   N     N_R   0.073690 0.628980 0.653840 -0.088951
N23   N     N_R   0.374620 0.928280 0.290660 -0.089644
N24   N     N_R   0.926310 0.371020 0.346160 -0.079785
N25   N     N_R   0.926310 0.628980 0.346160 -0.089245
N26   N     N_R   0.073690 0.371020 0.653840 -0.080333
N27   N     N_3   0.603105 0.670903 0.425913 -0.203475
N28   N     N_3   0.503814 0.215833 0.805471 -0.167962
N29   N     N_3   0.363318 0.641334 0.436463 -0.213049
N30   N     N_3   0.505553 0.236330 0.224283 -0.198196
N31   N     N_3   0.102007 0.173575 0.420744 -0.206373
N32   N     N_3   0.003815 0.716217 0.805162 -0.167905
N33   N     N_3   0.863341 0.141339 0.436545 -0.212406
N34   N     N_R   0.625380 0.071720 0.709340 -0.117000
N35   N     N_3   0.005592 0.736410 0.224360 -0.198302
N36   N     N_R   0.125380 0.428280 0.709340 -0.089102
N37   N     N_R   0.874620 0.571720 0.290660 -0.116572
N38   N     N_R   0.874620 0.428280 0.290660 -0.089648
N39   N     N_R   0.125380 0.571720 0.709340 -0.117141
N40   N     N_R   0.386100 0.070250 0.452470 -0.038818
Ni1   Ni    Ni4+2 0.616560 0.000000 0.627280 0.304100
Ni2   Ni    Ni4+2 0.383440 0.000000 0.372720 0.298892
Ni3   Ni    Ni4+2 0.116560 0.500000 0.627280 0.304397
Ni4   Ni    Ni4+2 0.883440 0.500000 0.372720 0.298683
Ni5   Ni    Ni4+2 0.497990 0.870580 0.500000 0.216009
Ni6   Ni    Ni4+2 0.502010 0.129420 0.500000 0.220475
Ni7   Ni    Ni4+2 0.997990 0.370580 0.500000 0.217988
Ni8   Ni    Ni4+2 0.002010 0.629420 0.500000 0.220485

loop_
_geom_bond_atom_site_label_1
_geom_bond_atom_site_label_2
_ccdc_geom_bond_type
C61   C70   A    
C16   C28   S    
C62   H40   S    
N19   N23   A    
C56   N33   S    
C75   N2    A    
C7    C29   S    
C55   N34   A    
N12   Ni2   S    
C35   C53   A    
C120  Cl11  S    
C19   C101  S    
C83   C113  A    
H51   N30   S    
C100  N26   A    
C11   Cl4   S    
C4    C8    S    
C24   H30   S    
H55   N32   S    
C93   C103  A    
C74   C109  A    
C57   H37   S    
C21   C110  S    
N19   Ni5   S    
C74   H64   S    
N14   Ni7   S    
C80   H6    S    
C99   C108  A    
C66   N36   A    
C13   C23   S    
C100  C105  A    
C84   C112  A    
C40   C70   A    
C11   C13   S    
C17   C26   S    
C60   C69   A    
C75   C111  A    
C99   Cl23  S    
C77   C106  A    
N36   Ni3   S    
C44   N23   A    
C87   C117  A    
C47   H34   S    
N22   Ni8   S    
C39   H45   S    
C22   C108  S    
C43   C52   A    
N18   N34   A    
C97   N24   A    
C20   C102  S    
N4    N9    A    
C93   H19   S    
C40   C49   A    
C23   C105  S    
C16   C25   S    
C119  Cl10  S    
C55   Cl19  S    
C15   C120  S    
N12   N20   A    
N5    Ni4   S    
C85   H11   S    
C41   H62   S    
C47   C56   A    
C82   H8    S    
C59   H39   S    
C46   C69   A    
C6    Cl16  S    
N25   Ni8   S    
C5    C27   S    
C98   H25   S    
C84   H10   S    
N15   Ni8   S    
C3    C16   S    
C6    C28   S    
C31   C57   A    
C76   H3    S    
C2    C22   S    
C64   C73   A    
C35   C115  S    
C98   C106  A    
C86   N13   A    
C96   N22   A    
C32   C113  S    
C2    H28   S    
C28   H33   S    
C18   C118  S    
N2    Ni1   S    
N24   N38   A    
C36   C52   A    
C78   H4    S    
C42   C51   A    
C79   H5    S    
C82   N8    A    
C110  H27   S    
C15   C23   S    
C4    C22   S    
C96   C108  A    
C89   C116  A    
C36   C114  S    
C15   Cl7   S    
C91   N17   A    
N7    Ni3   S    
C76   C112  A    
C37   C56   A    
C53   N31   S    
C3    C24   S    
N24   Ni7   S    
C95   H21   S    
C88   Cl22  S    
C44   C103  A    
N40   Ni2   S    
C25   C106  S    
C89   H15   S    
C1    Cl1   S    
C20   C29   S    
C75   H2    S    
C60   H38   S    
H52   N30   S    
H48   N28   S    
C11   C20   S    
C34   C50   A    
C46   H23   S    
C12   C27   S    
C1    N1    A    
C33   C102  A    
C15   C29   S    
C87   N14   A    
C34   C112  S    
C50   N30   S    
C86   C109  A    
C24   C25   S    
C8    Cl24  S    
C10   Cl3   S    
H54   N31   S    
C94   H20   S    
C7    Cl17  S    
C88   C107  A    
C17   C119  S    
N38   Ni4   S    
C12   Cl5   S    
C40   H56   S    
C10   C24   S    
C68   C73   A    
C81   H7    S    
H58   N33   S    
C100  H26   S    
C55   C104  A    
C45   C53   A    
C83   N9    A    
C14   C26   S    
N2    N11   A    
C37   C64   A    
C3    Cl13  S    
C97   C107  A    
C38   C116  S    
C69   C72   A    
C13   H29   S    
C32   C51   A    
C5    C9    S    
C43   H1    S    
C59   C68   A    
H60   N35   S    
C88   N38   A    
C74   N40   A    
C93   N19   A    
C92   C104  A    
C7    C11   S    
C38   C54   A    
C80   C115  A    
N18   Ni6   S    
C10   C19   S    
N8    Ni4   S    
C46   C54   A    
C42   C72   A    
C9    Cl2   S    
C18   C104  S    
C5    C21   S    
C42   H63   S    
C51   N29   S    
C45   H12   S    
N1    N21   A    
C90   C115  A    
N3    Ni1   S    
C3    C19   S    
C110  C118  S    
C16   Cl8   S    
H49   N29   S    
C21   C107  S    
H44   N27   S    
N6    N16   A    
C12   C21   S    
C83   H9    S    
C33   Cl12  S    
C30   C49   A    
C1    C101  A    
C63   H43   S    
C31   C48   A    
C92   N18   A    
C90   N16   A    
C19   C28   S    
C34   C59   A    
C61   H41   S    
C96   H22   S    
C78   C113  A    
C32   C60   A    
C66   C105  A    
N4    Ni2   S    
C36   C61   A    
C78   N4    A    
C41   C50   A    
C20   C120  S    
C13   C120  S    
C76   N3    A    
H57   N32   S    
C4    Cl14  S    
C38   C63   A    
C12   C118  S    
C33   N12   A    
C92   H18   S    
C9    C110  S    
C5    Cl15  S    
N3    N10   A    
N13   Ni6   S    
C44   Cl18  S    
N11   Ni5   S    
N34   Ni1   S    
C31   C109  S    
N37   Ni4   S    
C2    C8    S    
C18   C27   S    
C95   N21   A    
C57   C65   A    
N10   Ni6   S    
N7    N15   A    
C27   H32   S    
N9    Ni5   S    
C4    C26   S    
C2    C119  S    
C91   C114  A    
C9    C18   S    
H59   N33   S    
N13   N40   A    
N39   Ni3   S    
C97   H24   S    
C84   N10   A    
N20   Ni6   S    
C8    C17   S    
C14   Cl6   S    
C87   H14   S    
C30   C111  S    
C67   C70   A    
C94   N20   A    
C14   C22   S    
H47   N28   S    
C49   N27   S    
C118  Cl9   S    
C65   C71   A    
C54   N35   S    
C29   H35   S    
C45   C65   A    
H53   N31   S    
N25   N37   A    
C47   C68   A    
C81   N7    A    
C98   N25   A    
C89   N15   A    
C26   H31   S    
N17   Ni8   S    
C7    C23   S    
C80   N6    A    
C30   C58   A    
C81   C116  A    
C63   C72   A    
C48   N28   S    
C37   C117  S    
C62   C71   A    
C35   C62   A    
C77   N37   A    
C17   C103  S    
H50   N29   S    
C90   H16   S    
C86   H13   S    
N8    N14   A    
N5    N17   A    
C6    C10   S    
C52   N32   S    
C41   C73   A    
C6    C25   S    
C85   C111  A    
C58   C67   A    
C79   N5    A    
C66   Cl20  S    
N21   Ni5   S    
C94   C102  A    
C77   Cl21  S    
C43   C67   A    
C14   C119  S    
C85   N11   A    
C79   C114  A    
N1    Ni1   S    
N6    Ni3   S    
C39   C71   A    
C91   H17   S    
C58   H36   S    
H46   N27   S    
C82   C117  A    
H61   N35   S    
N23   Ni2   S    
C99   N39   A    
N26   Ni7   S    
C64   H42   S    
N22   N39   A    
C95   C101  A    
N16   Ni7   S    
N26   N36   A    
C39   C48   A    
