data_mof_unit_981.cif
_audit_creation_date              2013-03-05T15:56:43-0500
_audit_creation_method            fapswitch 2.2
_symmetry_space_group_name_H-M    P1
_symmetry_Int_Tables_number       1
_space_group_crystal_system       triclinic
_cell_length_a                    21.322769
_cell_length_b                    21.340517
_cell_length_c                    13.694426
_cell_angle_alpha                 90.068093
_cell_angle_beta                  90.007331
_cell_angle_gamma                 90.000409
_cell_volume                      6231.49228756

loop_
_atom_site_label
_atom_site_type_symbol
_atom_site_description
_atom_site_fract_x
_atom_site_fract_y
_atom_site_fract_z
_atom_type_partial_charge
O1    O     O_R   0.064880 0.435140 0.582280 -0.590298
O2    O     O_R   0.935120 0.564860 0.417720 -0.590494
O3    O     O_R   0.935120 0.564860 0.582280 -0.590729
O4    O     O_R   0.064880 0.435140 0.417720 -0.590878
O5    O     O_R   0.935120 0.435140 0.417720 -0.590819
O6    O     O_R   0.064880 0.564860 0.582280 -0.590860
O7    O     O_R   0.064880 0.564860 0.417720 -0.590398
O8    O     O_R   0.935120 0.435140 0.582280 -0.590500
O9    O     O_R   0.564880 0.935140 0.582280 -0.590518
O10   O     O_R   0.435120 0.064860 0.417720 -0.590323
O11   O     O_R   0.435120 0.064860 0.582280 -0.590903
O12   O     O_R   0.564880 0.935140 0.417720 -0.590754
O13   O     O_R   0.435120 0.935140 0.417720 -0.590835
O14   O     O_R   0.564880 0.064860 0.582280 -0.590794
O15   O     O_R   0.564880 0.064860 0.417720 -0.590475
O16   O     O_R   0.435120 0.935140 0.582280 -0.590374
C1    C     C_R   0.085887 0.414354 0.499975 0.821261
C2    C     C_R   0.914112 0.585646 0.500023 0.821275
C3    C     C_R   0.914112 0.414355 0.499970 0.821287
C4    C     C_R   0.085888 0.585645 0.500031 0.821256
C5    C     C_R   0.585888 0.914355 0.499977 0.821275
C6    C     C_R   0.414112 0.085645 0.500025 0.821261
C7    C     C_R   0.414113 0.914355 0.499968 0.821257
C8    C     C_R   0.585888 0.085645 0.500030 0.821286
Cu1   Cu    Cu3+1 0.000000 0.500000 0.597420 0.936296
Cu2   Cu    Cu3+1 0.000000 0.500000 0.402580 0.936173
Cu3   Cu    Cu3+1 0.500000 0.000000 0.597420 0.936172
Cu4   Cu    Cu3+1 0.500000 1.000000 0.402580 0.936296
C9    C     C_R   0.155899 0.658921 0.588818 -0.245244
C10   C     C_R   0.841845 0.343494 0.588785 -0.244026
C11   C     C_R   0.842971 0.657648 0.411174 -0.244235
C12   C     C_R   0.156124 0.341318 0.411170 -0.245242
C13   C     C_R   0.658153 0.156509 0.411215 -0.244029
C14   C     C_R   0.344102 0.841078 0.411182 -0.245238
C15   C     C_R   0.343874 0.158680 0.588830 -0.245249
C16   C     C_R   0.657031 0.842355 0.588826 -0.244233
C17   C     C_R   0.134459 0.633920 0.500062 -0.074435
C18   C     C_R   0.865539 0.366080 0.499947 -0.074464
C19   C     C_R   0.865541 0.633923 0.500034 -0.074444
C20   C     C_R   0.134458 0.366078 0.499950 -0.074456
C21   C     C_R   0.634459 0.133922 0.500053 -0.074473
C22   C     C_R   0.365541 0.866079 0.499937 -0.074443
C23   C     C_R   0.365541 0.133921 0.500050 -0.074447
C24   C     C_R   0.634460 0.866079 0.499966 -0.074436
C25   C     C_R   0.159455 0.655207 0.411297 -0.243715
C26   C     C_R   0.842795 0.342380 0.411127 -0.245101
C27   C     C_R   0.841672 0.656486 0.588873 -0.244883
C28   C     C_R   0.159227 0.344548 0.588739 -0.243723
C29   C     C_R   0.657203 0.157622 0.588873 -0.245094
C30   C     C_R   0.340546 0.844792 0.588703 -0.243718
C31   C     C_R   0.340772 0.155450 0.411261 -0.243721
C32   C     C_R   0.658329 0.843516 0.411127 -0.244888
C33   C     C_R   0.205551 0.701473 0.410657 0.107945
C34   C     C_R   0.796735 0.296071 0.410530 0.107701
C35   C     C_R   0.795594 0.702775 0.589479 0.107785
C36   C     C_R   0.205318 0.298278 0.589375 0.107926
C37   C     C_R   0.703262 0.203932 0.589470 0.107696
C38   C     C_R   0.294450 0.798526 0.589344 0.107941
C39   C     C_R   0.294680 0.201720 0.410626 0.107930
C40   C     C_R   0.704408 0.797227 0.410521 0.107790
C41   C     C_R   0.226860 0.726668 0.500017 0.063469
C42   C     C_R   0.773138 0.273333 0.499988 0.063552
C43   C     C_R   0.773141 0.726670 0.500006 0.063455
C44   C     C_R   0.226859 0.273330 0.499987 0.063472
C45   C     C_R   0.726858 0.226670 0.500012 0.063554
C46   C     C_R   0.273141 0.773330 0.499984 0.063472
C47   C     C_R   0.273140 0.226668 0.500013 0.063470
C48   C     C_R   0.726861 0.773332 0.499995 0.063453
C49   C     C_R   0.201935 0.705253 0.589409 0.107611
C50   C     C_R   0.795773 0.297206 0.589422 0.107858
C51   C     C_R   0.796920 0.703956 0.410544 0.107822
C52   C     C_R   0.202165 0.294991 0.410573 0.107620
C53   C     C_R   0.704223 0.202798 0.410578 0.107854
C54   C     C_R   0.298066 0.794745 0.410591 0.107607
C55   C     C_R   0.297834 0.205007 0.589428 0.107626
C56   C     C_R   0.703083 0.796047 0.589456 0.107826
C57   C     C_R   0.230618 0.722996 0.322213 -0.209762
C58   C     C_R   0.773963 0.272077 0.322042 -0.210145
C59   C     C_R   0.771673 0.725607 0.677994 -0.210072
C60   C     C_R   0.230154 0.276506 0.677841 -0.209742
C61   C     C_R   0.726034 0.227927 0.677958 -0.210141
C62   C     C_R   0.269383 0.777002 0.677788 -0.209762
C63   C     C_R   0.269845 0.223492 0.322159 -0.209743
C64   C     C_R   0.728329 0.774396 0.322006 -0.210075
C65   C     C_R   0.772041 0.274353 0.677934 -0.209814
C66   C     C_R   0.223375 0.730577 0.677821 -0.210080
C67   C     C_R   0.223836 0.269916 0.322132 -0.210095
C68   C     C_R   0.774336 0.727971 0.322016 -0.209749
C69   C     C_R   0.276626 0.769421 0.322179 -0.210076
C70   C     C_R   0.727956 0.225651 0.322066 -0.209813
C71   C     C_R   0.725666 0.772032 0.677984 -0.209749
C72   C     C_R   0.276163 0.230082 0.677868 -0.210099
H1    H     H_    0.136703 0.642521 0.657528 0.155815
H2    H     H_    0.859224 0.361824 0.657550 0.153876
H3    H     H_    0.861251 0.640231 0.342387 0.154286
H4    H     H_    0.137111 0.357911 0.342440 0.155776
H5    H     H_    0.640774 0.138180 0.342450 0.153899
H6    H     H_    0.363299 0.857477 0.342472 0.155830
H7    H     H_    0.362887 0.142087 0.657560 0.155759
H8    H     H_    0.638752 0.859772 0.657613 0.154264
H9    H     H_    0.143118 0.635832 0.342595 0.153316
H10   H     H_    0.860943 0.359822 0.342361 0.155452
H11   H     H_    0.858916 0.638131 0.657654 0.155105
H12   H     H_    0.142709 0.363729 0.657463 0.153467
H13   H     H_    0.639056 0.140179 0.657639 0.155468
H14   H     H_    0.356882 0.864167 0.657405 0.153339
H15   H     H_    0.357290 0.136271 0.342537 0.153442
H16   H     H_    0.641084 0.861870 0.342347 0.155088
H17   H     H_    0.214622 0.703947 0.253160 0.143983
H18   H     H_    0.791747 0.289197 0.252912 0.143957
H19   H     H_    0.788560 0.707580 0.747137 0.143816
H20   H     H_    0.213978 0.295361 0.746916 0.143989
H21   H     H_    0.708250 0.210807 0.747088 0.143962
H22   H     H_    0.285379 0.796051 0.746840 0.143983
H23   H     H_    0.286021 0.204637 0.253084 0.143986
H24   H     H_    0.711442 0.792423 0.252864 0.143811
H25   H     H_    0.789077 0.292364 0.747046 0.144049
H26   H     H_    0.204549 0.714495 0.746900 0.144070
H27   H     H_    0.205190 0.286191 0.253036 0.144042
H28   H     H_    0.792269 0.710867 0.252882 0.144047
H29   H     H_    0.295453 0.785503 0.253100 0.144075
H30   H     H_    0.710919 0.207639 0.252954 0.144052
H31   H     H_    0.707733 0.789136 0.747118 0.144046
H32   H     H_    0.294808 0.213807 0.746965 0.144037
C73   C     C_R   0.055427 0.499549 0.792798 0.020184
C74   C     C_R   0.944573 0.500439 0.207202 0.019892
C75   C     C_R   0.944574 0.499427 0.792775 0.020152
C76   C     C_R   0.055425 0.500590 0.207224 0.020175
C77   C     C_R   0.555427 0.999493 0.792798 0.019897
C78   C     C_R   0.444574 0.000521 0.207202 0.020185
C79   C     C_R   0.444574 0.999478 0.792776 0.020167
C80   C     C_R   0.555427 0.000503 0.207225 0.020152
N1    N     N_R   0.000000 0.500000 0.743810 -0.192263
N2    N     N_R   0.000000 0.500000 0.256190 -0.192328
N3    N     N_R   0.500000 0.000000 0.743810 -0.192327
N4    N     N_R   0.500000 0.000000 0.256190 -0.192263
C81   C     C_R   0.942585 0.498634 0.896262 -0.035801
C82   C     C_R   0.057413 0.501385 0.103737 -0.035855
C83   C     C_R   0.057417 0.498780 0.896287 -0.035881
C84   C     C_R   0.942581 0.501221 0.103713 -0.035893
C85   C     C_R   0.442585 0.998691 0.896264 -0.035864
C86   C     C_R   0.557417 0.001290 0.103738 -0.035797
C87   C     C_R   0.557417 0.998705 0.896286 -0.035891
C88   C     C_R   0.442585 0.001296 0.103714 -0.035890
C89   C     C_R   0.999999 0.499831 0.948253 -0.011292
C90   C     C_R   0.999999 0.500179 0.051746 -0.011262
C91   C     C_R   0.500001 0.999822 0.948254 -0.011259
C92   C     C_R   0.500001 0.000169 0.051747 -0.011291
C93   C     C_R   0.884911 0.496629 0.948193 0.176651
C94   C     C_R   0.115086 0.503400 0.051803 0.176727
C95   C     C_R   0.115096 0.496943 0.948244 0.176631
C96   C     C_R   0.884902 0.503065 0.051756 0.176292
C97   C     C_R   0.384910 0.996758 0.948197 0.176710
C98   C     C_R   0.615093 0.003215 0.051806 0.176644
C99   C     C_R   0.615093 0.996780 0.948243 0.176301
C100  C     C_R   0.384909 0.003214 0.051757 0.176636
H33   H     H_    0.097889 0.500773 0.749862 0.143357
H34   H     H_    0.902112 0.499197 0.250139 0.143505
H35   H     H_    0.902110 0.500568 0.749821 0.143076
H36   H     H_    0.097891 0.499456 0.250175 0.143306
H37   H     H_    0.597889 0.000686 0.749861 0.143506
H38   H     H_    0.402110 0.999348 0.250137 0.143352
H39   H     H_    0.402110 0.000659 0.749825 0.143306
H40   H     H_    0.597889 0.999310 0.250179 0.143077
C101  C     C_3   0.824333 0.484225 0.893107 -0.899833
H41   H     H_    0.831328 0.446193 0.838776 0.218248
H42   H     H_    0.786201 0.466489 0.940497 0.247646
H43   H     H_    0.808725 0.527509 0.855340 0.230091
C102  C     C_3   0.175661 0.515842 0.106873 -0.899826
H44   H     H_    0.168650 0.553851 0.161234 0.217759
H45   H     H_    0.191317 0.472563 0.144596 0.230696
H46   H     H_    0.213762 0.533626 0.059469 0.247591
C103  C     C_3   0.175710 0.484706 0.893192 -0.899660
H47   H     H_    0.213907 0.467135 0.940616 0.247609
H48   H     H_    0.168836 0.446619 0.838917 0.217889
H49   H     H_    0.191170 0.528016 0.855362 0.230674
C104  C     C_3   0.824288 0.515294 0.106814 -0.899212
H50   H     H_    0.786104 0.532915 0.059407 0.247594
H51   H     H_    0.808807 0.471967 0.144578 0.230322
H52   H     H_    0.831171 0.553349 0.161142 0.218629
C105  C     C_3   0.324316 0.984404 0.893126 -0.899777
H53   H     H_    0.286179 0.966694 0.940530 0.247586
H54   H     H_    0.308736 0.027703 0.855375 0.230666
H55   H     H_    0.331270 0.946371 0.838786 0.217777
C106  C     C_3   0.675691 0.015528 0.106890 -0.899861
H56   H     H_    0.713845 0.033214 0.059501 0.247659
H57   H     H_    0.668755 0.053564 0.161230 0.218270
H58   H     H_    0.691239 0.972219 0.144642 0.230086
C107  C     C_3   0.675690 0.984464 0.893185 -0.899231
H59   H     H_    0.713845 0.966783 0.940591 0.247594
H60   H     H_    0.668751 0.946424 0.838849 0.218611
H61   H     H_    0.691237 0.027771 0.855429 0.230341
C108  C     C_3   0.324314 0.015542 0.106812 -0.899584
H62   H     H_    0.286139 0.033170 0.059387 0.247583
H63   H     H_    0.308792 0.972254 0.144652 0.230670
H64   H     H_    0.331249 0.053624 0.161084 0.217858

loop_
_geom_bond_atom_site_label_1
_geom_bond_atom_site_label_2
_geom_bond_distance
_ccdc_geom_bond_type
C63   C67   1.394259 A    
C73   C83   1.417964 A    
C60   C72   1.394259 A    
C101  H41   1.110471 S    
C95   C103  1.518831 S    
O2    C2    1.291005 A    
C70   H30   1.083755 S    
C102  H44   1.110443 S    
C91   C92   1.417293 A    
C14   C22   1.403311 A    
C88   C92   1.416351 A    
O9    C5    1.291004 A    
C15   C23   1.403354 A    
C89   C90   1.417293 A    
C82   C94   1.421335 A    
C45   C53   1.410981 A    
C12   C52   1.393285 A    
C103  H47   1.107329 S    
O10   C6    1.291027 A    
C87   C91   1.416347 A    
C26   H10   1.084448 S    
C74   C84   1.417972 A    
C64   H24   1.083975 S    
C7    C22   1.460815 S    
C32   C40   1.393281 A    
O12   Cu4   1.968080 S    
C54   C69   1.401874 A    
C81   C89   1.416354 A    
C39   C63   1.401860 A    
C53   C70   1.401682 A    
C79   N3    1.358953 A    
C38   C62   1.401837 A    
C73   H33   1.079966 S    
C106  H57   1.110447 S    
C94   C102  1.518826 S    
C78   H38   1.079968 S    
C85   C97   1.421338 A    
C73   N1    1.358952 A    
C46   C54   1.411176 A    
C29   C37   1.393285 A    
C42   C50   1.410980 A    
O3    C2    1.291279 A    
C20   C28   1.403436 A    
O14   C8    1.291287 A    
C96   C104  1.518826 S    
C107  H60   1.110449 S    
C76   C82   1.417958 A    
C16   C56   1.393168 A    
C39   C47   1.411195 A    
C77   N3    1.358951 A    
C33   C41   1.411161 A    
C41   C46   1.401950 A    
C38   C46   1.411162 A    
C106  H56   1.107333 S    
C104  H51   1.110196 S    
C35   C43   1.411348 A    
C36   C44   1.411195 A    
O13   Cu4   1.968104 S    
O11   Cu3   1.968080 S    
O14   Cu3   1.968101 S    
C68   H28   1.084004 S    
Cu1   N1    2.004727 S    
C84   C96   1.421356 A    
C59   C71   1.394246 A    
C26   C34   1.393283 A    
C79   C85   1.417961 A    
O9    Cu3   1.967770 S    
C24   C32   1.403477 A    
O16   Cu3   1.967721 S    
C74   H34   1.079960 S    
C27   C35   1.393281 A    
C25   C33   1.393195 A    
C101  H42   1.107364 S    
C71   H31   1.084004 S    
O1    Cu1   1.967770 S    
C8    C21   1.460829 S    
C102  H45   1.110155 S    
C81   C93   1.421338 A    
C15   H7    1.084586 S    
C21   C29   1.403162 A    
C10   C50   1.393163 A    
O13   C7    1.291267 A    
C9    C49   1.393296 A    
C105  H54   1.110188 S    
C80   C86   1.417963 A    
C98   C106  1.518845 S    
O8    C3    1.290985 A    
C27   H11   1.084714 S    
C30   C38   1.393193 A    
C44   C47   1.401949 A    
C63   H23   1.083906 S    
O3    Cu1   1.968080 S    
C93   C101  1.518840 S    
C13   C21   1.403283 A    
C62   H22   1.083887 S    
C66   H26   1.083836 S    
C93   C96   1.424715 A    
C84   C90   1.416352 A    
C106  H58   1.110181 S    
C29   H13   1.084450 S    
C34   C42   1.411031 A    
C108  H63   1.110251 S    
Cu1   Cu2   2.668221 S    
C105  H53   1.107365 S    
O12   C5    1.291278 A    
C58   C70   1.394248 A    
O5    Cu2   1.968104 S    
C1    C20   1.460832 S    
C88   C100  1.421338 A    
C107  H61   1.110186 S    
C33   C57   1.401834 A    
C2    C19   1.460847 S    
C80   H40   1.079965 S    
C67   H27   1.083858 S    
Cu2   N2    2.004727 S    
C3    C18   1.460829 S    
C76   N2    1.358951 A    
C5    C24   1.460844 S    
C35   C59   1.402022 A    
C87   C99   1.421349 A    
C6    C23   1.460832 S    
C79   H39   1.079967 S    
C80   N4    1.358946 A    
C104  H52   1.110455 S    
C15   C55   1.393282 A    
C60   H20   1.083907 S    
C77   H37   1.079961 S    
C58   H18   1.083717 S    
C48   C56   1.411292 A    
C86   C98   1.421339 A    
C97   C100  1.424705 A    
C57   H17   1.083886 S    
O7    Cu2   1.967718 S    
C86   C92   1.416355 A    
C40   C48   1.411348 A    
C98   C99   1.424715 A    
C103  H48   1.110453 S    
C25   H9    1.084644 S    
C55   C72   1.401904 A    
C22   C30   1.403416 A    
C77   C87   1.417971 A    
O4    C1    1.291247 A    
C13   C53   1.393166 A    
O15   C8    1.290987 A    
C12   H4    1.084587 S    
C43   C51   1.411293 A    
O7    C4    1.290999 A    
C101  H43   1.110210 S    
C12   C20   1.403352 A    
C9    C17   1.403311 A    
C102  H46   1.107331 S    
C37   C61   1.401703 A    
C16   C24   1.403591 A    
C65   H25   1.083754 S    
C31   C39   1.393204 A    
C17   C25   1.403411 A    
C75   H35   1.079967 S    
C52   C67   1.401904 A    
C78   C88   1.417961 A    
C76   H36   1.079968 S    
C19   C27   1.403481 A    
C75   N1    1.358947 A    
C103  H49   1.110172 S    
O10   Cu4   1.967770 S    
C28   C36   1.393206 A    
C43   C48   1.401931 A    
C83   C89   1.416356 A    
C105  H55   1.110463 S    
C42   C45   1.401932 A    
Cu4   N4    2.004727 S    
C57   C69   1.394260 A    
C104  H50   1.107355 S    
C78   N4    1.358952 A    
C64   C68   1.394244 A    
C97   C105  1.518835 S    
O2    Cu2   1.967770 S    
O4    Cu2   1.968080 S    
C16   H8    1.084751 S    
O5    C3    1.291287 A    
O16   C7    1.290999 A    
O6    C4    1.291267 A    
O11   C6    1.291246 A    
O1    C1    1.291028 A    
C36   C60   1.401861 A    
C59   H19   1.083976 S    
C41   C49   1.411174 A    
C72   H32   1.083857 S    
C100  C108  1.518829 S    
Cu3   N3    2.004727 S    
C10   H2    1.084505 S    
C62   C66   1.394260 A    
O8    Cu1   1.967721 S    
C108  H64   1.110508 S    
C9    H1    1.084566 S    
C4    C17   1.460812 S    
C40   C64   1.402022 A    
C23   C31   1.403433 A    
O15   Cu4   1.967718 S    
C69   H29   1.083837 S    
C82   C90   1.416355 A    
C11   H3    1.084753 S    
C83   C95   1.421339 A    
C14   H6    1.084567 S    
C11   C19   1.403593 A    
C13   H5    1.084506 S    
C44   C52   1.411191 A    
C107  H59   1.107342 S    
C18   C26   1.403158 A    
C99   C107  1.518826 S    
C85   C91   1.416356 A    
C56   C71   1.402009 A    
C51   C68   1.402009 A    
O6    Cu1   1.968101 S    
C47   C55   1.411191 A    
C74   N2    1.358955 A    
C31   H15   1.084660 S    
C108  H62   1.107407 S    
C61   H21   1.083718 S    
Cu3   Cu4   2.668221 S    
C30   H14   1.084644 S    
C94   C95   1.424702 A    
C32   H16   1.084712 S    
C14   C54   1.393296 A    
C75   C81   1.417960 A    
C10   C18   1.403281 A    
C34   C58   1.401705 A    
C50   C65   1.401683 A    
C61   C65   1.394250 A    
C49   C66   1.401875 A    
C11   C51   1.393170 A    
C37   C45   1.411031 A    
C28   H12   1.084660 S    
