data_mof_unit_1065.cif
_audit_creation_date              2012-12-10T18:59:19-0500
_audit_creation_method            fapswitch 2.2
_symmetry_space_group_name_H-M    P1
_symmetry_Int_Tables_number       1
_space_group_crystal_system       triclinic
_cell_length_a                    9.834346
_cell_length_b                    10.717789
_cell_length_c                    17.013752
_cell_angle_alpha                 89.360639
_cell_angle_beta                  93.074383
_cell_angle_gamma                 90.023235
_cell_volume                      1790.59854642

loop_
_atom_site_label
_atom_site_type_symbol
_atom_type_description
_atom_site_fract_x
_atom_site_fract_y
_atom_site_fract_z
_atom_type_partial_charge
C1    C     C_R   0.499941 0.259860 0.500051 0.871573
C2    C     C_R   0.076593 0.424672 0.550836 0.668094
C3    C     C_R   0.516267 0.498340 0.652855 0.884449
C4    C     C_R   0.483733 0.501659 0.347145 0.884449
C5    C     C_R   0.525010 0.499098 0.738013 -0.065366
C6    C     C_R   0.474990 0.500897 0.261987 -0.065366
C7    C     C_R   0.409282 0.523872 0.779027 -0.210008
C8    C     C_R   0.590717 0.476119 0.220973 -0.210009
C9    C     C_R   0.418949 0.527327 0.860074 -0.195154
C10   C     C_R   0.581049 0.472658 0.139926 -0.195154
C11   C     C_R   0.544788 0.504404 0.901524 0.280524
C12   C     C_R   0.500058 0.740140 0.499949 0.871572
C13   C     C_R   0.455210 0.495579 0.098476 0.280524
C14   C     C_R   0.662784 0.481196 0.860454 0.099110
C15   C     C_R   0.337214 0.518791 0.139546 0.099110
C16   C     C_R   0.650655 0.477795 0.778290 -0.224382
C17   C     C_R   0.349344 0.522197 0.221710 -0.224382
C18   C     C_R   0.380044 0.063576 0.515000 -0.166748
C19   C     C_R   0.619956 0.936424 0.485000 -0.166748
C20   C     C_3   0.798866 0.462356 0.905923 -0.432406
C21   C     C_3   0.919243 0.427799 0.856139 -0.342057
C22   C     C_3   0.050289 0.411544 0.907059 -0.884450
C23   C     C_R   0.380078 0.935761 0.514942 -0.197256
C24   C     C_3   0.201133 0.537629 0.094077 -0.432406
C25   C     C_3   0.080755 0.572186 0.143860 -0.342057
C26   C     C_3   0.949709 0.588438 0.092940 -0.884451
C27   C     C_R   0.619922 0.064239 0.485058 -0.197256
C28   C     C_R   0.500040 0.872576 0.499956 -0.025411
C29   C     C_R   0.499960 0.127423 0.500044 -0.025411
C30   C     C_R   0.067340 0.575285 0.449171 -0.317978
C31   C     C_R   0.932660 0.424715 0.550829 -0.317978
C32   C     C_R   0.923407 0.575328 0.449164 0.668094
F1    F     F_    0.850729 0.650921 0.398247 -0.664798
F2    F     F_    0.149271 0.349079 0.601753 -0.664798
H1    H     H_    0.688442 0.458041 0.251423 0.183359
H2    H     H_    0.713074 0.113174 0.472932 0.165443
H3    H     H_    0.118326 0.635405 0.408575 0.185774
H4    H     H_    0.881674 0.364595 0.591424 0.185774
H5    H     H_    0.079876 0.501984 0.934070 0.258755
H6    H     H_    0.036748 0.340226 0.953858 0.263693
H7    H     H_    0.133284 0.380733 0.869993 0.265600
H8    H     H_    0.896816 0.338916 0.824944 0.233673
H9    H     H_    0.936573 0.503036 0.812281 0.226081
H10   H     H_    0.823848 0.550536 0.937114 0.213313
H11   H     H_    0.786799 0.387178 0.950599 0.209353
H12   H     H_    0.311557 0.541951 0.748578 0.183360
H13   H     H_    0.963249 0.659755 0.046140 0.263693
H14   H     H_    0.920123 0.497997 0.065931 0.258755
H15   H     H_    0.866714 0.619250 0.130006 0.265600
H16   H     H_    0.063427 0.496951 0.187720 0.226081
H17   H     H_    0.103182 0.661071 0.175053 0.233673
H18   H     H_    0.213199 0.612804 0.049400 0.209352
H19   H     H_    0.176151 0.449447 0.062887 0.213313
H20   H     H_    0.672231 0.451292 0.109780 0.156799
H21   H     H_    0.327767 0.548691 0.890221 0.156799
H22   H     H_    0.738214 0.458734 0.744701 0.159962
H23   H     H_    0.261786 0.541261 0.255298 0.159962
H24   H     H_    0.286892 0.111974 0.527178 0.190976
H25   H     H_    0.713108 0.888026 0.472822 0.190976
H26   H     H_    0.286926 0.886826 0.527068 0.165443
N1    N     N_2   0.555758 0.504190 0.984519 -0.208509
N2    N     N_2   0.444241 0.495791 0.015482 -0.208509
N3    N     N_R   0.857210 0.499970 0.500020 -0.153859
N4    N     N_R   0.142790 0.500030 0.499980 -0.153859
O1    O     O_R   0.614620 0.316750 0.500010 -0.635520
O2    O     O_R   0.385380 0.683250 0.499990 -0.635519
O3    O     O_R   0.385290 0.316780 0.500000 -0.582307
O4    O     O_R   0.614710 0.683220 0.500000 -0.582306
O5    O     O_R   0.627460 0.498830 0.616130 -0.636167
O6    O     O_R   0.372540 0.501170 0.383870 -0.636167
O7    O     O_R   0.398130 0.498850 0.616130 -0.573132
O8    O     O_R   0.601870 0.501150 0.383870 -0.573131
Zn1   Zn    Zn3+2 0.653130 0.499980 0.500000 0.998976
Zn2   Zn    Zn3+2 0.346870 0.500020 0.500000 0.998976

loop_
_geom_bond_atom_site_label_1
_geom_bond_atom_site_label_2
_ccdc_geom_bond_type
O6    Zn2   S    
O7    Zn2   S    
C3    O7    A    
C25   H17   S    
C19   H25   S    
C24   H18   S    
C9    H21   S    
C30   N4    A    
C27   H2    S    
C27   C29   A    
C19   C27   A    
C2    C31   A    
C1    O1    A    
C20   H11   S    
C31   H4    S    
C26   H14   S    
C3    C5    S    
C25   C26   S    
C22   H6    S    
C32   F1    S    
C12   O4    A    
C16   H22   S    
C24   H19   S    
C5    C7    A    
C10   C13   A    
C18   C29   A    
C21   H9    S    
C21   C22   S    
C24   C25   S    
C30   C32   A    
C19   C28   A    
C9    C11   A    
C2    F2    S    
C1    C29   S    
N1    N2    D    
C26   H13   S    
C12   C28   S    
C22   H5    S    
C4    O6    A    
O5    Zn1   S    
C1    O3    A    
C2    N4    A    
C20   H10   S    
C7    C9    A    
C13   C15   A    
C23   H26   S    
C10   H20   S    
C11   C14   A    
C14   C16   A    
C22   H7    S    
C15   C17   A    
C18   C23   A    
O2    Zn2   S    
C7    H12   S    
C31   N3    A    
C4    O8    A    
O1    Zn1   S    
C20   C21   S    
C32   N3    A    
C14   C20   S    
C8    C10   A    
C4    C6    S    
C26   H15   S    
O3    Zn2   S    
C6    C17   A    
N4    Zn2   S    
C25   H16   S    
C15   C24   S    
C5    C16   A    
C6    C8    A    
N3    Zn1   S    
C3    O5    A    
O4    Zn1   S    
C23   C28   A    
C12   O2    A    
C18   H24   S    
C13   N2    S    
C21   H8    S    
C30   H3    S    
C17   H23   S    
O8    Zn1   S    
C11   N1    S    
C8    H1    S    
