data_mof_unit_3315.cif
_audit_creation_date              2013-03-05T15:57:28-0500
_audit_creation_method            fapswitch 2.2
_symmetry_space_group_name_H-M    P1
_symmetry_Int_Tables_number       1
_space_group_crystal_system       triclinic
_cell_length_a                    13.798612
_cell_length_b                    15.06844
_cell_length_c                    15.77102
_cell_angle_alpha                 88.518186
_cell_angle_beta                  70.304773
_cell_angle_gamma                 88.978724
_cell_volume                      3086.15382823

loop_
_atom_site_label
_atom_site_type_symbol
_atom_site_description
_atom_site_fract_x
_atom_site_fract_y
_atom_site_fract_z
_atom_type_partial_charge
O1    O     O_R   0.417730 0.629750 0.499970 -0.556583
O2    O     O_R   0.582270 0.370250 0.500030 -0.556373
O3    O     O_R   0.582270 0.629730 0.499980 -0.556801
O4    O     O_R   0.417730 0.370270 0.500020 -0.553345
C1    C     C_R   0.500054 0.671248 0.498400 0.861026
C2    C     C_R   0.499920 0.328754 0.501707 0.866984
O5    O     O_R   0.371590 0.500020 0.629830 -0.536216
O6    O     O_R   0.628410 0.499980 0.370170 -0.531150
O7    O     O_R   0.536130 0.499990 0.629840 -0.572218
O8    O     O_R   0.463870 0.500010 0.370160 -0.571146
C3    C     C_R   0.437304 0.498920 0.672422 0.878572
C4    C     C_R   0.562693 0.501019 0.327510 0.870143
Cu1   Cu    Cu3+1 0.402580 0.500010 0.499990 1.064589
Cu2   Cu    Cu3+1 0.597420 0.499990 0.500010 1.066716
C5    C     C_R   0.399197 0.497868 0.771578 -0.221390
C6    C     C_R   0.599607 0.510117 0.228508 -0.221810
C7    C     C_R   0.265008 0.469556 0.915620 0.247371
C8    C     C_R   0.731978 0.545851 0.085389 0.242469
C9    C     C_R   0.298128 0.473525 0.821286 0.577277
C10   C     C_R   0.702222 0.529689 0.178623 0.576044
C11   C     C_R   0.467341 0.517245 0.816393 -0.243057
C12   C     C_R   0.528602 0.502200 0.184071 -0.225969
C13   C     C_R   0.435874 0.518580 0.910822 0.041384
C14   C     C_R   0.552850 0.526117 0.092759 0.045042
C15   C     C_R   0.331896 0.497161 0.961506 -0.166431
C16   C     C_R   0.655811 0.551020 0.042851 -0.158444
C17   C     C_R   0.507123 0.536705 0.955665 0.063153
C18   C     C_R   0.477111 0.523755 0.049925 0.053982
C19   C     C_R   0.371440 0.513066 0.098951 -0.197547
C20   C     C_R   0.606260 0.570365 0.909677 -0.204506
C21   C     C_R   0.298752 0.503621 0.056316 0.363653
C22   C     C_R   0.678624 0.580844 0.952504 0.374841
H1    H     H_    0.454117 0.476322 0.222666 0.194894
H2    H     H_    0.546239 0.528599 0.775585 0.204921
H3    H     H_    0.341745 0.518183 0.171201 0.204371
H4    H     H_    0.627346 0.595702 0.841402 0.171317
C23   C     C_R   0.407624 0.186089 0.547621 0.611198
C24   C     C_R   0.592344 0.813924 0.452771 0.606805
C25   C     C_R   0.499548 0.231969 0.504760 -0.177825
C26   C     C_R   0.500427 0.768038 0.495634 -0.174583
C27   C     C_R   0.590928 0.185735 0.462851 -0.210175
C28   C     C_R   0.409149 0.814254 0.537937 -0.210561
C29   C     C_R   0.591338 0.093564 0.460438 0.065009
C30   C     C_R   0.408762 0.906422 0.540439 0.065042
C31   C     C_R   0.499511 0.046554 0.502720 -0.012607
C32   C     C_R   0.500572 0.953438 0.498101 -0.012558
C33   C     C_R   0.406847 0.092685 0.549264 -0.113154
C34   C     C_R   0.593216 0.907318 0.451465 -0.112103
C35   C     C_R   0.682231 0.048353 0.414042 -0.192979
C36   C     C_R   0.317914 0.951624 0.586966 -0.193562
C37   C     C_R   0.684002 0.956135 0.407436 0.346048
C38   C     C_R   0.316127 0.043856 0.593501 0.345262
H5    H     H_    0.661203 0.221894 0.429018 0.203924
H6    H     H_    0.338920 0.778080 0.571891 0.201698
H7    H     H_    0.751953 0.085196 0.380153 0.196380
H8    H     H_    0.248242 0.914761 0.620979 0.196295
C39   C     C_R   0.225302 0.562269 0.447820 0.461955
C40   C     C_R   0.774806 0.438348 0.552617 0.466681
N1    N     N_R   0.256170 0.500070 0.500040 -0.260984
N2    N     N_R   0.743830 0.499930 0.499960 -0.260863
C41   C     C_R   0.187634 0.440127 0.551984 0.077360
C42   C     C_R   0.811915 0.560538 0.448573 0.082876
C43   C     C_R   0.084818 0.440005 0.553651 -0.052959
C44   C     C_R   0.914583 0.561373 0.447326 -0.052553
C45   C     C_R   0.051934 0.500994 0.499486 0.039973
C46   C     C_R   0.947617 0.500715 0.501573 0.037612
C47   C     C_R   0.122863 0.562649 0.444137 -0.182562
C48   C     C_R   0.876447 0.439864 0.557734 -0.178467
C49   C     C_R   0.013910 0.381259 0.610688 -0.146960
C50   C     C_R   0.984614 0.621746 0.392100 -0.130956
C51   C     C_R   0.910553 0.381923 0.615370 0.351105
C52   C     C_R   0.087336 0.622984 0.389066 0.356512
H9    H     H_    0.212710 0.393268 0.593701 0.225734
H10   H     H_    0.786607 0.607422 0.407030 0.220419
H11   H     H_    0.037907 0.336471 0.654970 0.216147
H12   H     H_    0.959924 0.668009 0.349436 0.214010
N3    N     N_R   0.191564 0.507857 0.110270 0.178020
O9    O     O_R   0.159104 0.468932 0.189330 -0.297608
O10   O     O_R   0.130381 0.563058 0.087691 -0.226257
N4    N     N_R   0.770654 0.629142 0.905183 0.162388
O11   O     O_R   0.818404 0.616043 0.819887 -0.287107
O12   O     O_R   0.796103 0.696692 0.942716 -0.259846
N5    N     N_R   0.293706 0.632262 0.403638 0.154506
O13   O     O_R   0.277148 0.711349 0.437142 -0.319400
O14   O     O_R   0.356364 0.622727 0.321735 -0.325309
N6    N     N_R   0.709352 0.365208 0.592975 0.152830
O15   O     O_R   0.639225 0.372480 0.671906 -0.298440
O16   O     O_R   0.733760 0.286669 0.559353 -0.325512
N7    N     N_R   0.840765 0.328900 0.685195 0.172685
O17   O     O_R   0.781560 0.367477 0.757413 -0.266748
O18   O     O_R   0.856443 0.243644 0.687919 -0.234901
N8    N     N_R   0.153756 0.684435 0.326568 0.175155
O19   O     O_R   0.138379 0.769102 0.340146 -0.236730
O20   O     O_R   0.206078 0.658072 0.246016 -0.269616
F1    F     F_    0.774545 0.529577 0.219540 -0.584039
F2    F     F_    0.233893 0.446353 0.778226 -0.587747
N9    N     N_R   0.168634 0.427420 0.962640 0.193551
O21   O     O_R   0.087570 0.446892 0.941127 -0.157681
O22   O     O_R   0.165902 0.359558 0.016115 -0.259671
N10   N     N_R   0.839935 0.548247 0.034085 0.195214
O23   O     O_R   0.902937 0.592060 0.062614 -0.162241
O24   O     O_R   0.877205 0.496776 0.965399 -0.231077
F3    F     F_    0.319466 0.233279 0.585677 -0.615792
F4    F     F_    0.680400 0.766734 0.414307 -0.621202
N11   N     N_R   0.777579 0.914411 0.352602 0.182599
O25   O     O_R   0.864382 0.934358 0.362645 -0.269486
O26   O     O_R   0.779235 0.873068 0.280680 -0.228059
N12   N     N_R   0.222658 0.085574 0.648560 0.182815
O27   O     O_R   0.135593 0.065070 0.639318 -0.269015
O28   O     O_R   0.221506 0.127534 0.720005 -0.223674

loop_
_geom_bond_atom_site_label_1
_geom_bond_atom_site_label_2
_geom_bond_distance
_ccdc_geom_bond_type
C15   C21   1.414008 A    
C46   C48   1.411907 A    
C43   C45   1.409265 A    
C16   C22   1.414527 A    
C8    C16   1.424900 A    
C35   C37   1.395335 A    
N9    O21   1.300531 A    
C25   C27   1.393870 A    
N3    O9    1.301689 A    
C5    C9    1.400182 A    
N11   O26   1.301455 A    
C8    N10   1.436324 S    
O1    C1    1.299073 A    
C6    C10   1.401019 A    
C24   C26   1.404598 A    
C14   C16   1.424359 A    
C52   N8    1.429360 S    
N6    O16   1.301167 A    
C39   N1    1.385782 A    
C40   N2    1.385170 A    
N12   O27   1.301380 A    
N2    C42   1.361097 A    
C47   C52   1.432298 A    
O4    Cu1   1.962421 S    
C49   C51   1.402904 A    
N8    O19   1.300924 A    
C42   C44   1.410447 A    
C3    C5    1.472059 S    
C34   C37   1.418704 A    
C43   C49   1.395175 A    
C45   C47   1.413355 A    
C36   C38   1.395425 A    
C39   N5    1.429315 S    
C44   C50   1.393939 A    
C23   C33   1.407191 A    
C24   C34   1.407114 A    
O6    C4    1.298219 A    
C26   C28   1.393850 A    
Cu1   Cu2   2.688623 S    
C17   C20   1.411216 A    
C27   C29   1.390236 A    
O2    C2    1.298882 A    
C28   C30   1.390267 A    
C39   C47   1.434049 A    
C40   N6    1.430808 S    
N10   O24   1.301225 A    
N9    O22   1.301407 A    
C30   C32   1.410680 A    
C21   N3    1.437653 S    
C31   C33   1.420911 A    
C32   C34   1.420962 A    
N1    C41   1.360625 A    
C4    C6    1.473588 S    
N4    O12   1.301443 A    
C23   F3    1.358222 S    
N6    O15   1.299739 A    
C29   C35   1.396171 A    
C11   H2    1.075815 S    
O6    Cu2   1.945706 S    
C41   H9    1.082525 S    
C31   C32   1.406453 A    
C36   H8    1.084696 S    
C44   C46   1.408082 A    
O5    C3    1.297360 A    
O7    Cu2   1.934041 S    
C22   N4    1.437118 S    
O7    C3    1.301457 A    
N5    O13   1.301189 A    
C51   N7    1.430202 S    
C5    C11   1.391885 A    
C37   N11   1.434206 S    
N8    O20   1.300224 A    
N3    O10   1.301426 A    
C29   C31   1.410672 A    
C27   H5    1.084867 S    
O3    Cu2   1.962421 S    
O8    C4    1.301572 A    
O4    C2    1.293234 A    
N5    O14   1.299634 A    
C10   F1    1.358783 S    
C13   C17   1.424607 A    
C11   C13   1.404339 A    
C50   H12   1.084701 S    
C12   C14   1.402971 A    
N7    O18   1.300984 A    
C40   C48   1.432340 A    
C12   H1    1.076688 S    
C18   C19   1.411343 A    
C6    C12   1.391633 A    
C41   C43   1.410111 A    
C14   C18   1.424171 A    
N4    O11   1.301668 A    
O3    C1    1.293050 A    
O8    Cu1   1.934041 S    
C24   F4    1.358194 S    
C33   C38   1.418716 A    
Cu1   N1    2.019973 S    
Cu2   N2    2.019975 S    
N11   O25   1.301234 A    
C19   H3    1.077452 S    
C20   H4    1.077664 S    
C7    C15   1.424074 A    
C23   C25   1.404611 A    
C35   H7    1.084677 S    
C28   H6    1.084852 S    
C20   C22   1.394243 A    
C48   C51   1.429202 A    
N10   O23   1.301365 A    
C7    C9    1.401404 A    
N12   O28   1.301553 A    
C49   H11   1.084600 S    
C8    C10   1.402891 A    
C13   C15   1.425406 A    
O2    Cu2   1.969805 S    
O5    Cu1   1.945708 S    
O1    Cu1   1.969807 S    
C38   N12   1.434256 S    
C30   C36   1.396145 A    
C19   C21   1.393927 A    
C45   C46   1.428745 A    
C1    C26   1.458040 S    
C17   C18   1.411530 A    
C2    C25   1.457997 S    
C42   H10   1.082483 S    
C50   C52   1.402458 A    
N7    O17   1.301026 A    
C7    N9    1.436151 S    
C9    F2    1.359215 S    
