data_mof_unit_4399.cif
_audit_creation_date              2012-12-10T17:10:28-0500
_audit_creation_method            fapswitch 2.2
_symmetry_space_group_name_H-M    P1
_symmetry_Int_Tables_number       1
_space_group_crystal_system       triclinic
_cell_length_a                    10.777177
_cell_length_b                    13.209665
_cell_length_c                    11.683934
_cell_angle_alpha                 99.868593
_cell_angle_beta                  94.847126
_cell_angle_gamma                 87.645309
_cell_volume                      1632.28631297

loop_
_atom_site_label
_atom_site_type_symbol
_atom_type_description
_atom_site_fract_x
_atom_site_fract_y
_atom_site_fract_z
_atom_type_partial_charge
C1    C     C_R   0.501598 0.298484 0.479271 0.879771
C2    C     C_R   0.504918 0.700549 0.521956 0.857830
C3    C     C_R   0.508617 0.813581 0.537321 -0.237029
C4    C     C_R   0.507724 0.184125 0.469668 -0.234856
C5    C     C_R   0.548402 0.014212 0.358032 -0.258646
C6    C     C_R   0.460115 0.980495 0.647094 -0.299179
C7    C     C_R   0.554492 0.121058 0.371277 0.393540
C8    C     C_R   0.482739 0.874776 0.645076 0.432532
C9    C     C_R   0.475048 0.136729 0.562917 0.374766
C10   C     C_R   0.538377 0.860474 0.443725 0.401504
C11   C     C_R   0.482995 0.028184 0.553035 -0.050841
C12   C     C_R   0.521238 0.967222 0.450465 -0.049181
C13   C     C_R   0.359712 0.433306 0.023362 -0.363672
C14   C     C_R   0.627712 0.582064 0.979795 -0.366227
C15   C     C_R   0.381129 0.428495 0.142896 0.177901
C16   C     C_R   0.614720 0.576521 0.857821 0.183849
C17   C     C_R   0.556115 0.533581 0.157293 0.076454
C18   C     C_R   0.436536 0.474873 0.843994 0.006586
C19   C     C_R   0.543940 0.532425 0.035176 0.058546
C20   C     C_R   0.444877 0.480997 0.967113 0.063428
C21   C     C_R   0.262286 0.516103 0.500698 0.822453
C22   C     C_R   0.739274 0.487711 0.497643 0.770281
C23   C     C_R   0.115154 0.598826 0.708658 -0.019142
C24   C     C_R   0.885666 0.432058 0.268714 -0.056940
C25   C     C_R   0.070594 0.582998 0.813315 -0.019841
C26   C     C_R   0.948034 0.442058 0.170136 -0.019257
C27   C     C_R   0.979887 0.509942 0.809904 -0.240258
C28   C     C_R   0.045309 0.509068 0.180919 -0.243688
C29   C     C_R   0.922224 0.463118 0.702940 0.022799
C30   C     C_R   0.094291 0.553833 0.290656 -0.009577
C31   C     C_R   0.953742 0.492265 0.598165 0.029864
C32   C     C_R   0.052258 0.523667 0.391498 0.035408
C33   C     C_R   0.066414 0.542380 0.601917 0.004912
C34   C     C_R   0.934510 0.477408 0.383859 0.021508
C35   C     C_R   0.877702 0.475193 0.491390 -0.201749
C36   C     C_R   0.125196 0.537517 0.498747 -0.199163
Cu1   Cu    Cu3+1 0.509250 0.507730 0.615930 0.985984
Cu2   Cu    Cu3+1 0.490750 0.492270 0.384070 0.995648
H1    H     H_    0.085277 0.524114 0.103766 0.157431
H2    H     H_    0.951474 0.492453 0.890436 0.156348
H3    H     H_    0.280150 0.395328 0.973588 0.138520
H4    H     H_    0.702405 0.625633 0.031154 0.141158
H5    H     H_    0.574943 0.968159 0.277461 0.194940
H6    H     H_    0.428597 0.026901 0.723032 0.173927
H7    H     H_    0.361932 0.432800 0.791238 0.152872
H8    H     H_    0.630809 0.574796 0.209783 0.119619
N1    N     N_R   0.523180 0.519350 0.790130 -0.209829
N2    N     N_R   0.476820 0.480650 0.209870 -0.198395
O1    O     O_R   0.506570 0.354460 0.582000 -0.575065
O2    O     O_R   0.493430 0.645540 0.418000 -0.553735
O3    O     O_R   0.490940 0.341410 0.386200 -0.537338
O4    O     O_R   0.509060 0.658590 0.613800 -0.534757
O5    O     O_R   0.327470 0.506520 0.597900 -0.585027
O6    O     O_R   0.672530 0.493480 0.402100 -0.598532
O7    O     O_R   0.311840 0.493460 0.402100 -0.587587
O8    O     O_R   0.688160 0.506540 0.597900 -0.585176
C37   C     C_1   0.190945 0.685829 0.706689 0.248365
N3    N     N_1   0.248876 0.756378 0.702440 -0.289791
C38   C     C_1   0.775213 0.372697 0.243821 0.246275
N4    N     N_1   0.683831 0.329037 0.218963 -0.223116
C39   C     C_1   0.118663 0.639485 0.924036 0.208528
N5    N     N_1   0.157619 0.685284 0.012275 -0.280575
C40   C     C_1   0.913112 0.382673 0.056701 0.193122
N6    N     N_1   0.884654 0.333455 0.967256 -0.293644
C41   C     C_1   0.848108 0.374259 0.700499 0.276506
N7    N     N_1   0.790324 0.301945 0.697623 -0.335815
C42   C     C_1   0.180851 0.636034 0.297598 0.261977
N8    N     N_1   0.249333 0.702170 0.302718 -0.238767
O9    O     O_3   0.589560 0.802903 0.347192 -0.599207
C43   C     C_3   0.715216 0.774313 0.377151 0.080904
H9    H     H_    0.737295 0.700576 0.320902 0.163092
H10   H     H_    0.733113 0.760150 0.468601 0.120436
C44   C     C_3   0.804583 0.854404 0.354729 -0.414014
H11   H     H_    0.784527 0.869186 0.264124 0.221643
H12   H     H_    0.791423 0.926937 0.416905 0.218295
C45   C     C_3   0.939751 0.817169 0.369652 -0.855919
H13   H     H_    0.962097 0.798497 0.458404 0.259424
H14   H     H_    0.002521 0.878079 0.356572 0.261972
H15   H     H_    0.955846 0.747816 0.303754 0.256480
O10   O     O_3   0.432442 0.195982 0.662583 -0.596449
C46   C     C_3   0.529111 0.207869 0.753978 0.081625
H16   H     H_    0.573314 0.282495 0.757120 0.211865
H17   H     H_    0.603731 0.146469 0.744762 0.133814
C47   C     C_3   0.473108 0.210750 0.870265 -0.414777
H18   H     H_    0.397790 0.269550 0.877330 0.234967
H19   H     H_    0.428549 0.138184 0.875397 0.202495
C48   C     C_3   0.571006 0.233080 0.972527 -0.825633
H20   H     H_    0.646411 0.173022 0.965748 0.255075
H21   H     H_    0.526318 0.233264 0.054700 0.282534
H22   H     H_    0.612353 0.309016 0.974794 0.272713
O11   O     O_3   0.493726 0.828502 0.745336 -0.555633
C49   C     C_3   0.443379 0.884422 0.846440 0.131623
H23   H     H_    0.412030 0.827676 0.897202 0.185224
H24   H     H_    0.356866 0.929029 0.826767 0.099526
C50   C     C_3   0.540907 0.951835 0.924127 -0.416572
H25   H     H_    0.590799 0.996494 0.870973 0.225074
H26   H     H_    0.492286 0.006645 0.989855 0.201674
C51   C     C_3   0.636227 0.889280 0.989164 -0.770186
H27   H     H_    0.589254 0.840850 0.040486 0.248079
H28   H     H_    0.698502 0.942241 0.050082 0.223717
H29   H     H_    0.694055 0.839967 0.926832 0.277688
O12   O     O_3   0.614341 0.163576 0.291577 -0.580826
C52   C     C_3   0.742506 0.131762 0.294521 0.069538
H30   H     H_    0.783359 0.155262 0.219428 0.183121
H31   H     H_    0.756331 0.047233 0.279616 0.105518
C53   C     C_3   0.815333 0.180188 0.408499 -0.382483
H32   H     H_    0.788145 0.262667 0.430836 0.223158
H33   H     H_    0.792019 0.141244 0.480726 0.209597
C54   C     C_3   0.955702 0.170606 0.398610 -0.848649
H34   H     H_    0.985260 0.088418 0.377609 0.255178
H35   H     H_    0.004846 0.205107 0.482774 0.265726
H36   H     H_    0.982298 0.212051 0.329644 0.262228
C55   C     C_1   0.696736 0.636414 0.806987 0.335974
N9    N     N_1   0.762743 0.685108 0.766604 -0.298324
C56   C     C_1   0.304370 0.362325 0.190942 0.319420
N10   N     N_1   0.242549 0.308442 0.228625 -0.289475

loop_
_geom_bond_atom_site_label_1
_geom_bond_atom_site_label_2
_ccdc_geom_bond_type
C21   O5    A    
C48   H20   S    
C27   C29   A    
C44   H11   S    
C50   H25   S    
C47   C48   S    
C18   N1    A    
C13   H3    S    
C46   H16   S    
C50   C51   S    
C22   O6    A    
C21   C36   S    
C22   C35   S    
C32   C36   A    
C24   C26   A    
C54   H35   S    
C53   H32   S    
C56   N10   T    
C33   C36   A    
C18   C20   A    
C34   C35   A    
C2    O2    A    
O12   C52   S    
Cu1   O8    S    
Cu2   O7    S    
C19   C20   A    
C23   C33   A    
C7    O12   S    
C45   H15   S    
C43   H9    S    
Cu1   N1    S    
Cu2   N2    S    
C30   C42   S    
C14   H4    S    
C17   N2    A    
Cu1   O5    S    
C5    H5    S    
C38   N4    T    
C6    H6    S    
C16   C55   S    
C44   H12   S    
C39   N5    T    
C15   N2    A    
C4    C7    A    
C10   C12   A    
C16   N1    A    
C46   H17   S    
C31   C33   A    
C42   N8    T    
C45   H13   S    
C5    C12   A    
C3    C8    A    
C54   H36   S    
O11   C49   S    
C5    C7    A    
Cu1   O4    S    
C22   O8    A    
Cu2   O3    S    
C28   H1    S    
C49   C50   S    
C24   C34   A    
C9    O10   S    
C32   C34   A    
C26   C40   S    
Cu1   Cu2   S    
Cu1   O1    S    
Cu2   O6    S    
C27   H2    S    
C43   C44   S    
C49   H24   S    
C52   H31   S    
C8    O11   S    
C25   C39   S    
C47   H18   S    
C9    C11   A    
C2    O4    A    
C29   C41   S    
C51   H27   S    
C51   H28   S    
C13   C15   A    
C44   C45   S    
C14   C16   A    
C18   H7    S    
C6    C11   A    
C46   C47   S    
C21   O7    A    
C55   N9    T    
C23   C37   S    
C13   C20   A    
C14   C19   A    
C45   H14   S    
O10   C46   S    
C6    C8    A    
C11   C12   A    
C50   H26   S    
Cu2   O2    S    
C25   C27   A    
C51   H29   S    
C26   C28   A    
C1    O3    A    
C1    C4    S    
C28   C30   A    
C2    C3    S    
C17   H8    S    
C29   C31   A    
C3    C10   A    
C54   H34   S    
C30   C32   A    
C37   N3    T    
C53   H33   S    
C24   C38   S    
C31   C35   A    
C49   H23   S    
C17   C19   A    
C52   C53   S    
C15   C56   S    
C23   C25   A    
O9    C43   S    
C40   N6    T    
C10   O9    S    
C41   N7    T    
C48   H22   S    
C52   H30   S    
C48   H21   S    
C47   H19   S    
C43   H10   S    
C4    C9    A    
C1    O1    A    
C53   C54   S    
