data_mof_unit_3223.cif
_audit_creation_date              2012-12-10T17:02:38-0500
_audit_creation_method            fapswitch 2.2
_symmetry_space_group_name_H-M    P1
_symmetry_Int_Tables_number       1
_space_group_crystal_system       triclinic
_cell_length_a                    15.169768
_cell_length_b                    15.102178
_cell_length_c                    15.320344
_cell_angle_alpha                 96.621641
_cell_angle_beta                  81.590391
_cell_angle_gamma                 89.675074
_cell_volume                      3448.03087189

loop_
_atom_site_label
_atom_site_type_symbol
_atom_type_description
_atom_site_fract_x
_atom_site_fract_y
_atom_site_fract_z
_atom_type_partial_charge
C1    C     C_R   0.260308 0.483289 0.490622 0.508786
C2    C     C_R   0.509316 0.446330 0.107291 -0.056814
C3    C     C_R   0.664464 0.439113 0.130826 0.210273
C4    C     C_R   0.737476 0.517967 0.512944 0.598930
C5    C     C_R   0.438839 0.563488 0.838296 0.028574
C6    C     C_R   0.162425 0.474138 0.494937 0.022424
C7    C     C_R   0.832221 0.529500 0.514165 0.009905
C8    C     C_R   0.964496 0.618810 0.488669 0.272127
C9    C     C_R   0.870904 0.614262 0.506751 0.208301
C10   C     C_R   0.885856 0.452739 0.503381 -0.154111
C11   C     C_R   0.977828 0.459378 0.495892 -0.035897
C12   C     C_R   0.335023 0.600598 0.977530 0.013796
C13   C     C_R   0.016465 0.543770 0.499030 0.003535
C14   C     C_R   0.104800 0.550965 0.515940 0.221689
C15   C     C_R   0.124071 0.388676 0.479677 -0.045496
C16   C     C_R   0.512977 0.261921 0.512631 0.575468
C17   C     C_R   0.031496 0.382720 0.485209 -0.106379
C18   C     C_R   0.524670 0.165751 0.511152 -0.012523
C19   C     C_R   0.476905 0.834342 0.483229 0.007568
C20   C     C_R   0.383484 0.966213 0.526151 -0.071574
C21   C     C_R   0.393085 0.874558 0.512479 -0.140124
C22   C     C_R   0.550184 0.886601 0.460646 -0.044226
C23   C     C_R   0.393912 0.558081 0.021830 -0.120181
C24   C     C_R   0.541206 0.980223 0.469855 -0.013346
C25   C     C_R   0.457539 0.020682 0.509466 -0.000684
C26   C     C_R   0.449534 0.113847 0.531799 0.227841
C27   C     C_R   0.609450 0.125649 0.477636 -0.056976
C28   C     C_R   0.487090 0.738615 0.485573 0.525320
C29   C     C_R   0.615320 0.033634 0.446860 0.242208
C30   C     C_R   0.545247 0.460253 0.262484 0.533583
C31   C     C_R   0.456451 0.540458 0.738825 0.557915
C32   C     C_R   0.690850 0.453172 0.042468 -0.117810
C33   C     C_R   0.572724 0.441816 0.165563 0.031179
C34   C     C_R   0.476270 0.522332 0.978213 -0.011974
C35   C     C_R   0.354513 0.600287 0.883858 -0.005647
C36   C     C_3   0.176904 0.301487 0.466197 -0.207437
C37   C     C_3   0.201690 0.269125 0.366946 -0.296372
C38   C     C_3   0.257541 0.182885 0.352111 -0.398213
C39   C     C_3   0.693235 0.178503 0.489351 -0.213993
C40   C     C_3   0.710152 0.181990 0.586217 -0.294885
C41   C     C_3   0.784858 0.245018 0.605452 -0.430851
C42   C     C_3   0.420824 0.399646 0.125425 -0.262087
C43   C     C_3   0.435902 0.299019 0.126506 -0.279656
C44   C     C_3   0.349339 0.248611 0.123173 -0.443318
C45   C     C_R   0.504572 0.541818 0.890317 0.001402
C46   C     C_3   0.289269 0.645562 0.835449 -0.231931
C47   C     C_3   0.323072 0.737877 0.814924 -0.293111
C48   C     C_3   0.270103 0.777970 0.751328 -0.362902
C49   C     C_3   0.252145 0.644498 0.033959 -0.257321
C50   C     C_3   0.174709 0.579524 0.039907 -0.306418
C51   C     C_3   0.091163 0.623277 0.096387 -0.411149
C52   C     C_R   0.536314 0.481037 0.025167 0.020683
C53   C     C_R   0.628134 0.478888 0.991242 -0.048094
C54   C     C_R   0.657538 0.510244 0.910123 -0.084625
C55   C     C_R   0.597806 0.546058 0.861661 0.262968
H1    H     H_    0.001255 0.317756 0.479499 0.125220
H2    H     H_    0.322023 0.194300 0.377405 0.206075
H3    H     H_    0.220914 0.130103 0.386213 0.199806
H4    H     H_    0.271399 0.159207 0.280108 0.132363
H5    H     H_    0.139888 0.257101 0.336693 0.170963
H6    H     H_    0.239855 0.320888 0.332693 0.185534
H7    H     H_    0.236706 0.307209 0.500031 0.230977
H8    H     H_    0.136274 0.249871 0.498549 0.173318
H9    H     H_    0.981388 0.777285 0.323081 0.369600
H10   H     H_    0.871426 0.787676 0.622216 0.356621
H11   H     H_    0.269847 0.130659 0.719450 0.374989
H12   H     H_    0.855880 0.387763 0.499603 0.121238
H13   H     H_    0.846055 0.228035 0.556788 0.159636
H14   H     H_    0.763167 0.314742 0.602680 0.180781
H15   H     H_    0.800428 0.239523 0.673244 0.168021
H16   H     H_    0.648955 0.204240 0.633001 0.197816
H17   H     H_    0.728633 0.113902 0.599314 0.201114
H18   H     H_    0.753787 0.148693 0.447410 0.226463
H19   H     H_    0.687346 0.246490 0.469606 0.160350
H20   H     H_    0.742499 0.870263 0.277715 0.390473
H21   H     H_    0.297313 0.276980 0.177911 0.151880
H22   H     H_    0.325196 0.253116 0.058744 0.169708
H23   H     H_    0.317335 0.992735 0.551276 0.213883
H24   H     H_    0.361162 0.177240 0.129794 0.158750
H25   H     H_    0.484735 0.272207 0.067882 0.184303
H26   H     H_    0.463285 0.286230 0.187310 0.202931
H27   H     H_    0.381700 0.429739 0.189019 0.154595
H28   H     H_    0.379887 0.405835 0.072112 0.154705
H29   H     H_    0.283106 0.738376 0.685007 0.246126
H30   H     H_    0.197629 0.779297 0.776798 0.200178
H31   H     H_    0.291610 0.847230 0.744049 0.154930
H32   H     H_    0.317339 0.783418 0.877993 0.161729
H33   H     H_    0.394464 0.733810 0.785029 0.220645
H34   H     H_    0.334941 0.834956 0.528619 0.177983
H35   H     H_    0.276204 0.602151 0.775938 0.218470
H36   H     H_    0.221686 0.654591 0.874020 0.142080
H37   H     H_    0.104272 0.645052 0.164992 0.198149
H38   H     H_    0.069510 0.681878 0.066549 0.165732
H39   H     H_    0.036467 0.574666 0.099766 0.178271
H40   H     H_    0.159179 0.556250 0.972501 0.177336
H41   H     H_    0.193976 0.520251 0.070327 0.171605
H42   H     H_    0.266344 0.665942 0.102385 0.153893
H43   H     H_    0.233380 0.707159 0.009253 0.148244
H44   H     H_    0.739894 0.728408 0.802790 0.384357
H45   H     H_    0.728561 0.514466 0.888217 0.160231
H46   H     H_    0.220019 0.683042 0.481090 0.352961
H47   H     H_    0.614846 0.853766 0.443273 0.229509
H48   H     H_    0.761243 0.451751 0.016139 0.151923
H49   H     H_    0.377303 0.558797 0.093073 0.113531
H50   H     H_    0.799088 0.551672 0.200048 0.341812
O1    O     O_3   0.500000 0.500000 0.500000 -0.466712
O2    O     O_R   0.486020 0.413600 0.304760 -0.565881
O3    O     O_R   0.410760 0.579600 0.689750 -0.547777
O4    O     O_R   0.584420 0.523620 0.304110 -0.492577
O5    O     O_R   0.518800 0.483180 0.701380 -0.497117
O6    O     O_2   0.713537 0.358003 0.264298 -0.264699
O7    O     O_2   0.828778 0.374411 0.138000 -0.271404
O8    O     O_3   0.777886 0.515043 0.248232 -0.462634
O9    O     O_2   0.032831 0.784489 0.486490 -0.164224
O10   O     O_2   0.102145 0.667402 0.372998 -0.353117
O11   O     O_3   0.948649 0.731252 0.355051 -0.452460
O12   O     O_R   0.551580 0.314770 0.565720 -0.545757
O13   O     O_2   0.775000 0.732002 0.437719 -0.173589
O14   O     O_2   0.720738 0.704009 0.589563 -0.257545
O15   O     O_3   0.858760 0.801830 0.563669 -0.412515
O16   O     O_2   0.359292 0.260291 0.629704 -0.287298
O17   O     O_2   0.273556 0.151126 0.548393 -0.357841
O18   O     O_3   0.329771 0.108762 0.690032 -0.523513
O19   O     O_2   0.749221 0.055690 0.313785 -0.259862
O20   O     O_2   0.779993 0.960804 0.426050 -0.232035
O21   O     O_3   0.684595 0.898638 0.305575 -0.513635
O22   O     O_2   0.708260 0.571788 0.715378 -0.271995
O23   O     O_R   0.429950 0.701690 0.536820 -0.548524
O24   O     O_2   0.578517 0.674909 0.752684 -0.282080
O25   O     O_3   0.706010 0.694331 0.847599 -0.508343
O26   O     O_2   0.045574 0.696387 0.632524 -0.241169
O27   O     O_2   0.166770 0.608118 0.666999 -0.304410
O28   O     O_3   0.202281 0.711828 0.542572 -0.484756
O29   O     O_R   0.314790 0.427190 0.441330 -0.567734
O30   O     O_R   0.703670 0.556350 0.456130 -0.452091
O31   O     O_R   0.291500 0.546870 0.537740 -0.489594
O32   O     O_R   0.690030 0.469590 0.564810 -0.526087
O33   O     O_R   0.466830 0.291510 0.457690 -0.524454
O34   O     O_R   0.551640 0.692030 0.439770 -0.505521
S1    S     S_3+6 0.748144 0.418167 0.196007 0.032555
S2    S     S_3+6 0.015400 0.702797 0.426228 0.081932
S3    S     S_3+6 0.803100 0.713839 0.524145 0.116129
S4    S     S_3+6 0.350760 0.162860 0.599440 -0.023008
S5    S     S_3+6 0.710999 0.987854 0.372474 0.017853
S6    S     S_3+6 0.645916 0.622384 0.789532 0.033018
S7    S     S_3+6 0.128807 0.643486 0.592389 0.053191
Zn1   Zn    Zn3+2 0.563990 0.442880 0.581560 1.025495
Zn2   Zn    Zn3+2 0.442900 0.409640 0.427210 0.947976
Zn3   Zn    Zn3+2 0.583480 0.566840 0.426280 1.084370
Zn4   Zn    Zn3+2 0.409620 0.580640 0.564950 0.999281

loop_
_geom_bond_atom_site_label_1
_geom_bond_atom_site_label_2
_ccdc_geom_bond_type
C7    C10   A    
O10   S2    D    
C8    C13   A    
H9    O11   S    
C40   H16   S    
C30   O2    A    
C27   C29   A    
C31   O3    A    
O7    S1    D    
C18   C26   A    
C12   C49   S    
C21   H34   S    
C53   C54   A    
C12   C23   A    
O1    Zn4   S    
H50   O8    S    
C44   H22   S    
C19   C21   A    
C50   H40   S    
C55   S6    S    
C20   C25   A    
C3    C33   A    
O20   S5    D    
O1    Zn2   S    
O26   S7    D    
C7    C9    A    
C46   C47   S    
C39   H19   S    
C44   H21   S    
O16   S4    D    
C24   C29   A    
C6    C15   A    
C38   H3    S    
C31   O5    A    
C47   C48   S    
C27   C39   S    
C8    C9    A    
C42   H27   S    
C36   C37   S    
C8    S2    S    
C1    O31   A    
O24   S6    D    
H44   O25   S    
C38   H4    S    
C49   H43   S    
C15   C36   S    
O1    Zn3   S    
C13   C14   A    
O25   S6    S    
C54   H45   S    
C28   O34   A    
O17   S4    D    
C4    C7    S    
C36   H7    S    
O6    S1    D    
C41   H13   S    
C32   H48   S    
C18   C27   A    
C30   O4    A    
C1    C6    S    
O9    S2    D    
C19   C22   A    
O15   S3    S    
C24   C25   A    
O33   Zn2   S    
C39   C40   S    
C46   H36   S    
C43   H25   S    
O30   Zn3   S    
C29   S5    S    
C5    C45   A    
O34   Zn3   S    
O1    Zn1   S    
C48   H29   S    
C47   H32   S    
O4    Zn3   S    
C43   C44   S    
C37   C38   S    
C51   H37   S    
C6    C14   A    
C38   H2    S    
O31   Zn4   S    
C23   H49   S    
C23   C34   A    
C50   C51   S    
O8    S1    S    
C34   C45   A    
C12   C35   A    
C19   C28   S    
C17   H1    S    
C2    C52   A    
C51   H38   S    
C4    O30   A    
O3    Zn4   S    
C2    C33   A    
O23   Zn4   S    
C40   C41   S    
O22   S6    D    
C1    O29   A    
C43   H26   S    
C22   C24   A    
C42   C43   S    
O5    Zn1   S    
C36   H8    S    
C32   C53   A    
C52   C53   A    
C41   H14   S    
C15   C17   A    
C54   C55   A    
C11   C17   A    
C40   H17   S    
C30   C33   S    
H11   O18   S    
O32   Zn1   S    
C44   H24   S    
C16   O33   A    
C42   H28   S    
C4    O32   A    
O13   S3    D    
C37   H6    S    
C9    S3    S    
C46   H35   S    
H46   O28   S    
O29   Zn2   S    
C14   S7    S    
C34   C52   A    
C22   H47   S    
C20   H23   S    
O12   Zn1   S    
H20   O21   S    
O27   S7    D    
C47   H33   S    
O28   S7    S    
C25   C26   A    
C10   H12   S    
C16   O12   A    
O2    Zn2   S    
C11   C13   A    
C50   H41   S    
C2    C42   S    
C5    C35   A    
O21   S5    S    
H10   O15   S    
C48   H31   S    
C39   H18   S    
C3    C32   A    
C37   H5    S    
C10   C11   A    
C51   H39   S    
C49   H42   S    
O11   S2    S    
C28   O23   A    
C20   C21   A    
C45   C55   A    
C16   C18   S    
C49   C50   S    
O18   S4    S    
O14   S3    D    
C48   H30   S    
O19   S5    D    
C3    S1    S    
C35   C46   S    
C26   S4    S    
C41   H15   S    
C5    C31   S    
