data_mof_unit_2552.cif
_audit_creation_date              2013-03-05T16:33:41-0500
_audit_creation_method            fapswitch 2.2
_symmetry_space_group_name_H-M    P1
_symmetry_Int_Tables_number       1
_space_group_crystal_system       triclinic
_cell_length_a                    9.075967
_cell_length_b                    10.828932
_cell_length_c                    9.582642
_cell_angle_alpha                 89.475374
_cell_angle_beta                  89.677147
_cell_angle_gamma                 90.789101
_cell_volume                      941.666658789

loop_
_atom_site_label
_atom_site_type_symbol
_atom_site_description
_atom_site_fract_x
_atom_site_fract_y
_atom_site_fract_z
_atom_type_partial_charge
O1    O     O_R   0.500000 0.319640 0.618810 -0.610599
O2    O     O_R   0.500020 0.319680 0.381230 -0.593989
C1    C     C_R   0.501225 0.262511 0.500481 0.821345
O3    O     O_R   0.288380 0.499980 0.618770 -0.536428
O4    O     O_R   0.288400 0.500020 0.381190 -0.591899
C2    C     C_R   0.220800 0.500014 0.500229 0.892200
Cu1   Cu    Cu3+1 0.499990 0.499980 0.640670 0.993517
Cu2   Cu    Cu3+1 0.500010 0.500020 0.359330 0.960945
O5    O     O_R   0.499980 0.680320 0.618770 -0.576821
O6    O     O_R   0.500000 0.680360 0.381190 -0.586634
O7    O     O_R   0.711600 0.499980 0.618810 -0.574886
O8    O     O_R   0.711620 0.500020 0.381230 -0.581169
C3    C     C_R   0.502236 0.737508 0.499651 0.829838
C4    C     C_R   0.779214 0.500250 0.499791 0.833657
C5    C     C_1   0.065591 0.500198 0.500372 -0.108173
C6    C     C_1   0.934439 0.500286 0.499730 -0.149992
C7    C     C_R   0.489575 0.062168 0.624653 0.040972
C8    C     C_R   0.512605 0.129509 0.501498 -0.003650
C9    C     C_R   0.553935 0.066405 0.380054 -0.194486
H1    H     H_    0.580630 0.116007 0.284334 0.159091
C10   C     C_R   0.554465 0.937552 0.379630 -0.173190
H2    H     H_    0.581588 0.890958 0.283917 0.145106
C11   C     C_R   0.513689 0.870788 0.500471 -0.016628
C12   C     C_R   0.490286 0.935041 0.624152 -0.069854
C13   C     C_3   0.369232 0.925654 0.731257 0.157022
C14   C     C_3   0.368645 0.067014 0.731410 0.125790
H3    H     H_    0.406343 0.885174 0.831946 0.059318
H4    H     H_    0.405396 0.109296 0.831073 0.078665
C15   C     C_R   0.618562 0.545092 0.072111 0.241700
N1    N     N_R   0.500920 0.500930 0.147930 -0.227312
C16   C     C_R   0.389529 0.445161 0.076855 -0.061289
H5    H     H_    0.299746 0.401339 0.134154 0.171366
C17   C     C_R   0.389664 0.442780 0.929151 0.458176
N2    N     N_R   0.500930 0.500890 0.852020 -0.238691
C18   C     C_R   0.618670 0.544940 0.925123 0.197840
C19   C     C_3   0.682415 0.672238 0.916767 -0.452010
C20   C     C_3   0.680762 0.673165 0.075244 -0.479943
H6    H     H_    0.795482 0.673492 0.871516 0.227198
H7    H     H_    0.605993 0.739809 0.869585 0.206504
H8    H     H_    0.792731 0.676645 0.121571 0.211192
H9    H     H_    0.601498 0.740109 0.118289 0.204846
N3    N     N_R   0.233825 0.867466 0.678451 0.164605
O9    O     O_R   0.182917 0.894825 0.555314 -0.319705
O10   O     O_R   0.167099 0.782546 0.753098 -0.363187
O11   O     O_3   0.240113 0.118542 0.676585 -0.666487
H10   H     H_    0.168019 0.118790 0.754789 0.348677
O12   O     O_3   0.274025 0.381645 0.867713 -0.726343
H11   H     H_    0.312958 0.341118 0.784223 0.373796

loop_
_geom_bond_atom_site_label_1
_geom_bond_atom_site_label_2
_geom_bond_distance
_ccdc_geom_bond_type
C13   N3    1.467968 S    
O4    Cu2   1.930782 S    
C11   C12   1.396522 A    
C16   C17   1.415862 A    
C15   N1    1.366541 A    
C13   H3    1.112004 S    
C15   C18   1.408544 A    
C14   H4    1.113727 S    
O12   H11   0.982374 S    
Cu2   O8    1.933173 S    
Cu2   N1    2.025675 S    
C9    H1    1.083260 S    
C19   H6    1.111654 S    
C7    C8    1.394812 A    
C2    C5    1.408685 S    
Cu1   Cu2   2.695975 S    
O1    Cu1   1.965999 S    
C10   H2    1.079706 S    
Cu1   O7    1.930782 S    
N1    C16   1.359834 A    
N3    O10   1.300700 A    
O3    Cu1   1.933172 S    
C7    C14   1.497952 S    
Cu2   O6    1.965999 S    
C19   C20   1.518743 S    
C9    C10   1.395450 A    
O8    C4    1.294223 A    
O2    C1    1.294839 A    
C20   H8    1.111554 S    
C10   C11   1.404646 A    
C20   H9    1.108916 S    
O4    C2    1.292193 A    
C17   O12   1.371633 S    
Cu1   N2    2.025472 S    
C4    C6    1.408812 S    
C7    C12   1.376800 A    
N3    O9    1.302732 A    
C5    C6    1.190398 T    
C17   N2    1.388388 A    
C12   C13   1.501037 S    
C3    C11   1.445689 S    
C1    C8    1.445331 S    
O3    C2    1.293986 A    
N2    C18   1.364072 A    
C15   C20   1.490784 S    
O7    C4    1.292040 A    
Cu1   O5    1.962224 S    
O5    C3    1.293571 A    
C8    C9    1.406666 A    
C14   O11   1.402740 S    
C13   C14   1.530883 S    
O11   H10   0.992125 S    
O6    C3    1.297993 A    
C19   H7    1.110128 S    
O2    Cu2   1.962222 S    
C16   H5    1.081772 S    
O1    C1    1.296721 A    
C18   C19   1.488926 S    
