data_mof_unit_3156.cif
_audit_creation_date              2012-12-10T18:57:43-0500
_audit_creation_method            fapswitch 2.2
_symmetry_space_group_name_H-M    P1
_symmetry_Int_Tables_number       1
_space_group_crystal_system       triclinic
_cell_length_a                    10.973362
_cell_length_b                    10.886141
_cell_length_c                    9.550185
_cell_angle_alpha                 90.955347
_cell_angle_beta                  91.194231
_cell_angle_gamma                 90.426685
_cell_volume                      1140.40083019

loop_
_atom_site_label
_atom_site_type_symbol
_atom_type_description
_atom_site_fract_x
_atom_site_fract_y
_atom_site_fract_z
_atom_type_partial_charge
C1    C     C_R   0.499349 0.262903 0.498909 0.803871
C2    C     C_R   0.496791 0.130671 0.496558 -0.108892
C3    C     C_R   0.472919 0.062569 0.371952 -0.219367
C4    C     C_R   0.472756 0.933425 0.373469 -0.214173
C5    C     C_R   0.496619 0.870525 0.499548 -0.093991
C6    C     C_R   0.517408 0.941806 0.619699 0.077617
C7    C     C_3   0.556043 0.938720 0.770178 -0.494389
C8    C     C_3   0.554545 0.080139 0.768422 -0.029505
C9    C     C_R   0.601515 0.535394 0.076799 0.268130
C10   C     C_R   0.407664 0.447061 0.071042 -0.097485
C11   C     C_R   0.406741 0.448363 0.922291 -0.077816
C12   C     C_R   0.265053 0.498823 0.498222 0.850110
C13   C     C_R   0.602056 0.534074 0.929539 0.252679
C14   C     C_3   0.665646 0.654872 0.927677 -0.522075
C15   C     C_3   0.665003 0.656510 0.086633 -0.496536
C16   C     C_R   0.499859 0.737531 0.500649 0.806336
C17   C     C_R   0.734497 0.498142 0.501500 0.866893
C18   C     C_2   0.928461 0.488624 0.387218 -0.162351
C19   C     C_2   0.865939 0.488418 0.505847 -0.374542
C20   C     C_2   0.060874 0.472246 0.383426 0.213305
C21   C     C_2   0.132464 0.504931 0.495358 -0.326037
C22   C     C_R   0.517765 0.065666 0.617884 0.126507
Cu1   Cu    Cu3+1 0.499990 0.499980 0.640670 0.933597
Cu2   Cu    Cu3+1 0.500010 0.500020 0.359330 0.938186
H1    H     H_    0.880415 0.496280 0.287089 0.167087
H2    H     H_    0.333986 0.403001 0.123641 0.140155
H3    H     H_    0.330368 0.407884 0.864496 0.142001
H4    H     H_    0.758366 0.648325 0.883597 0.195529
H5    H     H_    0.605846 0.724615 0.881375 0.217420
H6    H     H_    0.607184 0.730217 0.131306 0.214876
H7    H     H_    0.909640 0.474783 0.607198 0.146419
H8    H     H_    0.093131 0.541873 0.590148 0.119501
H9    H     H_    0.454814 0.108338 0.273938 0.162700
H10   H     H_    0.454597 0.883549 0.276106 0.161544
H11   H     H_    0.484564 0.898769 0.836916 0.178229
H12   H     H_    0.649135 0.900444 0.782990 0.204751
H13   H     H_    0.482008 0.121816 0.833070 0.163287
N1    N     N_R   0.500780 0.500930 0.147930 -0.185901
N2    N     N_R   0.500780 0.500890 0.852020 -0.187025
O1    O     O_R   0.500000 0.319640 0.618810 -0.589476
O2    O     O_R   0.500010 0.319680 0.381230 -0.588105
O3    O     O_R   0.321940 0.499980 0.618760 -0.593711
O4    O     O_R   0.321950 0.500020 0.381180 -0.573034
O5    O     O_R   0.499990 0.680320 0.618770 -0.577292
O6    O     O_R   0.500000 0.680360 0.381190 -0.588333
O7    O     O_R   0.678050 0.499980 0.618820 -0.589510
O8    O     O_R   0.678060 0.500020 0.381240 -0.581507
C23   C     C_3   0.680675 0.139253 0.791332 -0.823568
H14   H     H_    0.747683 0.100626 0.717125 0.234995
H15   H     H_    0.675369 0.239954 0.776765 0.250918
H16   H     H_    0.713332 0.122508 0.900100 0.230705
H17   H     H_    0.757624 0.649549 0.134979 0.191457
C24   C     C_3   0.109924 0.421107 0.248358 -0.837743
H18   H     H_    0.035516 0.386238 0.177346 0.208879
H19   H     H_    0.158000 0.495125 0.192675 0.237664
H20   H     H_    0.170949 0.342432 0.269971 0.227017

loop_
_geom_bond_atom_site_label_1
_geom_bond_atom_site_label_2
_ccdc_geom_bond_type
C16   O6    A    
C2    C22   A    
C8    C22   S    
Cu1   Cu2   S    
C8    C23   S    
C6    C7    S    
C7    H12   S    
C16   O5    A    
Cu2   N1    S    
C11   H3    S    
C10   N1    A    
C19   H7    S    
C10   H2    S    
C23   H15   S    
C2    C3    A    
C9    C15   S    
C15   H17   S    
C7    C8    S    
Cu1   O7    S    
C24   H18   S    
C17   O7    A    
C11   N2    A    
Cu2   O2    S    
Cu1   O3    S    
C18   H1    S    
Cu1   N2    S    
Cu2   O6    S    
C20   C24   S    
C1    O2    A    
C23   H14   S    
C17   C19   S    
C1    C2    S    
C12   O4    A    
C18   C20   S    
C24   H19   S    
C5    C6    A    
C21   H8    S    
C4    H10   S    
C13   N2    A    
C10   C11   A    
C3    H9    S    
C14   H5    S    
Cu1   O1    S    
C6    C22   A    
C20   C21   D    
C3    C4    A    
C15   H6    S    
C18   C19   D    
C8    H13   S    
C24   H20   S    
Cu2   O4    S    
C9    C13   A    
C14   C15   S    
C9    N1    A    
C5    C16   S    
C12   O3    A    
C1    O1    A    
C14   H4    S    
C13   C14   S    
Cu2   O8    S    
C7    H11   S    
C12   C21   S    
C23   H16   S    
Cu1   O5    S    
C17   O8    A    
C4    C5    A    
