data_mof_unit_2631.cif
_audit_creation_date              2013-03-05T16:45:23-0500
_audit_creation_method            fapswitch 2.2
_symmetry_space_group_name_H-M    P1
_symmetry_Int_Tables_number       1
_space_group_crystal_system       triclinic
_cell_length_a                    8.917676
_cell_length_b                    10.751687
_cell_length_c                    9.921956
_cell_angle_alpha                 89.187757
_cell_angle_beta                  90.215832
_cell_angle_gamma                 91.994377
_cell_volume                      950.640850603

loop_
_atom_site_label
_atom_site_type_symbol
_atom_site_description
_atom_site_fract_x
_atom_site_fract_y
_atom_site_fract_z
_atom_type_partial_charge
O1    O     O_R   0.500020 0.316790 0.614690 -0.604552
O2    O     O_R   0.500000 0.316760 0.385350 -0.625383
C1    C     C_R   0.502098 0.260064 0.500503 0.887981
O3    O     O_R   0.285350 0.500020 0.614650 -0.585765
O4    O     O_R   0.285340 0.499980 0.385310 -0.621654
C2    C     C_R   0.218852 0.499698 0.499838 0.920687
Zn1   Zn    Zn3+2 0.500010 0.500020 0.653130 1.062180
Zn2   Zn    Zn3+2 0.499990 0.499980 0.346870 1.000693
O5    O     O_R   0.500000 0.683240 0.614650 -0.581024
O6    O     O_R   0.499980 0.683210 0.385310 -0.638073
O7    O     O_R   0.714660 0.500020 0.614690 -0.541451
O8    O     O_R   0.714650 0.499980 0.385350 -0.567608
C3    C     C_R   0.502037 0.739776 0.499117 0.874070
C4    C     C_R   0.781142 0.500382 0.500174 0.936210
C5    C     C_1   0.065398 0.500003 0.499803 -0.114561
C6    C     C_1   0.934577 0.500259 0.500266 -0.096045
C7    C     C_R   0.563170 0.063070 0.612786 0.105341
C8    C     C_R   0.517342 0.128417 0.498417 -0.139611
C9    C     C_R   0.494033 0.065462 0.376766 -0.160045
H1    H     H_    0.466284 0.113797 0.284220 0.189707
C10   C     C_R   0.492856 0.937315 0.376002 -0.224469
H2    H     H_    0.461320 0.890456 0.283922 0.175000
C11   C     C_R   0.517903 0.871787 0.496315 -0.103986
C12   C     C_R   0.563029 0.935394 0.611724 0.124504
C13   C     C_3   0.504303 0.922802 0.752296 -0.481290
C14   C     C_3   0.503624 0.063463 0.753660 0.080051
H3    H     H_    0.389808 0.878504 0.756879 0.192832
H4    H     H_    0.586390 0.882755 0.823575 0.250402
H5    H     H_    0.389013 0.099440 0.761164 0.134938
C15   C     C_R   0.377314 0.456590 0.071444 0.084023
N1    N     N_R   0.499010 0.499140 0.142800 -0.154692
C16   C     C_R   0.614562 0.556122 0.072574 0.418314
C17   C     C_R   0.616914 0.553455 0.928264 0.219944
N2    N     N_R   0.499010 0.499180 0.857150 -0.189589
C18   C     C_R   0.376635 0.457474 0.929017 0.085276
C19   C     C_3   0.312584 0.327587 0.928033 0.116140
C20   C     C_3   0.309779 0.328339 0.081075 -0.484563
H6    H     H_    0.392596 0.263012 0.886357 0.142479
H7    H     H_    0.196100 0.326813 0.126689 0.239278
H8    H     H_    0.387571 0.261499 0.127154 0.205247
N3    N     N_R   0.611356 0.116257 0.850917 0.224782
O9    O     O_R   0.719393 0.192920 0.812028 -0.308739
O10   O     O_R   0.591439 0.094929 0.979117 -0.433150
O11   O     O_3   0.733583 0.609398 0.143260 -0.546036
C21   C     C_3   0.725274 0.740361 0.136700 0.146737
H9    H     H_    0.609573 0.771153 0.155606 0.119246
H10   H     H_    0.761828 0.776938 0.036425 0.182412
C22   C     C_3   0.829715 0.797624 0.242348 -0.724440
H11   H     H_    0.947249 0.772530 0.222152 0.254176
H12   H     H_    0.822695 0.900550 0.239118 0.223816
H13   H     H_    0.797465 0.763146 0.344547 0.241503
N4    N     N_R   0.746429 0.604140 0.859136 0.230776
O12   O     O_R   0.733490 0.697088 0.775529 -0.423239
O13   O     O_R   0.879690 0.577841 0.901871 -0.295751
N5    N     N_R   0.164095 0.318028 0.865416 0.247215
O14   O     O_R   0.141466 0.244870 0.763534 -0.387215
O15   O     O_R   0.053020 0.379644 0.911731 -0.283033

loop_
_geom_bond_atom_site_label_1
_geom_bond_atom_site_label_2
_geom_bond_distance
_ccdc_geom_bond_type
C7    C8    1.393638 A    
O4    Zn2   1.953214 S    
N5    O14   1.300477 A    
C15   C20   1.487331 S    
C13   H3    1.112345 S    
N3    O9    1.301926 A    
N1    C16   1.368229 A    
Zn2   O8    1.950560 S    
C11   C12   1.392994 A    
C16   C17   1.432778 A    
N4    O13   1.299297 A    
C22   H12   1.110574 S    
O2    C1    1.287724 A    
C16   O11   1.382030 S    
C20   H7    1.111247 S    
C19   N5    1.461559 S    
O1    Zn1   2.011916 S    
C21   H9    1.111919 S    
C12   C13   1.494369 S    
C17   N4    1.432810 S    
Zn1   O7    1.953215 S    
C2    C5    1.368565 S    
N3    O10   1.301041 A    
C15   N1    1.362766 A    
C15   C18   1.413045 A    
C1    C8    1.427089 S    
O3    Zn1   1.950560 S    
C7    C14   1.497199 S    
O3    C2    1.282279 A    
C19   C20   1.518909 S    
C9    C10   1.377597 A    
O8    C4    1.282362 A    
C17   N2    1.381037 A    
C20   H8    1.108934 S    
N5    O15   1.299590 A    
C10   C11   1.398705 A    
O4    C2    1.283623 A    
N2    C18   1.364996 A    
Zn1   N2    2.024221 S    
C4    C6    1.368331 S    
C21   C22   1.521950 S    
C7    C12   1.372874 A    
C13   H4    1.109427 S    
C5    C6    1.166746 T    
C19   H6    1.098621 S    
O11   C21   1.413159 S    
C3    C11   1.421359 S    
C14   H5    1.108464 S    
Zn2   O6    2.011916 S    
C8    C9    1.403472 A    
C21   H10   1.110500 S    
O7    C4    1.283464 A    
Zn1   O5    2.001263 S    
O5    C3    1.289763 A    
C22   H11   1.111002 S    
C13   C14   1.512818 S    
C10   H2    1.081134 S    
Zn2   N1    2.024906 S    
O6    C3    1.289890 A    
C22   H13   1.110169 S    
O2    Zn2   2.001265 S    
C9    H1    1.080827 S    
C14   N3    1.465248 S    
N4    O12   1.297667 A    
O1    C1    1.294777 A    
C18   C19   1.490434 S    
