data_mof_unit_3975.cif
_audit_creation_date              2012-12-11T17:07:30-0500
_audit_creation_method            fapswitch 2.2
_symmetry_space_group_name_H-M    P1
_symmetry_Int_Tables_number       1
_space_group_crystal_system       triclinic
_cell_length_a                    17.216764
_cell_length_b                    17.212764
_cell_length_c                    17.35761
_cell_angle_alpha                 89.426141
_cell_angle_beta                  89.853853
_cell_angle_gamma                 89.845427
_cell_volume                      5143.60156473

loop_
_atom_site_label
_atom_site_type_symbol
_atom_type_description
_atom_site_fract_x
_atom_site_fract_y
_atom_site_fract_z
_atom_type_partial_charge
C1    C     C_R   0.394419 0.302294 0.899147 -0.199513
C2    C     C_R   0.667154 0.426743 0.855159 -0.006678
C3    C     C_R   0.607063 0.698388 0.900854 -0.199023
C4    C     C_R   0.329724 0.577865 0.856667 -0.093439
C5    C     C_R   0.426511 0.666040 0.144866 0.013891
C6    C     C_R   0.696683 0.604941 0.104997 -0.096320
C7    C     C_R   0.573501 0.332889 0.145124 0.030140
C8    C     C_R   0.301738 0.393945 0.099629 -0.194289
C9    C     C_R   0.920412 0.829732 0.356705 -0.074789
C10   C     C_R   0.196773 0.895106 0.395891 -0.128769
C11   C     C_R   0.074462 0.167065 0.354312 0.007692
C12   C     C_R   0.802298 0.105571 0.399355 -0.136783
C13   C     C_R   0.895320 0.197110 0.602897 -0.126986
C14   C     C_R   0.168154 0.075219 0.644659 0.006847
C15   C     C_R   0.105833 0.801874 0.601498 -0.083010
C16   C     C_R   0.833968 0.925311 0.646067 -0.000044
C17   C     C_3   0.866522 0.288396 0.759150 0.411403
C18   C     C_3   0.696432 0.915514 0.768795 0.434033
C19   C     C_3   0.178868 0.614544 0.631927 0.425968
C20   C     C_3   0.312861 0.095135 0.754453 0.435538
C21   C     C_3   0.920054 0.780771 0.151273 0.413371
C22   C     C_3   0.686860 0.130839 0.263953 0.421998
C23   C     C_3   0.091369 0.310307 0.240774 0.452941
C24   C     C_3   0.292996 0.866909 0.241024 0.371998
C25   C     C_3   0.350077 0.819213 0.193569 0.408399
C26   C     C_3   0.143250 0.360974 0.189500 0.378540
C27   C     C_3   0.631477 0.179002 0.214673 0.401472
C28   C     C_3   0.871263 0.728465 0.097511 0.431918
C29   C     C_3   0.363055 0.146648 0.805385 0.383282
C30   C     C_3   0.227997 0.565929 0.686836 0.365140
C31   C     C_3   0.645659 0.864952 0.821555 0.381881
C32   C     C_3   0.819185 0.344517 0.807957 0.419834
C33   C     C_R   0.421218 0.670095 0.855155 -0.033496
C34   C     C_R   0.303080 0.393275 0.896150 -0.023358
C35   C     C_R   0.579639 0.330935 0.855225 -0.021555
C36   C     C_R   0.697667 0.607163 0.897957 -0.096818
C37   C     C_R   0.392267 0.302465 0.102349 -0.097048
C38   C     C_R   0.330243 0.579147 0.144841 -0.049821
C39   C     C_R   0.605632 0.696925 0.101741 -0.034817
C40   C     C_R   0.669791 0.419690 0.144546 -0.041560
C41   C     C_R   0.892322 0.197529 0.396994 -0.104411
C42   C     C_R   0.831344 0.925107 0.356302 0.016966
C43   C     C_R   0.105821 0.803310 0.394598 -0.053387
C44   C     C_R   0.170387 0.079732 0.355741 -0.083158
C45   C     C_R   0.921385 0.829539 0.644496 -0.085901
C46   C     C_R   0.802666 0.107424 0.603195 -0.097086
C47   C     C_R   0.080347 0.170971 0.643315 -0.072042
C48   C     C_R   0.197794 0.891751 0.600909 -0.131659
C49   C     C_R   0.317728 0.315509 0.880865 0.154589
C50   C     C_R   0.637981 0.367105 0.812271 0.172846
C51   C     C_R   0.684295 0.685439 0.883750 0.136002
C52   C     C_R   0.362073 0.636376 0.812015 0.180491
C53   C     C_R   0.366229 0.636914 0.187702 0.179322
C54   C     C_R   0.680924 0.681154 0.120609 0.189209
C55   C     C_R   0.633677 0.361503 0.187945 0.162273
C56   C     C_R   0.314236 0.316801 0.116795 0.146824
C57   C     C_R   0.861207 0.864467 0.314876 0.122801
C58   C     C_R   0.182324 0.819121 0.377385 0.137194
C59   C     C_R   0.134909 0.137600 0.311022 0.138857
C60   C     C_R   0.815303 0.182052 0.381457 0.132599
C61   C     C_R   0.818820 0.183742 0.620190 0.145828
C62   C     C_R   0.138973 0.136113 0.687373 0.143079
C63   C     C_R   0.183504 0.813765 0.615520 0.179809
C64   C     C_R   0.864344 0.864870 0.689616 0.135232
C65   C     C_R   0.759728 0.345568 0.744091 -0.256960
C66   C     C_R   0.718476 0.820502 0.840928 -0.124318
C67   C     C_R   0.253334 0.640921 0.722222 -0.085785
C68   C     C_R   0.288479 0.182567 0.833001 -0.112958
C69   C     C_R   0.804424 0.745128 0.150074 -0.184360
C70   C     C_R   0.643955 0.245137 0.270143 -0.248986
C71   C     C_R   0.180208 0.286659 0.162825 -0.106914
C72   C     C_R   0.346881 0.758168 0.256757 -0.216643
C73   C     C_R   0.297322 0.802272 0.299790 -0.134873
C74   C     C_R   0.133329 0.240840 0.208557 -0.262535
C75   C     C_R   0.692365 0.200708 0.315219 -0.107028
C76   C     C_R   0.846875 0.791140 0.196033 -0.184117
C77   C     C_R   0.243113 0.135914 0.787720 -0.262914
C78   C     C_R   0.207748 0.685623 0.672688 -0.238735
C79   C     C_R   0.764360 0.866817 0.794803 -0.257986
C80   C     C_R   0.803264 0.296524 0.700048 -0.145244
C81   C     C_R   0.678858 0.337738 0.745858 -0.167500
C82   C     C_R   0.741470 0.745008 0.861829 -0.196021
C83   C     C_R   0.329417 0.663175 0.738952 -0.330390
C84   C     C_R   0.262555 0.255652 0.857193 -0.230898
C85   C     C_R   0.726563 0.731443 0.165201 -0.202404
C86   C     C_R   0.660547 0.324176 0.258201 -0.167621
C87   C     C_R   0.253765 0.261176 0.138994 -0.233127
C88   C     C_R   0.336649 0.677461 0.254062 -0.168228
C89   C     C_R   0.240222 0.768211 0.345549 -0.274707
C90   C     C_R   0.160420 0.168847 0.236250 -0.176315
C91   C     C_R   0.755168 0.233748 0.353478 -0.246584
C92   C     C_R   0.815059 0.824755 0.260846 -0.187523
C93   C     C_R   0.170897 0.162565 0.760898 -0.174270
C94   C     C_R   0.238444 0.753001 0.638638 -0.127570
C95   C     C_R   0.834703 0.838748 0.764898 -0.165148
C96   C     C_R   0.768641 0.242010 0.652642 -0.243822
C97   C     C_R   0.239497 0.686864 0.354967 0.718147
C98   C     C_R   0.222974 0.135016 0.195842 0.653870
C99   C     C_R   0.760700 0.315288 0.356198 0.689787
C100  C     C_R   0.735983 0.811379 0.278073 0.672767
C101  C     C_R   0.136802 0.224817 0.801257 0.663849
C102  C     C_R   0.318735 0.767510 0.644842 0.657843
C103  C     C_R   0.867624 0.773946 0.803312 0.608151
C104  C     C_R   0.687571 0.244141 0.642377 0.706763
C105  C     C_R   0.642384 0.292712 0.689313 0.639282
C106  C     C_R   0.821117 0.726893 0.851129 0.732261
C107  C     C_R   0.364087 0.722288 0.694667 0.652470
C108  C     C_R   0.182255 0.270994 0.849630 0.675677
C109  C     C_R   0.691978 0.765518 0.230170 0.629698
C110  C     C_R   0.713376 0.360752 0.307898 0.616591
C111  C     C_R   0.269251 0.180833 0.146812 0.648245
C112  C     C_R   0.288499 0.641232 0.309098 0.631953
H1    H     H_    0.422068 0.246618 0.907976 0.182356
H2    H     H_    0.711808 0.467094 0.838269 0.073977
H3    H     H_    0.580263 0.753920 0.911707 0.163330
H4    H     H_    0.282261 0.540328 0.841912 0.184789
H5    H     H_    0.467009 0.710045 0.161783 0.110419
H6    H     H_    0.752139 0.575673 0.107768 0.107430
H7    H     H_    0.531742 0.290003 0.162606 0.080124
H8    H     H_    0.246372 0.421775 0.089869 0.174489
H9    H     H_    0.952658 0.777816 0.342701 0.176994
H10   H     H_    0.253022 0.922523 0.400039 0.195116
H11   H     H_    0.031004 0.207816 0.336028 0.136411
H12   H     H_    0.746537 0.077913 0.407037 0.205344
H13   H     H_    0.923657 0.252995 0.598753 0.192606
H14   H     H_    0.209857 0.032316 0.662359 0.134637
H15   H     H_    0.077244 0.746676 0.596194 0.114727
H16   H     H_    0.794009 0.969036 0.664611 0.146296
H17   H     H_    0.457994 0.718153 0.838979 0.173454
H18   H     H_    0.247373 0.421868 0.898538 0.201912
H19   H     H_    0.545576 0.281049 0.839401 0.153180
H20   H     H_    0.752955 0.577985 0.901836 0.205279
H21   H     H_    0.420603 0.246716 0.098997 0.212844
H22   H     H_    0.280072 0.545082 0.160725 0.159640
H23   H     H_    0.577765 0.753333 0.099834 0.158352
H24   H     H_    0.719718 0.453768 0.160248 0.164175
H25   H     H_    0.919527 0.253915 0.399241 0.219984
H26   H     H_    0.781794 0.961034 0.342164 0.194941
H27   H     H_    0.077838 0.747185 0.395249 0.185377
H28   H     H_    0.219628 0.044041 0.341063 0.206596
H29   H     H_    0.957619 0.780471 0.659111 0.174906
H30   H     H_    0.746004 0.080607 0.601390 0.216528
H31   H     H_    0.044787 0.220358 0.657702 0.210728
H32   H     H_    0.253630 0.919797 0.596957 0.221836
N1    N     N_R   0.425360 0.368540 0.922560 -0.057487
N2    N     N_R   0.631460 0.425360 0.922560 -0.047191
N3    N     N_R   0.574640 0.631460 0.922560 -0.056328
N4    N     N_R   0.368540 0.574640 0.922560 -0.060532
N5    N     N_R   0.425360 0.631460 0.077440 -0.051620
N6    N     N_R   0.631460 0.574640 0.077440 -0.063958
N7    N     N_R   0.574640 0.368540 0.077440 -0.051768
N8    N     N_R   0.368540 0.425360 0.077440 -0.056412
N9    N     N_R   0.925360 0.868540 0.422560 -0.064262
N10   N     N_R   0.131460 0.925360 0.422560 -0.065906
N11   N     N_R   0.074640 0.131460 0.422560 -0.057409
N12   N     N_R   0.868540 0.074640 0.422560 -0.067919
N13   N     N_R   0.925360 0.131460 0.577440 -0.067224
N14   N     N_R   0.131460 0.074640 0.577440 -0.058238
N15   N     N_R   0.074640 0.868540 0.577440 -0.063344
N16   N     N_R   0.868540 0.925360 0.577440 -0.055185
N17   N     N_R   0.425340 0.631500 0.922560 -0.059613
N18   N     N_R   0.368500 0.425340 0.922560 -0.074192
N19   N     N_R   0.574660 0.368500 0.922560 -0.058673
N20   N     N_R   0.631500 0.574660 0.922560 -0.069658
N21   N     N_R   0.425340 0.368500 0.077440 -0.070019
N22   N     N_R   0.368500 0.574660 0.077440 -0.062074
N23   N     N_R   0.574660 0.631500 0.077440 -0.075368
N24   N     N_R   0.631500 0.425340 0.077440 -0.062151
N25   N     N_R   0.925340 0.131500 0.422560 -0.074492
N26   N     N_R   0.868500 0.925340 0.422560 -0.059407
N27   N     N_R   0.074660 0.868500 0.422560 -0.070518
N28   N     N_R   0.131500 0.074660 0.422560 -0.062748
N29   N     N_R   0.925340 0.868500 0.577440 -0.063973
N30   N     N_R   0.868500 0.074660 0.577440 -0.077424
N31   N     N_R   0.074660 0.131500 0.577440 -0.065079
N32   N     N_R   0.131500 0.925340 0.577440 -0.073850
Ni1   Ni    Ni4+2 0.500000 0.369720 0.000000 0.283625
Ni2   Ni    Ni4+2 0.630280 0.500000 0.000000 0.276357
Ni3   Ni    Ni4+2 0.500000 0.630280 0.000000 0.272284
Ni4   Ni    Ni4+2 0.369720 0.500000 0.000000 0.258673
Ni5   Ni    Ni4+2 1.000000 0.869720 0.500000 0.248941
Ni6   Ni    Ni4+2 0.130280 0.000000 0.500000 0.263806
Ni7   Ni    Ni4+2 1.000000 0.130280 0.500000 0.264454
Ni8   Ni    Ni4+2 0.869720 0.000000 0.500000 0.278584
C113  C     C_2   0.874825 0.208365 0.794759 0.799643
H33   H     H_    0.838772 0.160548 0.776102 -0.120487
O1    O     O_2   0.920770 0.197253 0.847136 -0.466131
C114  C     C_2   0.702692 0.999087 0.792931 0.649930
H34   H     H_    0.724586 0.013316 0.849664 0.033973
O2    O     O_2   0.682850 0.051434 0.749250 -0.524067
C115  C     C_2   0.092695 0.602314 0.640771 0.663939
H35   H     H_    0.064943 0.609783 0.696472 0.050615
O3    O     O_2   0.053310 0.584203 0.585445 -0.480157
C116  C     C_2   0.316047 0.010033 0.775428 0.662911
H36   H     H_    0.298816 0.990480 0.832617 0.038303
O4    O     O_2   0.338632 0.962492 0.728682 -0.481896
C117  C     C_2   0.948573 0.855504 0.115771 0.668325
H37   H     H_    0.908844 0.893171 0.084294 0.027239
O5    O     O_2   0.016422 0.874613 0.122372 -0.514795
C118  C     C_2   0.761373 0.109686 0.223011 0.635645
H38   H     H_    0.800629 0.154940 0.203088 0.000805
O6    O     O_2   0.777583 0.041824 0.210984 -0.562350
C119  C     C_2   0.006616 0.312518 0.219402 0.617022
H39   H     H_    0.988257 0.295102 0.162333 0.040408
O7    O     O_2   0.958008 0.334462 0.265676 -0.519174
C120  C     C_2   0.214765 0.877730 0.203045 0.820140
H40   H     H_    0.163609 0.848070 0.224755 -0.050218
O8    O     O_2   0.208581 0.919378 0.146081 -0.424878
C121  C     C_2   0.428964 0.856106 0.184854 0.715974
H41   H     H_    0.462361 0.871348 0.235464 0.061023
O9    O     O_2   0.455915 0.869212 0.120946 -0.488967
C122  C     C_2   0.193678 0.414599 0.235351 0.708017
H42   H     H_    0.249527 0.395316 0.257367 -0.008248
O10   O     O_2   0.169888 0.479384 0.250975 -0.439400
C123  C     C_2   0.549322 0.148847 0.215008 0.666275
H43   H     H_    0.517009 0.144400 0.268668 0.031150
O11   O     O_2   0.518680 0.128690 0.155140 -0.459452
C124  C     C_2   0.894880 0.644283 0.097523 0.662190
H44   H     H_    0.901186 0.612584 0.151555 0.023657
O12   O     O_2   0.906847 0.610838 0.036969 -0.428623
C125  C     C_2   0.416336 0.198454 0.759438 0.705430
H45   H     H_    0.397281 0.255340 0.739490 0.011382
O13   O     O_2   0.480659 0.174772 0.741506 -0.421136
C126  C     C_2   0.292743 0.520470 0.649477 0.672298
H46   H     H_    0.332276 0.548902 0.609403 0.017848
O14   O     O_2   0.301559 0.451559 0.664353 -0.514980
C127  C     C_2   0.584189 0.822220 0.777788 0.718254
H47   H     H_    0.598369 0.769817 0.746365 0.005503
O15   O     O_2   0.518335 0.848455 0.775170 -0.422066
C128  C     C_2   0.857638 0.422064 0.819626 0.704080
H48   H     H_    0.875966 0.456803 0.770316 0.023524
O16   O     O_2   0.868437 0.446492 0.884487 -0.467671
F1    F     F_    0.936236 0.318442 0.732338 -0.640715
F2    F     F_    0.678225 0.906606 0.691407 -0.655514
F3    F     F_    0.203444 0.612273 0.555777 -0.609840
F4    F     F_    0.323654 0.109926 0.676283 -0.650752
F5    F     F_    0.976261 0.741333 0.193527 -0.675914
F6    F     F_    0.651917 0.068021 0.300800 -0.657977
F7    F     F_    0.104715 0.321728 0.318801 -0.656412
F8    F     F_    0.323364 0.935571 0.268949 -0.644782
F9    F     F_    0.319744 0.793478 0.124243 -0.647725
F10   F     F_    0.104210 0.398758 0.130090 -0.638965
F11   F     F_    0.659713 0.194377 0.141006 -0.658122
F12   F     F_    0.859340 0.759386 0.024411 -0.659671
F13   F     F_    0.401025 0.106910 0.864243 -0.624635
F14   F     F_    0.184769 0.521299 0.738307 -0.649507
F15   F     F_    0.616455 0.903370 0.885341 -0.629342
F16   F     F_    0.790913 0.311760 0.875928 -0.646387
F17   F     F_    0.188164 0.651691 0.403207 -0.575238
F18   F     F_    0.244543 0.060486 0.208900 -0.610896
F19   F     F_    0.815590 0.350486 0.399467 -0.621273
F20   F     F_    0.702299 0.837591 0.343808 -0.618711
F21   F     F_    0.062074 0.245815 0.789299 -0.600558
F22   F     F_    0.353052 0.826581 0.605425 -0.607610
F23   F     F_    0.942050 0.751667 0.790071 -0.658805
F24   F     F_    0.652241 0.196493 0.591547 -0.613701
F25   F     F_    0.563985 0.292590 0.682762 -0.632258
F26   F     F_    0.853497 0.661533 0.881142 -0.608855
F27   F     F_    0.440937 0.737315 0.700589 -0.639807
F28   F     F_    0.148312 0.333266 0.883178 -0.609595
F29   F     F_    0.617108 0.750457 0.250357 -0.661746
F30   F     F_    0.724606 0.438722 0.304370 -0.640828
F31   F     F_    0.331998 0.147338 0.113351 -0.607993
F32   F     F_    0.285239 0.562724 0.314625 -0.627467

loop_
_geom_bond_atom_site_label_1
_geom_bond_atom_site_label_2
_ccdc_geom_bond_type
C31   C66   S    
C116  O4    D    
C119  H39   S    
C3    N3    A    
C77   C93   A    
C25   C121  S    
C57   C92   S    
C31   C127  S    
C16   N16   A    
C103  F23   S    
N16   N29   A    
C1    N1    A    
C28   C69   S    
C19   C30   S    
C7    C55   A    
C126  H46   S    
C10   N10   A    
C47   C62   A    
C115  O3    D    
N8    N21   A    
N12   Ni8   S    
C61   C96   S    
C69   C85   A    
C46   H30   S    
C39   H23   S    
C33   C52   A    
C67   C83   A    
C66   C79   A    
C40   H24   S    
C21   C76   S    
N2    Ni2   S    
C29   C125  S    
C20   C77   S    
C32   F16   S    
N4    N17   A    
C49   C84   S    
C5    C53   A    
C10   C58   A    
C12   N12   A    
C83   C107  A    
C85   C109  A    
N3    N20   A    
C36   H20   S    
N11   Ni7   S    
C24   C73   S    
N7    Ni1   S    
C39   C54   A    
C42   H26   S    
N1    N18   A    
C44   C59   A    
N7    N24   A    
C4    N4    A    
C47   H31   S    
N12   N25   A    
N5    Ni3   S    
C5    N5    A    
C48   H32   S    
C69   C76   A    
C107  F27   S    
C23   C26   S    
C13   N13   A    
C117  O5    D    
C3    C51   A    
C89   C97   A    
N25   Ni7   S    
C2    C50   A    
C43   C58   A    
C121  O9    D    
C88   C112  A    
C58   C89   S    
C37   C56   A    
C124  O12   D    
N11   N28   A    
C113  H33   S    
C114  O2    D    
C17   C113  S    
C118  H38   S    
C20   F4    S    
N9    N26   A    
N19   Ni1   S    
C9    H9    S    
C46   N30   A    
C43   H27   S    
N17   Ni3   S    
C42   N26   A    
N18   Ni4   S    
C30   C67   S    
C24   F8    S    
C75   C91   A    
N13   N30   A    
N6    Ni2   S    
C27   C70   S    
C101  C108  A    
C82   C106  A    
C116  H36   S    
N29   Ni5   S    
C100  C109  A    
C44   H28   S    
C65   C80   A    
C15   H15   S    
C33   N17   A    
C27   C123  S    
C26   C71   S    
C31   F15   S    
C128  H48   S    
C67   C78   A    
C1    H1    S    
C22   C75   S    
C6    C54   A    
C11   C59   A    
C42   C57   A    
C20   C116  S    
C104  C105  A    
C72   C88   A    
C95   C103  A    
C4    C52   A    
C32   C128  S    
C20   C29   S    
N28   Ni6   S    
C29   F13   S    
C81   C105  A    
C40   N24   A    
C22   C118  S    
C46   C61   A    
C115  H35   S    
C68   C84   A    
C7    H7    S    
C122  O10   D    
C24   C25   S    
C41   C60   A    
C9    C57   A    
C99   F19   S    
N30   Ni8   S    
C54   C85   S    
C98   F18   S    
C97   C112  A    
C43   N27   A    
C120  H40   S    
C18   C79   S    
C56   C87   S    
C30   C126  S    
C86   C110  A    
C27   F11   S    
C34   N18   A    
C99   C110  A    
C41   N25   A    
C9    N9    A    
C17   C80   S    
C35   N19   A    
C48   C63   A    
C23   C119  S    
C114  H34   S    
C102  F22   S    
C59   C90   S    
C12   C60   A    
N8    Ni4   S    
C19   C78   S    
C101  F21   S    
C123  H43   S    
C44   N28   A    
C93   C101  A    
C79   C95   A    
C125  H45   S    
C45   N29   A    
C66   C82   A    
C29   C68   S    
C119  O7    D    
C65   C81   A    
C127  H47   S    
C12   H12   S    
N21   Ni1   S    
C40   C55   A    
C35   C50   A    
C18   F2    S    
C121  H41   S    
C13   C61   A    
C102  C107  A    
C28   F12   S    
C25   C72   S    
N15   Ni5   S    
C128  O16   D    
N14   Ni6   S    
C51   C82   S    
C111  F31   S    
C52   C83   S    
C36   C51   A    
C53   C88   S    
C76   C92   A    
C71   C87   A    
C104  F24   S    
C118  O6    D    
C127  O15   D    
C21   C28   S    
N9    Ni5   S    
N23   Ni3   S    
C8    C56   A    
C25   F9    S    
C22   C27   S    
C96   C104  A    
C7    N7    A    
C11   N11   A    
C108  F28   S    
C80   C96   A    
C23   C74   S    
C109  F29   S    
C70   C86   A    
C35   H19   S    
C105  F25   S    
N20   Ni2   S    
C92   C100  A    
N31   Ni7   S    
C50   C81   S    
C60   C91   S    
C33   H17   S    
C68   C77   A    
C38   N22   A    
C8    H8    S    
C100  F20   S    
C34   C49   A    
C28   C124  S    
C98   C111  A    
C30   F14   S    
C16   H16   S    
N26   Ni8   S    
C21   F5    S    
C41   H25   S    
C4    H4    S    
C11   H11   S    
N5    N22   A    
C64   C95   S    
C21   C117  S    
C72   C73   A    
C10   H10   S    
C126  O14   D    
C15   N15   A    
C71   C74   A    
C37   N21   A    
C26   F10   S    
C17   F1    S    
C2    N2    A    
C23   F7    S    
N13   Ni7   S    
N2    N19   A    
C45   C64   A    
C45   H29   S    
C14   H14   S    
C97   F17   S    
N15   N32   A    
C36   N20   A    
C74   C90   A    
C55   C86   S    
C123  O11   D    
C48   N32   A    
C18   C114  S    
C125  O13   D    
C3    H3    S    
C19   F3    S    
C87   C111  A    
C2    H2    S    
C124  H44   S    
C38   C53   A    
C5    H5    S    
C8    N8    A    
C78   C94   A    
N24   Ni2   S    
N6    N23   A    
N10   Ni6   S    
C24   C120  S    
C84   C108  A    
N16   Ni8   S    
N10   N27   A    
C103  C106  A    
C37   H21   S    
C112  F32   S    
C38   H22   S    
C39   N23   A    
C117  H37   S    
N27   Ni5   S    
C14   N14   A    
C110  F30   S    
C19   C115  S    
C113  O1    D    
N32   Ni6   S    
C73   C89   A    
C6    N6    A    
N3    Ni3   S    
N14   N31   A    
N22   Ni4   S    
C122  H42   S    
C34   H18   S    
N4    Ni4   S    
C63   C94   S    
C62   C93   S    
N1    Ni1   S    
C70   C75   A    
C106  F26   S    
C17   C32   S    
C15   C63   A    
C26   C122  S    
C18   C31   S    
C16   C64   A    
C91   C99   A    
C120  O8    D    
C1    C49   A    
C13   H13   S    
C90   C98   A    
C47   N31   A    
C94   C102  A    
C6    H6    S    
C32   C65   S    
C22   F6    S    
C14   C62   A    
