data_mof_unit_1794.cif
_audit_creation_date              2013-03-05T15:45:57-0500
_audit_creation_method            fapswitch 2.2
_symmetry_space_group_name_H-M    P1
_symmetry_Int_Tables_number       1
_space_group_crystal_system       triclinic
_cell_length_a                    19.023113
_cell_length_b                    11.013866
_cell_length_c                    18.942903
_cell_angle_alpha                 89.934671
_cell_angle_beta                  90.254334
_cell_angle_gamma                 89.882623
_cell_volume                      3968.82943029

loop_
_atom_site_label
_atom_site_type_symbol
_atom_site_description
_atom_site_fract_x
_atom_site_fract_y
_atom_site_fract_z
_atom_type_partial_charge
O1    O     O_R   0.787510 0.042610 0.670410 -0.494734
O2    O     O_R   0.212490 0.042610 0.329590 -0.497896
O3    O     O_R   0.287510 0.542610 0.670410 -0.484438
O4    O     O_R   0.712490 0.542610 0.329590 -0.497925
O5    O     O_R   0.765670 0.292090 0.675090 -0.434751
O6    O     O_R   0.234330 0.292090 0.324910 -0.432905
O7    O     O_R   0.265670 0.792090 0.675090 -0.434382
O8    O     O_R   0.734330 0.792090 0.324910 -0.437233
C1    C     C_R   0.730262 0.376350 0.645784 0.569016
C2    C     C_R   0.271998 0.371149 0.356362 0.583870
C3    C     C_R   0.229232 0.873588 0.644702 0.574332
C4    C     C_R   0.770034 0.875785 0.354457 0.572144
O9    O     O_R   0.670220 0.409020 0.668560 -0.538658
O10   O     O_R   0.329780 0.409020 0.331440 -0.524923
O11   O     O_R   0.170220 0.909020 0.668560 -0.528780
O12   O     O_R   0.829780 0.909020 0.331440 -0.536389
O13   O     O_R   0.556580 0.251590 0.674980 -0.505641
O14   O     O_R   0.443420 0.251590 0.325020 -0.501467
O15   O     O_R   0.056580 0.751590 0.674980 -0.501290
O16   O     O_R   0.943420 0.751590 0.325020 -0.505879
C5    C     C_R   0.531906 0.154962 0.646709 0.543919
C6    C     C_R   0.462009 0.154068 0.356749 0.557620
C7    C     C_R   0.036688 0.654425 0.643996 0.552849
C8    C     C_R   0.967728 0.654372 0.353442 0.549597
O17   O     O_R   0.545890 0.049670 0.670030 -0.511995
O18   O     O_R   0.454110 0.049670 0.329970 -0.493246
O19   O     O_R   0.045890 0.549670 0.670030 -0.502822
O20   O     O_R   0.954110 0.549670 0.329970 -0.507009
O21   O     O_R   0.681340 0.957860 0.676500 -0.507662
O22   O     O_R   0.318660 0.957860 0.323500 -0.507271
O23   O     O_R   0.181340 0.457860 0.676500 -0.510192
O24   O     O_R   0.818660 0.457860 0.323500 -0.506777
C9    C     C_R   0.739947 0.974614 0.645636 0.543974
C10   C     C_R   0.259363 0.972599 0.353594 0.545157
C11   C     C_R   0.241182 0.470082 0.647409 0.544375
C12   C     C_R   0.760403 0.475805 0.354859 0.543292
O25   O     O_R   0.787380 0.044010 0.830940 -0.501026
O26   O     O_R   0.212620 0.044010 0.169060 -0.509452
O27   O     O_R   0.287380 0.544010 0.830940 -0.484771
O28   O     O_R   0.712620 0.544010 0.169060 -0.502372
O29   O     O_R   0.765540 0.293390 0.823910 -0.443034
O30   O     O_R   0.234460 0.293390 0.176090 -0.426622
O31   O     O_R   0.265540 0.793390 0.823910 -0.433386
O32   O     O_R   0.734460 0.793390 0.176090 -0.447368
C13   C     C_R   0.726401 0.369593 0.856068 0.588093
C14   C     C_R   0.286718 0.335693 0.139098 0.543153
C15   C     C_R   0.213592 0.832599 0.860765 0.556242
C16   C     C_R   0.773888 0.867948 0.143793 0.585202
O33   O     O_R   0.670090 0.410410 0.829090 -0.496418
O34   O     O_R   0.329910 0.410410 0.170910 -0.448123
O35   O     O_R   0.170090 0.910410 0.829090 -0.460485
O36   O     O_R   0.829910 0.910410 0.170910 -0.491349
O37   O     O_R   0.556450 0.252890 0.823790 -0.517171
O38   O     O_R   0.443550 0.252890 0.176210 -0.519388
O39   O     O_R   0.056450 0.752890 0.823790 -0.531088
O40   O     O_R   0.943550 0.752890 0.176210 -0.519248
C17   C     C_R   0.533926 0.155908 0.854432 0.544588
C18   C     C_R   0.438080 0.153290 0.139364 0.531332
C19   C     C_R   0.038418 0.655475 0.856022 0.550643
C20   C     C_R   0.962283 0.655698 0.144176 0.554269
O41   O     O_R   0.545750 0.051070 0.830560 -0.451982
O42   O     O_R   0.454250 0.051070 0.169440 -0.423040
O43   O     O_R   0.045750 0.551070 0.830560 -0.445565
O44   O     O_R   0.954250 0.551070 0.169440 -0.448933
O45   O     O_R   0.681210 0.959150 0.825320 -0.447369
O46   O     O_R   0.318790 0.959150 0.174680 -0.459601
O47   O     O_R   0.181210 0.459150 0.825320 -0.451009
O48   O     O_R   0.818790 0.459150 0.174680 -0.448403
C21   C     C_R   0.741158 0.970778 0.854484 0.548887
C22   C     C_R   0.257279 0.967294 0.147532 0.541335
C23   C     C_R   0.242865 0.465556 0.851712 0.546160
C24   C     C_R   0.758052 0.468063 0.147036 0.552214
Cr1   Cr    Cr6+3 0.771950 0.169480 0.750100 1.148014
Cr2   Cr    Cr6+3 0.228050 0.169480 0.249900 1.137316
Cr3   Cr    Cr6+3 0.271950 0.669480 0.750100 1.143838
Cr4   Cr    Cr6+3 0.728050 0.669480 0.249900 1.146922
Cr5   Cr    Cr6+3 0.614930 0.323340 0.749170 1.054833
Cr6   Cr    Cr6+3 0.385070 0.323340 0.250830 1.068981
Cr7   Cr    Cr6+3 0.114930 0.823340 0.749170 1.063131
Cr8   Cr    Cr6+3 0.885070 0.823340 0.250830 1.057722
Cr9   Cr    Cr6+3 0.616590 0.010620 0.750610 1.119563
Cr10  Cr    Cr6+3 0.383410 0.010620 0.249390 1.131215
Cr11  Cr    Cr6+3 0.116590 0.510620 0.750610 1.127417
Cr12  Cr    Cr6+3 0.883410 0.510620 0.249390 1.128696
O49   O     O_3   0.667820 0.167810 0.749960 -0.303278
O50   O     O_3   0.332180 0.167810 0.250040 -0.344851
O51   O     O_3   0.167820 0.667810 0.749960 -0.324339
O52   O     O_3   0.832180 0.667810 0.250040 -0.309547
C25   C     C_R   0.474837 0.158325 0.432556 0.016663
C26   C     C_R   0.494355 0.161294 0.579652 0.013364
C27   C     C_R   0.002561 0.657149 0.421806 0.019374
C28   C     C_R   0.021167 0.658380 0.568920 0.011197
C29   C     C_R   0.475884 0.268820 0.469607 0.007507
C30   C     C_R   0.486338 0.270163 0.541783 0.005077
C31   C     C_R   0.019741 0.764542 0.457202 0.008368
C32   C     C_R   0.030478 0.764745 0.529308 0.018188
C33   C     C_R   0.477242 0.051879 0.545073 -0.126339
C34   C     C_R   0.468116 0.050259 0.472282 -0.121734
C35   C     C_R   0.016099 0.547721 0.532056 -0.127977
C36   C     C_R   0.007929 0.547001 0.459469 -0.110733
C37   C     C_3   0.515913 0.385489 0.459111 -0.258161
C38   C     C_3   0.527571 0.386414 0.538880 -0.257595
C39   C     C_3   0.988714 0.889598 0.457489 -0.257765
C40   C     C_3   0.001311 0.890825 0.537002 -0.251284
H1    H     H_    0.478396 0.965325 0.572497 0.199355
H2    H     H_    0.458637 0.963094 0.447292 0.184242
H3    H     H_    0.016328 0.460790 0.558943 0.194395
H4    H     H_    0.998303 0.459848 0.434758 0.204177
H5    H     H_    0.932084 0.888915 0.443502 0.159742
H6    H     H_    0.042065 0.958097 0.552872 0.158806
H7    H     H_    0.482166 0.462987 0.441090 0.160333
H8    H     H_    0.583761 0.372525 0.553464 0.165543
H9    H     H_    0.565767 0.373785 0.428561 0.151877
H10   H     H_    0.500078 0.463166 0.566179 0.162773
H11   H     H_    0.021666 0.956358 0.428158 0.163528
H12   H     H_    0.951978 0.894286 0.568513 0.147739
C41   C     C_R   0.691424 0.881329 0.536479 -0.101242
C42   C     C_R   0.303393 0.867133 0.460537 -0.104616
C43   C     C_R   0.193860 0.373538 0.539385 -0.103887
C44   C     C_R   0.808155 0.379898 0.463780 -0.102242
H13   H     H_    0.646068 0.848661 0.565103 0.166336
H14   H     H_    0.346585 0.828355 0.430946 0.163712
H15   H     H_    0.145177 0.351522 0.566134 0.163891
H16   H     H_    0.851531 0.341707 0.434341 0.163542
C45   C     C_R   0.693759 0.867215 0.463384 0.214093
C46   C     C_R   0.300984 0.850614 0.533319 0.213135
C47   C     C_R   0.197743 0.358078 0.466588 0.208206
C48   C     C_R   0.806178 0.364909 0.536805 0.216882
C49   C     C_R   0.751666 0.914409 0.425749 0.040103
C50   C     C_R   0.246148 0.906485 0.572264 0.037826
C51   C     C_R   0.258941 0.396465 0.430736 0.037230
C52   C     C_R   0.750186 0.417312 0.575335 0.038796
C53   C     C_R   0.802300 0.982904 0.461553 -0.179004
C54   C     C_R   0.196593 0.979125 0.537267 -0.170460
C55   C     C_R   0.315671 0.444360 0.469441 -0.155808
C56   C     C_R   0.702382 0.493618 0.540742 -0.185810
H17   H     H_    0.845445 0.025780 0.434323 0.158496
H18   H     H_    0.154740 0.024879 0.565116 0.155226
H19   H     H_    0.363584 0.474442 0.444445 0.157368
H20   H     H_    0.660404 0.538937 0.568700 0.159153
C57   C     C_R   0.801544 0.991076 0.533562 -0.143881
C58   C     C_R   0.197543 0.990142 0.465450 -0.137154
C59   C     C_R   0.312580 0.454353 0.541297 -0.119242
C60   C     C_R   0.703043 0.503821 0.468686 -0.150399
H21   H     H_    0.843683 0.040781 0.558654 0.206306
H22   H     H_    0.157157 0.046078 0.441232 0.202110
H23   H     H_    0.357474 0.493855 0.568313 0.192093
H24   H     H_    0.662770 0.559206 0.444277 0.209628
C61   C     C_R   0.746411 0.940392 0.571980 -0.016434
C62   C     C_R   0.251231 0.935409 0.426380 -0.012661
C63   C     C_R   0.250827 0.423537 0.576655 -0.011640
C64   C     C_R   0.754971 0.445389 0.429225 -0.018008
C65   C     C_R   0.480472 0.050432 0.957701 0.154843
C66   C     C_R   0.452374 0.052400 0.024539 0.138482
C67   C     C_R   0.022828 0.549161 0.969348 0.164557
C68   C     C_R   0.993124 0.548406 0.034896 0.172054
C69   C     C_R   0.455612 0.159283 0.064311 -0.024056
C70   C     C_R   0.500310 0.159941 0.923912 -0.017971
C71   C     C_R   0.985444 0.659103 0.071535 -0.017586
C72   C     C_R   0.020664 0.658287 0.930045 -0.019156
C73   C     C_R   0.478759 0.267333 0.032718 -0.182831
C74   C     C_R   0.497492 0.268856 0.961722 -0.183198
C75   C     C_R   0.993505 0.769441 0.035935 -0.191972
C76   C     C_R   0.006188 0.768565 0.963836 -0.197067
H25   H     H_    0.483876 0.349874 0.063089 0.164223
H26   H     H_    0.514788 0.353184 0.938338 0.159406
H27   H     H_    0.986088 0.855205 0.062688 0.161240
H28   H     H_    0.006651 0.853695 0.935222 0.161099
C77   C     C_R   0.817066 0.932012 0.956754 -0.136142
C78   C     C_R   0.179489 0.928977 0.045818 -0.127749
C79   C     C_R   0.321364 0.427160 0.951520 -0.137441
C80   C     C_R   0.684061 0.441244 0.043043 -0.142917
H29   H     H_    0.862281 0.970104 0.929560 0.194963
H30   H     H_    0.137172 0.979346 0.070404 0.210968
H31   H     H_    0.364399 0.471153 0.924118 0.212971
H32   H     H_    0.639350 0.480681 0.070233 0.205170
C81   C     C_R   0.822812 0.911378 0.027903 -0.117002
C82   C     C_R   0.171574 0.894473 0.976492 -0.124901
C83   C     C_R   0.328886 0.405429 0.022719 -0.128834
C84   C     C_R   0.678862 0.424535 0.971531 -0.123094
H33   H     H_    0.874252 0.926171 0.051681 0.186617
H34   H     H_    0.122321 0.918049 0.950928 0.188729
H35   H     H_    0.377414 0.432944 0.047649 0.195166
H36   H     H_    0.628327 0.443634 0.947281 0.197329
C85   C     C_R   0.762750 0.883284 0.068008 -0.011815
C86   C     C_R   0.227500 0.842761 0.938685 -0.034799
C87   C     C_R   0.273037 0.359653 0.062747 -0.014080
C88   C     C_R   0.737883 0.390267 0.931807 -0.013043
C89   C     C_R   0.699742 0.845547 0.033141 0.169403
C90   C     C_R   0.287743 0.794213 0.979150 0.176437
C91   C     C_R   0.210047 0.323104 0.027471 0.182418
C92   C     C_R   0.799834 0.351131 0.967169 0.172394
C93   C     C_R   0.696939 0.852905 0.958686 0.186582
C94   C     C_R   0.289420 0.819541 0.053229 0.202402
C95   C     C_R   0.206024 0.331776 0.952779 0.193526
C96   C     C_R   0.801464 0.351796 0.042028 0.188781
C97   C     C_R   0.753023 0.910555 0.922349 -0.032869
C98   C     C_R   0.241585 0.902645 0.082046 -0.035495
C99   C     C_R   0.257998 0.400404 0.917305 -0.034486
C100  C     C_R   0.746561 0.412604 0.078228 -0.032668
N1    N     N_R   0.640420 0.797447 0.072210 0.103810
O53   O     O_R   0.603874 0.706822 0.047769 -0.260074
O54   O     O_R   0.617184 0.853738 0.128053 -0.279329
N2    N     N_R   0.345020 0.717705 0.951073 0.080930
O55   O     O_R   0.392900 0.673031 0.993225 -0.260996
O56   O     O_R   0.358846 0.706104 0.884727 -0.277486
N3    N     N_R   0.149455 0.284297 0.067225 0.104311
O57   O     O_R   0.110761 0.194168 0.045891 -0.272419
O58   O     O_R   0.124673 0.355293 0.116282 -0.278547
N4    N     N_R   0.860255 0.311328 0.927195 0.101239
O59   O     O_R   0.898079 0.219241 0.947686 -0.248833
O60   O     O_R   0.879422 0.371604 0.871347 -0.302237
N5    N     N_R   0.647655 0.777559 0.920168 0.122106
O61   O     O_R   0.602331 0.821361 0.875749 -0.252005
O62   O     O_R   0.656234 0.660664 0.921623 -0.323843
N6    N     N_R   0.325013 0.736904 0.101146 0.122367
O63   O     O_R   0.372286 0.770886 0.146624 -0.246852
O64   O     O_R   0.307867 0.623077 0.099541 -0.308294
N7    N     N_R   0.162831 0.245560 0.914373 0.124347
O65   O     O_R   0.132155 0.270905 0.854863 -0.265996
O66   O     O_R   0.170689 0.131382 0.929139 -0.318115
N8    N     N_R   0.845068 0.264146 0.078827 0.122819
O67   O     O_R   0.880134 0.288746 0.136080 -0.259788
O68   O     O_R   0.836460 0.150494 0.063799 -0.323294
Cl1   Cl    Cl    0.621411 0.796978 0.422043 -0.611043
Cl2   Cl    Cl    0.368189 0.760905 0.571434 -0.633132
Cl3   Cl    Cl    0.123520 0.296266 0.423612 -0.635384
Cl4   Cl    Cl    0.876107 0.284570 0.576600 -0.624676
N9    N     N_R   0.504011 0.934640 0.934098 -0.058320
O69   O     O_R   0.463016 0.863702 0.897998 -0.002431
O70   O     O_R   0.463573 0.862506 0.897187 -0.002448
N10   N     N_R   0.431162 0.939908 0.055713 -0.106317
O71   O     O_R   0.478453 0.856514 0.070185 -0.001167
O72   O     O_R   0.477772 0.855839 0.070267 -0.001170
N11   N     N_R   0.054443 0.439295 0.943898 -0.091519
O73   O     O_R   0.017037 0.358976 0.910421 -0.000813
O74   O     O_R   0.016550 0.359145 0.910578 -0.000813
N12   N     N_R   0.959009 0.439653 0.058091 -0.080501
O75   O     O_R   0.992889 0.336514 0.061875 -0.000706
O76   O     O_R   0.993098 0.336884 0.061508 -0.000704

loop_
_geom_bond_atom_site_label_1
_geom_bond_atom_site_label_2
_geom_bond_distance
_ccdc_geom_bond_type
C18   O42   1.297027 A    
Cr11  O51   1.988510 S    
C17   C70   1.466514 S    
O4    C12   1.262469 A    
C53   H17   1.080504 S    
C37   C38   1.526318 S    
O39   C19   1.281982 A    
O20   Cr12  2.075915 S    
O5    Cr1   1.962221 S    
C37   H9    1.120479 S    
N1    O53   1.301906 A    
C58   H22   1.083757 S    
C38   H8    1.113060 S    
C31   C32   1.380176 A    
C20   C71   1.447181 S    
C28   C32   1.402435 A    
C41   C61   1.402536 A    
C56   H20   1.081680 S    
C79   C83   1.376288 A    
Cr6   O50   1.988425 S    
C95   N7    1.451067 S    
C73   C74   1.392906 A    
C10   C62   1.446929 S    
C57   C61   1.396248 A    
C50   C54   1.399419 A    
N5    O61   1.294251 A    
O15   Cr7   1.955490 S    
C59   H23   1.085673 S    
O5    C1    1.271246 A    
C29   C30   1.380835 A    
C5    O17   1.267794 A    
C78   C82   1.375245 A    
C73   H25   1.080732 S    
C92   C96   1.418289 A    
C43   C63   1.404495 A    
C77   C97   1.399756 A    
N6    O64   1.296406 A    
C51   C55   1.405942 A    
C94   N6    1.449424 S    
C93   C97   1.422502 A    
C52   C56   1.397509 A    
O47   C23   1.275057 A    
C24   C100  1.455901 S    
C46   C50   1.419985 A    
C81   C85   1.409604 A    
C81   H33   1.088066 S    
C33   C34   1.389138 A    
O8    Cr4   1.964785 S    
O23   Cr11  1.959583 S    
O32   Cr4   1.957061 S    
C42   H14   1.083947 S    
C69   C73   1.403972 A    
C77   C81   1.370393 A    
C65   C70   1.417410 A    
C42   C62   1.399602 A    
C1    O9    1.274055 A    
C2    C51   1.458791 S    
O44   Cr12  2.080192 S    
O17   Cr9   2.074050 S    
C79   C99   1.398183 A    
C84   C88   1.405589 A    
C74   H26   1.081069 S    
C3    O11   1.272738 A    
O11   Cr7   2.084107 S    
C7    O19   1.265744 A    
C4    O12   1.273408 A    
O21   C9    1.274854 A    
C84   H36   1.083726 S    
N11   O73   1.300342 A    
O6    Cr2   1.964785 S    
O27   Cr3   2.080956 S    
C14   C87   1.491537 S    
O3    Cr3   2.079902 S    
Cr4   O52   1.980916 S    
C26   C33   1.410235 A    
C87   C91   1.428252 A    
O2    Cr2   2.078405 S    
C60   H24   1.080345 S    
C33   H1    1.085281 S    
Cr9   O49   1.988510 S    
C80   C84   1.370472 A    
C59   C63   1.397100 A    
O24   C12   1.274875 A    
O42   Cr10  2.080192 S    
C60   C64   1.397772 A    
Cr5   O49   1.984841 S    
O18   Cr10  2.075915 S    
C40   H12   1.115066 S    
Cr8   O52   1.988425 S    
C21   C97   1.462331 S    
N2    O55   1.303868 A    
N11   O74   1.302731 A    
C65   N9    1.423940 S    
C46   Cl2   1.765488 S    
C11   C63   1.447819 S    
N1    O54   1.305093 A    
O8    C4    1.274632 A    
C48   C52   1.416220 A    
Cr7   O51   1.984841 S    
C31   C39   1.497401 S    
C20   O44   1.257154 A    
C26   C30   1.404249 A    
C90   C94   1.431261 A    
C95   C99   1.417119 A    
C5    C26   1.456095 S    
N5    O62   1.297682 A    
O31   Cr3   1.958935 S    
O24   Cr12  1.960131 S    
N12   O76   1.304735 A    
C36   H4    1.083977 S    
C22   C98   1.461012 S    
C44   C64   1.400855 A    
C4    C49   1.460049 S    
O22   C10   1.276292 A    
O1    C9    1.264734 A    
N3    O57   1.300684 A    
O48   Cr12  1.955651 S    
C83   H35   1.079182 S    
C8    O20   1.263322 A    
C76   H28   1.082548 S    
N6    O63   1.298536 A    
C66   C69   1.399676 A    
C2    O10   1.269295 A    
C29   C37   1.508422 S    
C93   N5    1.448609 S    
O38   C18   1.304960 A    
O16   Cr8   1.952353 S    
C12   C64   1.451808 S    
O7    Cr3   1.962221 S    
C91   C95   1.419700 A    
C68   N12   1.432979 S    
O27   C23   1.274256 A    
Cr10  O50   1.985055 S    
C79   H31   1.085943 S    
O13   C5    1.280954 A    
O40   C20   1.281763 A    
C44   H16   1.082580 S    
O48   C24   1.270002 A    
O12   Cr8   2.083730 S    
C86   C90   1.474982 A    
O15   C7    1.278300 A    
O21   Cr9   1.959583 S    
N9    O69   1.298161 A    
C38   H10   1.121222 S    
C89   C93   1.413404 A    
C54   C58   1.365879 A    
O39   Cr7   1.962825 S    
C19   C72   1.444115 S    
O7    C3    1.268964 A    
C35   C36   1.383110 A    
C67   N11   1.435013 S    
C75   H27   1.081737 S    
C48   Cl4   1.762274 S    
Cr1   O49   1.980990 S    
O13   Cr5   1.955490 S    
C13   O33   1.266253 A    
C96   C100  1.419198 A    
O36   Cr8   2.071499 S    
C91   N3    1.444767 S    
O47   Cr11  1.953255 S    
Cr2   O50   1.980916 S    
C15   C86   1.502729 S    
C17   O41   1.260699 A    
C92   N4    1.446747 S    
C82   H34   1.083730 S    
O30   Cr2   1.957061 S    
C85   C89   1.428725 A    
C49   C53   1.398294 A    
Cr3   O51   1.980990 S    
O26   C22   1.266048 A    
N2    O56   1.291587 A    
N4    O60   1.302176 A    
C32   C40   1.501804 S    
C45   C49   1.414343 A    
O30   C14   1.305252 A    
O37   Cr5   1.962825 S    
C27   C36   1.409984 A    
O25   C21   1.276005 A    
C71   C75   1.398180 A    
O3    C11   1.266852 A    
C90   N2    1.477354 S    
C3    C50   1.456348 S    
C72   C76   1.400980 A    
O34   Cr6   2.071499 S    
C45   Cl1   1.761257 S    
O14   Cr6   1.952353 S    
O26   Cr2   2.084069 S    
C1    C52   1.460119 S    
C7    C28   1.451789 S    
N7    O65   1.296917 A    
O25   Cr1   2.080956 S    
N12   O75   1.306651 A    
N8    O68   1.294590 A    
O37   C17   1.290009 A    
O22   Cr10  1.960131 S    
O28   C24   1.273468 A    
C66   N10   1.431465 S    
C67   C72   1.413519 A    
O14   C6    1.278687 A    
C19   O43   1.255220 A    
C68   C71   1.411246 A    
Cr12  O52   1.985055 S    
C18   C69   1.463197 S    
O40   Cr8   1.962302 S    
C54   H18   1.081138 S    
C15   O35   1.330719 A    
C44   C48   1.393609 A    
C13   C88   1.468375 S    
C23   C99   1.461366 S    
C78   H30   1.083883 S    
C43   H15   1.085382 S    
C37   H7    1.119082 S    
C35   H3    1.083973 S    
C14   O34   1.309570 A    
C53   C57   1.367261 A    
C39   H11   1.116393 S    
C34   H2    1.085925 S    
C88   C92   1.419020 A    
C25   C34   1.413758 A    
C39   H5    1.108280 S    
C55   H19   1.081396 S    
C89   N1    1.452872 S    
C78   C98   1.393342 A    
C58   C62   1.399791 A    
C47   C51   1.415502 A    
O19   Cr11  2.074050 S    
O1    Cr1   2.079902 S    
C16   C85   1.459781 S    
C56   C60   1.369559 A    
O32   C16   1.271467 A    
C9    C61   1.451353 S    
O46   Cr10  1.955651 S    
C40   H6    1.114082 S    
C77   H29   1.089100 S    
O2    C10   1.260636 A    
C94   C98   1.402123 A    
O31   C15   1.286663 A    
C47   Cl3   1.764900 S    
O45   C21   1.271720 A    
C55   C59   1.367242 A    
C57   H21   1.080381 S    
C6    C25   1.456352 S    
O33   Cr5   2.075083 S    
C80   C100  1.395804 A    
O23   C11   1.274262 A    
N7    O66   1.296174 A    
O10   Cr6   2.083730 S    
C25   C29   1.405694 A    
N8    O67   1.299850 A    
O35   Cr7   2.075083 S    
O4    Cr4   2.078405 S    
C75   C76   1.388015 A    
O6    C2    1.275370 A    
C70   C74   1.398882 A    
O29   Cr1   1.958935 S    
C8    C27   1.452452 S    
C82   C86   1.405117 A    
O28   Cr4   2.084069 S    
N10   O72   1.308966 A    
C16   O36   1.271239 A    
C83   C87   1.402276 A    
O46   C22   1.279001 A    
C30   C38   1.503992 S    
C27   C31   1.398888 A    
N9    O70   1.307982 A    
N4    O59   1.300274 A    
C6    O18   1.266241 A    
O43   Cr11  2.079750 S    
C39   C40   1.524171 S    
N3    O58   1.304336 A    
O29   C13   1.277688 A    
O45   Cr9   1.953255 S    
O41   Cr9   2.079750 S    
C41   H13   1.083002 S    
C42   C46   1.391409 A    
C65   C66   1.376679 A    
C67   C68   1.366517 A    
C41   C45   1.394399 A    
O9    Cr5   2.084107 S    
O16   C8    1.282441 A    
C96   N8    1.447723 S    
C80   H32   1.086390 S    
C28   C35   1.408613 A    
N10   O71   1.312218 A    
O38   Cr6   1.962302 S    
C43   C47   1.391916 A    
