data_mof_unit_115.cif
_audit_creation_date              2012-12-10T18:44:21-0500
_audit_creation_method            fapswitch 2.2
_symmetry_space_group_name_H-M    P1
_symmetry_Int_Tables_number       1
_space_group_crystal_system       triclinic
_cell_length_a                    12.784154
_cell_length_b                    10.680507
_cell_length_c                    9.916689
_cell_angle_alpha                 90.514224
_cell_angle_beta                  97.724786
_cell_angle_gamma                 91.266462
_cell_volume                      1341.32409825

loop_
_atom_site_label
_atom_site_type_symbol
_atom_type_description
_atom_site_fract_x
_atom_site_fract_y
_atom_site_fract_z
_atom_type_partial_charge
C1    C     C_R   0.499223 0.260169 0.499409 0.870032
C2    C     C_R   0.500453 0.739838 0.500515 0.863801
C3    C     C_R   0.500485 0.872395 0.500764 -0.055099
C4    C     C_R   0.498521 0.127623 0.498883 -0.039768
C5    C     C_R   0.556192 0.589580 0.083775 0.575765
C6    C     C_R   0.441953 0.412200 0.915998 0.579683
C7    C     C_R   0.555052 0.590804 0.939111 -0.191813
C8    C     C_R   0.444558 0.409563 0.060779 -0.204707
C9    C     C_R   0.298813 0.498818 0.472716 0.950101
C10   C     C_R   0.701323 0.496457 0.527101 0.962207
C11   C     C_R   0.813443 0.501868 0.544130 -0.214998
C12   C     C_R   0.187228 0.487640 0.455459 -0.248836
C13   C     C_R   0.037217 0.347462 0.412899 0.589039
C14   C     C_R   0.969073 0.631004 0.607861 0.605112
C15   C     C_R   0.141370 0.376520 0.400716 -0.407919
C16   C     C_R   0.863494 0.603434 0.615681 -0.432631
C17   C     C_R   0.131064 0.575815 0.518666 0.499336
C18   C     C_R   0.867505 0.416428 0.473645 0.485207
C19   C     C_R   0.025677 0.548805 0.533400 -0.195058
C20   C     C_R   0.976249 0.436280 0.472687 -0.211732
C21   C     C_R   0.535583 0.064272 0.391839 -0.135119
C22   C     C_R   0.463194 0.935737 0.607660 -0.157632
C23   C     C_R   0.536656 0.936050 0.392860 -0.167713
C24   C     C_R   0.462069 0.064000 0.606628 -0.177858
H1    H     H_    0.818594 0.664734 0.672535 0.167904
H2    H     H_    0.188552 0.308061 0.356375 0.175316
H3    H     H_    0.564897 0.113588 0.308967 0.181518
H4    H     H_    0.433896 0.886383 0.690497 0.199819
H5    H     H_    0.566538 0.887116 0.310420 0.215192
H6    H     H_    0.432203 0.113052 0.689061 0.214351
N1    N     N_R   0.499970 0.499970 0.857200 -0.194038
N2    N     N_R   0.500030 0.500030 0.142800 -0.200166
O1    O     O_R   0.499990 0.316750 0.614620 -0.574025
O2    O     O_R   0.500010 0.683250 0.385380 -0.570387
O3    O     O_R   0.499990 0.316780 0.385290 -0.654311
O4    O     O_R   0.500010 0.683220 0.614710 -0.636333
O5    O     O_R   0.346360 0.499970 0.595710 -0.573983
O6    O     O_R   0.653640 0.500030 0.404290 -0.609372
O7    O     O_R   0.346360 0.499990 0.366380 -0.656847
O8    O     O_R   0.653640 0.500010 0.633620 -0.650757
Zn1   Zn    Zn3+2 0.500000 0.499980 0.653120 0.986298
Zn2   Zn    Zn3+2 0.500000 0.500020 0.346880 0.960634
O9    O     O_3   0.814747 0.308482 0.418965 -0.592522
C25   C     C_3   0.791321 0.316819 0.275672 -0.176783
H7    H     H_    0.845481 0.380829 0.228032 0.125664
H8    H     H_    0.708467 0.344776 0.246879 0.166247
H9    H     H_    0.797713 0.222198 0.230875 0.204077
O10   O     O_3   0.182464 0.683612 0.574779 -0.553796
C26   C     C_3   0.185957 0.772475 0.470910 -0.263405
H10   H     H_    0.105547 0.792037 0.418239 0.146572
H11   H     H_    0.219873 0.861673 0.517713 0.187682
H12   H     H_    0.237756 0.741808 0.395917 0.149088
O11   O     O_3   0.996343 0.232096 0.365217 -0.578609
C27   C     C_3   0.024424 0.142102 0.466041 -0.272415
H13   H     H_    0.992698 0.165494 0.562196 0.169830
H14   H     H_    0.111522 0.131313 0.485901 0.139820
H15   H     H_    0.989189 0.050376 0.428701 0.180083
O12   O     O_3   0.019794 0.731319 0.681624 -0.543296
C28   C     C_3   0.968058 0.844309 0.646392 -0.287104
H16   H     H_    0.939171 0.849761 0.535466 0.125356
H17   H     H_    0.025303 0.923238 0.672226 0.190150
H18   H     H_    0.902025 0.857500 0.706928 0.168721
O13   O     O_3   0.610059 0.681674 0.166281 -0.554891
C29   C     C_3   0.719824 0.661115 0.180488 -0.251307
H19   H     H_    0.756768 0.713636 0.102539 0.175096
H20   H     H_    0.739955 0.560628 0.175169 0.110081
H21   H     H_    0.755944 0.697851 0.281522 0.175912
O14   O     O_3   0.381947 0.325407 0.832766 -0.562596
C30   C     C_3   0.274309 0.357216 0.821115 -0.228948
H22   H     H_    0.261769 0.460065 0.813649 0.167591
H23   H     H_    0.237034 0.319649 0.907533 0.160947
H24   H     H_    0.232333 0.312979 0.726816 0.171548
C31   C     C_2   0.611443 0.692472 0.876954 0.478669
H25   H     H_    0.655048 0.672981 0.793582 0.087629
O15   O     O_2   0.609038 0.800368 0.918015 -0.555284
C32   C     C_2   0.387411 0.308089 0.122378 0.472524
H26   H     H_    0.346382 0.326810 0.208307 0.099505
O16   O     O_2   0.385533 0.201224 0.077135 -0.552050

loop_
_geom_bond_atom_site_label_1
_geom_bond_atom_site_label_2
_ccdc_geom_bond_type
C11   C18   A    
C31   H25   S    
C3    C23   A    
C19   C20   A    
O2    Zn2   S    
C17   O10   S    
C9    O7    A    
C1    O1    A    
C7    C31   S    
O11   C27   S    
C23   H5    S    
C32   O16   D    
O6    Zn2   S    
C4    C24   A    
C8    C32   S    
C5    O13   S    
C10   O8    A    
C30   H23   S    
O3    Zn2   S    
O14   C30   S    
C26   H11   S    
C12   C17   A    
C18   C20   A    
C25   H9    S    
C5    N2    A    
C2    O2    A    
C6    O14   S    
C6    N1    A    
C21   H3    S    
C28   H16   S    
C22   H4    S    
C31   O15   D    
O4    Zn1   S    
C25   H8    S    
O7    Zn2   S    
C13   O11   S    
C14   O12   S    
C27   H14   S    
C28   H17   S    
C7    N1    A    
C8    N2    A    
C29   H21   S    
C32   H26   S    
C5    C7    A    
C15   H2    S    
C6    C8    A    
O12   C28   S    
C29   H20   S    
C30   H24   S    
O9    C25   S    
C11   C16   A    
C12   C15   A    
C26   H12   S    
C9    O5    A    
O8    Zn1   S    
C13   C15   A    
C14   C16   A    
C25   H7    S    
C1    O3    A    
C2    O4    A    
C16   H1    S    
C27   H13   S    
O10   C26   S    
C28   H18   S    
N1    Zn1   S    
C13   C20   A    
C14   C19   A    
C10   O6    A    
C1    C4    S    
O1    Zn1   S    
C29   H19   S    
C21   C23   A    
C2    C3    S    
C18   O9    S    
C4    C21   A    
C17   C19   A    
C22   C24   A    
O5    Zn1   S    
C30   H22   S    
C9    C12   S    
C24   H6    S    
C10   C11   S    
O13   C29   S    
C26   H10   S    
N2    Zn2   S    
C3    C22   A    
C27   H15   S    
