data_mof_unit_2639.cif
_audit_creation_date              2012-12-11T14:29:37-0500
_audit_creation_method            fapswitch 2.2
_symmetry_space_group_name_H-M    P1
_symmetry_Int_Tables_number       1
_space_group_crystal_system       triclinic
_cell_length_a                    6.952222
_cell_length_b                    14.785194
_cell_length_c                    16.228794
_cell_angle_alpha                 90.703503
_cell_angle_beta                  90.421686
_cell_angle_gamma                 89.699936
_cell_volume                      1667.96392402

loop_
_atom_site_label
_atom_site_type_symbol
_atom_type_description
_atom_site_fract_x
_atom_site_fract_y
_atom_site_fract_z
_atom_type_partial_charge
O1    O     O_R   0.494400 0.416610 0.413880 -0.544125
O2    O     O_R   0.823920 0.406790 0.585520 -0.527031
O3    O     O_R   0.994250 0.583390 0.586120 -0.536875
C1    C     C_R   0.656308 0.384681 0.612384 0.781740
O4    O     O_R   0.824110 0.405730 0.414490 -0.544899
O5    O     O_R   0.994440 0.582310 0.413870 -0.548843
C2    C     C_R   0.654745 0.383607 0.386439 0.747679
O6    O     O_R   0.494210 0.417690 0.586130 -0.506649
O7    O     O_3   0.660810 0.557940 0.500000 -0.384514
V1    V     V_3+5 0.935650 0.489250 0.500000 1.505863
O8    O     O_R   0.324160 0.593210 0.414480 -0.545455
C3    C     C_R   0.154885 0.616581 0.388367 0.718213
O9    O     O_R   0.323970 0.594270 0.585510 -0.532876
C4    C     C_R   0.156042 0.612858 0.616553 0.774741
V2    V     V_3+5 0.435660 0.510750 0.500000 1.503485
O10   O     O_3   0.160630 0.442060 0.500000 -0.350779
C5    C     C_R   0.170818 0.558321 0.797814 0.152541
C6    C     C_R   0.161260 0.536071 0.882688 0.146131
C7    C     C_R   0.111323 0.603103 0.941023 0.164258
C8    C     C_R   0.097706 0.692723 0.916749 -0.156969
C9    C     C_R   0.121496 0.718604 0.834207 -0.000985
C10   C     C_R   0.146566 0.650658 0.771530 -0.011762
C11   C     C_R   0.117803 0.811927 0.814673 -0.125094
C12   C     C_R   0.124884 0.838646 0.731394 0.026787
C13   C     C_R   0.136724 0.772433 0.667649 0.024067
C14   C     C_R   0.148015 0.678731 0.686733 -0.134281
C15   C     C_R   0.116655 0.931138 0.710325 -0.171216
C16   C     C_R   0.117800 0.959010 0.628036 0.180055
C17   C     C_R   0.127771 0.893261 0.564495 0.208090
C18   C     C_R   0.137630 0.801656 0.584858 -0.190546
H1    H     H_    0.067339 0.742753 0.964139 0.128272
H2    H     H_    0.107582 0.982835 0.757983 0.137367
H3    H     H_    0.145846 0.753461 0.534252 0.102783
C19   C     C_2   0.993559 0.711032 0.283381 -0.088292
C20   C     C_2   0.149039 0.691363 0.329252 -0.290743
H4    H     H_    0.862265 0.672722 0.291603 0.151680
H5    H     H_    0.276648 0.733028 0.325026 0.172169
C21   C     C_2   0.984861 0.790451 0.227871 0.115311
C22   C     C_2   0.123774 0.807643 0.170889 0.081884
C23   C     C_2   0.752402 0.236513 0.799286 0.307914
C24   C     C_2   0.602363 0.188145 0.825532 -0.323577
H6    H     H_    0.459545 0.209668 0.805803 0.187460
C25   C     C_2   0.714094 0.317148 0.748275 0.114641
C26   C     C_2   0.653357 0.308309 0.669178 0.137360
C27   C     C_2   0.779198 0.208517 0.214487 -0.126836
C28   C     C_2   0.614366 0.181804 0.177398 -0.297479
H7    H     H_    0.914785 0.179457 0.194076 0.136333
H8    H     H_    0.477133 0.210209 0.195648 0.127755
C29   C     C_2   0.791439 0.277139 0.282384 -0.126471
C30   C     C_2   0.638171 0.315167 0.319759 -0.279468
H9    H     H_    0.935118 0.296291 0.302429 0.136154
H10   H     H_    0.493339 0.296584 0.301745 0.127911
O11   O     O_R   0.770210 0.079270 0.910680 -0.513890
O12   O     O_R   0.440150 0.091160 0.082270 -0.549298
O13   O     O_R   0.269970 0.914530 0.082860 -0.522272
C31   C     C_R   0.608943 0.113176 0.110501 0.730157
O14   O     O_R   0.440480 0.090100 0.911240 -0.534169
O15   O     O_R   0.270310 0.913460 0.910610 -0.531696
C32   C     C_R   0.607777 0.113580 0.885071 0.790795
O16   O     O_R   0.769870 0.080340 0.082930 -0.543440
O17   O     O_3   0.603660 0.938980 0.996790 -0.367113
V3    V     V_3+5 0.328750 0.007610 0.996740 1.504117
O18   O     O_R   0.940600 0.902510 0.911180 -0.540414
C33   C     C_R   0.108890 0.881753 0.881922 0.695740
O19   O     O_R   0.940270 0.903570 0.082200 -0.552048
C34   C     C_R   0.109583 0.882022 0.110402 0.704428
V4    V     V_3+5 0.828770 0.986010 0.996670 1.486220
O20   O     O_3   0.103730 0.054750 0.996710 -0.358093
C35   C     C_3   0.128357 0.916630 0.474153 -0.779694
H11   H     H_    0.119421 0.990158 0.462572 0.219655
H12   H     H_    0.262708 0.890660 0.445552 0.207588
H13   H     H_    0.003746 0.884032 0.442769 0.211877
C36   C     C_3   0.809703 0.850534 0.237526 -0.732964
H14   H     H_    0.725433 0.831837 0.292640 0.208808
H15   H     H_    0.853908 0.922203 0.245604 0.185201
H16   H     H_    0.713386 0.843407 0.183099 0.257378
Br1   Br    Br    0.346104 0.730068 0.156848 -0.638936
Br2   Br    Br    0.015387 0.210441 0.827774 -0.565705
C37   C     C_3   0.733420 0.409081 0.788771 -0.767644
H17   H     H_    0.781605 0.403413 0.853796 0.221517
H18   H     H_    0.834447 0.451741 0.754756 0.242031
H19   H     H_    0.592874 0.444139 0.789015 0.225510
Br3   Br    Br    0.606322 0.191903 0.619011 -0.598876
Br4   Br    Br    0.219325 0.456946 0.723902 -0.576865
C38   C     C_3   0.207157 0.440482 0.910232 -0.683966
H20   H     H_    0.200188 0.430578 0.977558 0.194906
H21   H     H_    0.105212 0.392328 0.881535 0.263495
H22   H     H_    0.355476 0.421853 0.891697 0.225769
C39   C     C_3   0.070276 0.580925 0.029766 -0.700774
H23   H     H_    0.958466 0.527691 0.032491 0.201338
H24   H     H_    0.203736 0.557323 0.060908 0.237445
H25   H     H_    0.014362 0.640399 0.064695 0.228283
C40   C     C_3   0.107370 0.058640 0.609782 -0.657782
H26   H     H_    0.236497 0.079058 0.574944 0.236213
H27   H     H_    0.975985 0.073387 0.572975 0.232306
H28   H     H_    0.101645 0.100610 0.666901 0.251982

loop_
_geom_bond_atom_site_label_1
_geom_bond_atom_site_label_2
_ccdc_geom_bond_type
O15   V3    S    
C40   H26   S    
C36   H14   S    
C7    C8    A    
C12   C15   A    
C1    O6    A    
C26   Br3   S    
O11   C32   A    
O14   V3    S    
C38   H20   S    
C22   Br1   S    
C16   C17   A    
C20   H5    S    
C6    C7    A    
O5    C3    A    
C21   C22   D    
O14   C32   A    
C25   C37   S    
V2    O10   S    
O13   V3    S    
C19   C20   D    
C24   H6    S    
C35   H12   S    
O8    V2    S    
C23   C25   S    
O16   V4    S    
C29   H9    S    
C30   H10   S    
C11   C12   A    
O1    V2    S    
C39   H24   S    
O7    V1    S    
C27   H7    S    
C40   H27   S    
C19   C21   S    
O9    C4    A    
C36   H15   S    
O17   V3    S    
C17   C35   S    
C38   H21   S    
O15   C33   A    
O12   C31   A    
C6    C38   S    
V4    O20   S    
C12   C13   A    
C24   C32   S    
O4    C2    A    
C1    C26   S    
O19   V4    S    
C13   C14   A    
C27   C28   D    
O18   C33   A    
C16   C40   S    
C3    C20   S    
C35   H13   S    
O2    C1    A    
C25   C26   D    
O18   V4    S    
C17   C18   A    
C7    C39   S    
O17   V4    S    
C27   C29   S    
C5    C6    A    
C4    C14   S    
C39   H25   S    
O3    C4    A    
C11   C33   S    
O19   C34   A    
C40   H28   S    
C9    C11   A    
C22   C34   S    
C23   Br2   S    
O2    V1    S    
O13   C34   A    
C37   H18   S    
C38   H22   S    
C13   C18   A    
C23   C24   D    
C18   H3    S    
C15   H2    S    
O1    C2    A    
C2    C30   S    
O5    V1    S    
C37   H19   S    
O8    C3    A    
O6    V2    S    
O12   V3    S    
C5    C10   A    
V3    O20   S    
C5    Br4   S    
O9    V2    S    
O7    V2    S    
O4    V1    S    
O3    V1    S    
V1    O10   S    
C36   H16   S    
C19   H4    S    
C35   H11   S    
O11   V4    S    
C37   H17   S    
C28   H8    S    
C31   O16   A    
C8    C9    A    
C29   C30   D    
C10   C14   A    
C28   C31   S    
C15   C16   A    
C39   H23   S    
C9    C10   A    
C21   C36   S    
C8    H1    S    
