data_mof_unit_1812.cif
_audit_creation_date              2012-12-11T15:29:40-0500
_audit_creation_method            fapswitch 2.2
_symmetry_space_group_name_H-M    P1
_symmetry_Int_Tables_number       1
_space_group_crystal_system       triclinic
_cell_length_a                    13.482031
_cell_length_b                    13.499474
_cell_length_c                    27.585965
_cell_angle_alpha                 90.536096
_cell_angle_beta                  90.021226
_cell_angle_gamma                 60.051746
_cell_volume                      4350.0358606

loop_
_atom_site_label
_atom_site_type_symbol
_atom_type_description
_atom_site_fract_x
_atom_site_fract_y
_atom_site_fract_z
_atom_type_partial_charge
Br1   Br    Br    0.074025 0.986886 0.791327 -0.566500
C1    C     C_R   0.620287 0.101051 0.569939 0.546397
C2    C     C_1   0.648554 0.706489 0.658093 -0.055530
C3    C     C_3   0.065831 0.189405 0.736329 -0.080184
C4    C     C_R   0.599690 0.779370 0.568489 0.545739
C5    C     C_3   0.128024 0.089340 0.771956 0.196218
C6    C     C_1   0.098428 0.199690 0.900437 0.009473
C7    C     C_1   0.230590 0.137094 0.617238 -0.010490
C8    C     C_3   0.087942 0.267035 0.771192 -0.122799
C9    C     C_3   0.149994 0.166225 0.806226 0.060537
C10   C     C_3   0.203710 0.230005 0.745649 -0.124624
C11   C     C_3   0.181366 0.152467 0.711563 0.024603
C12   C     C_1   0.630670 0.732810 0.616100 -0.011597
C13   C     C_3   0.265392 0.129341 0.781310 -0.136656
C14   C     C_3   0.243734 0.051324 0.746393 -0.079875
C15   C     C_1   0.126876 0.180037 0.858467 -0.008844
C16   C     C_R   0.277922 0.121539 0.569421 0.545463
C17   C     C_1   0.203371 0.145389 0.659308 -0.049616
C18   C     C_3   0.642799 0.270331 0.738535 -0.115921
C19   C     C_3   0.559409 0.266341 0.776137 -0.105247
C20   C     C_1   0.691354 0.206561 0.901427 -0.001671
C21   C     C_1   0.635290 0.132645 0.617982 -0.012473
C22   C     C_3   0.745733 0.188721 0.770323 -0.088016
C23   C     C_3   0.719804 0.564183 0.767250 0.131173
C24   C     C_3   0.662217 0.184460 0.807115 0.052170
C25   C     C_3   0.752917 0.084025 0.743585 -0.076133
C26   C     C_3   0.650206 0.165805 0.712548 0.045054
C27   C     C_3   0.669619 0.079936 0.781090 -0.097040
C28   C     C_R   0.621871 0.100126 0.431476 0.541704
C29   C     C_3   0.566599 0.161500 0.749286 -0.107595
C30   C     C_1   0.674144 0.195380 0.859399 -0.041413
C31   C     C_1   0.643401 0.151171 0.660187 -0.054831
C32   C     C_R   0.637141 0.728840 0.381843 0.024870
C33   C     C_R   0.710813 0.754749 0.355923 -0.125187
C34   C     C_3   0.677158 0.659816 0.805223 0.070442
C35   C     C_R   0.720013 0.741092 0.306223 -0.124738
C36   C     C_R   0.659869 0.696425 0.281740 0.038684
C37   C     C_R   0.593988 0.660992 0.308078 -0.118918
C38   C     C_R   0.581488 0.678491 0.357965 -0.131667
C39   C     C_R   0.570937 0.705536 0.201836 -0.135296
C40   C     C_R   0.601590 0.777671 0.430245 0.540399
C41   C     C_R   0.582409 0.679847 0.152706 -0.158860
C42   C     C_R   0.782104 0.632686 0.155622 0.098962
C43   C     C_R   0.770357 0.654896 0.205288 -0.099581
C44   C     C_R   0.666643 0.686521 0.228851 0.015053
C45   C     C_3   0.607259 0.628217 0.739091 -0.098125
C46   C     C_R   0.689445 0.636122 0.129900 0.044635
C47   C     C_R   0.226030 0.137127 0.383353 0.024349
C48   C     C_R   0.249647 0.040967 0.354905 -0.126090
C49   C     C_R   0.226036 0.052519 0.305715 -0.122351
C50   C     C_R   0.176059 0.160680 0.284421 0.036512
C51   C     C_R   0.144522 0.257892 0.313574 -0.118662
C52   C     C_R   0.279158 0.119988 0.430957 0.541709
C53   C     C_R   0.170197 0.246092 0.362745 -0.127603
C54   C     C_R   0.175567 0.250925 0.205927 -0.118893
C55   C     C_R   0.147821 0.268932 0.157017 -0.118692
C56   C     C_3   0.661963 0.686097 0.710283 0.031065
C57   C     C_R   0.095241 0.121296 0.158466 -0.126544
C58   C     C_R   0.121075 0.104739 0.207385 -0.121895
C59   C     C_R   0.158194 0.171724 0.231827 0.036739
C60   C     C_R   0.103695 0.206903 0.133417 0.024923
C61   C     C_R   0.640654 0.138889 0.384782 0.022959
C62   C     C_R   0.547967 0.230869 0.361673 -0.124965
C63   C     C_R   0.554839 0.250591 0.312868 -0.121788
C64   C     C_3   0.775818 0.619306 0.737777 -0.069903
C65   C     C_R   0.655162 0.180031 0.286636 0.036941
C66   C     C_R   0.751198 0.094376 0.310703 -0.121239
C67   C     C_3   0.563801 0.726387 0.777396 -0.122709
C68   C     C_R   0.743853 0.073520 0.359470 -0.130706
C69   C     C_R   0.715230 0.096508 0.203767 -0.119579
C70   C     C_R   0.727713 0.109106 0.154583 -0.127910
C71   C     C_R   0.617276 0.315332 0.164510 -0.126757
C72   C     C_R   0.606501 0.302776 0.213787 -0.122510
C73   C     C_R   0.658433 0.193345 0.234016 0.035977
C74   C     C_R   0.681982 0.218658 0.135026 0.024905
C75   C     C_R   0.049967 0.234819 0.948002 0.544605
C76   C     C_3   0.731582 0.717584 0.776188 -0.116372
C77   C     C_R   0.711848 0.562186 0.946525 0.543908
C78   C     C_3   0.617818 0.784884 0.747723 -0.118475
C79   C     C_R   0.722590 0.224127 0.949088 0.547252
C80   C     C_R   0.047835 0.243701 0.086343 0.544278
C81   C     C_R   0.708984 0.573272 0.084059 0.552691
C82   C     C_R   0.719715 0.233344 0.087429 0.539978
C83   C     C_1   0.696459 0.609552 0.899094 -0.005108
C84   C     C_1   0.686690 0.637485 0.857292 -0.034131
Cr1   Cr    Cr6+3 0.417550 0.169090 0.500530 1.022142
Cr2   Cr    Cr6+3 0.669180 0.913420 0.499920 1.022423
Cr3   Cr    Cr6+3 0.413260 0.917540 0.499520 1.025085
Cr4   Cr    Cr6+3 0.909770 0.175810 0.018240 1.034892
Cr5   Cr    Cr6+3 0.913300 0.427650 0.016090 1.043395
Cr6   Cr    Cr6+3 0.657770 0.431010 0.016900 1.024435
H1    H     H_    0.781419 0.755203 0.791845 0.113116
H2    H     H_    0.819772 0.199794 0.779595 0.152865
H3    H     H_    0.754120 0.794865 0.373275 0.136487
H4    H     H_    0.862656 0.573176 0.721292 0.110216
H5    H     H_    0.488527 0.735257 0.219065 0.107313
H6    H     H_    0.509298 0.686746 0.133372 0.131161
H7    H     H_    0.770103 0.770654 0.286920 0.097013
H8    H     H_    0.844417 0.641575 0.225800 0.093758
H9    H     H_    0.549805 0.622712 0.290009 0.100718
H10   H     H_    0.524502 0.657801 0.377411 0.122203
H11   H     H_    0.294058 0.955630 0.369775 0.135308
H12   H     H_    0.347201 0.104738 0.800103 0.107427
H13   H     H_    0.207571 0.301099 0.223776 0.102066
H14   H     H_    0.155724 0.334933 0.138368 0.133377
H15   H     H_    0.575062 0.877247 0.738932 0.109149
H16   H     H_    0.251976 0.976102 0.284032 0.100855
H17   H     H_    0.106410 0.043487 0.226507 0.100835
H18   H     H_    0.061096 0.072278 0.141251 0.133247
H19   H     H_    0.102634 0.342642 0.298148 0.104747
H20   H     H_    0.150978 0.321342 0.384138 0.123855
H21   H     H_    0.467168 0.282884 0.380285 0.131630
H22   H     H_    0.752747 0.011124 0.218369 0.102067
H23   H     H_    0.234836 0.288419 0.734208 0.117810
H24   H     H_    0.777502 0.033525 0.132315 0.121306
H25   H     H_    0.479565 0.317115 0.295171 0.099897
H26   H     H_    0.562604 0.378791 0.236353 0.100921
H27   H     H_    0.477078 0.771281 0.794031 0.125725
H28   H     H_    0.582383 0.400890 0.150334 0.133689
H29   H     H_    0.830801 0.041243 0.291455 0.101499
H30   H     H_    0.816793 0.002706 0.376578 0.124571
H31   H     H_    0.558388 0.589276 0.723684 0.106845
H32   H     H_    0.984167 0.213422 0.717539 0.115409
H33   H     H_    0.307482 0.962273 0.735680 0.125145
H34   H     H_    0.024222 0.356086 0.781892 0.144151
H35   H     H_    0.876330 0.665499 0.108753 0.220442
H36   H     H_    0.950913 0.592835 0.157337 0.206919
H37   H     H_    0.794229 0.397952 0.745943 0.212427
H38   H     H_    0.717350 0.428708 0.797343 0.233063
H39   H     H_    0.479713 0.341090 0.790127 0.113629
H40   H     H_    0.631999 0.348296 0.720531 0.102647
H41   H     H_    0.492621 0.150283 0.739988 0.104117
H42   H     H_    0.680281 0.001905 0.798994 0.107781
H43   H     H_    0.832726 0.009279 0.729664 0.147033
N1    N     N_3   0.889755 0.599614 0.132223 -0.587338
N2    N     N_3   0.776468 0.443060 0.778751 -0.643405
O1    O     O_R   0.301780 0.195490 0.553940 -0.507399
O2    O     O_R   0.636050 0.541380 0.962520 -0.505971
O3    O     O_R   0.666480 0.323610 0.968170 -0.496033
O4    O     O_R   0.522450 0.158840 0.550250 -0.494643
O5    O     O_R   0.817280 0.156800 0.072180 -0.520752
O6    O     O_R   0.005110 0.187160 0.067410 -0.508959
O7    O     O_R   0.026450 0.340060 0.069950 -0.499483
O8    O     O_R   0.808300 0.527240 0.065170 -0.462781
O9    O     O_R   0.634070 0.548770 0.069460 -0.532798
O10   O     O_R   0.664650 0.330470 0.067300 -0.504389
O11   O     O_3   0.826940 0.344820 0.017080 -0.250618
O12   O     O_R   0.658840 0.818280 0.449970 -0.507381
O13   O     O_R   0.694460 0.003360 0.553820 -0.504463
O14   O     O_R   0.657750 0.819520 0.549120 -0.493818
O15   O     O_R   0.501990 0.803120 0.552700 -0.505291
O16   O     O_R   0.318230 0.023430 0.549370 -0.492258
O17   O     O_R   0.302950 0.194150 0.446980 -0.519749
O18   O     O_R   0.523540 0.157600 0.451100 -0.504371
O19   O     O_R   0.695630 0.002030 0.446860 -0.523279
O20   O     O_R   0.503160 0.801780 0.445740 -0.520999
O21   O     O_R   0.319320 0.022190 0.450230 -0.504871
O22   O     O_3   0.499990 0.000010 0.499990 -0.245984
O23   O     O_R   0.819250 0.149410 0.965240 -0.495901
O24   O     O_R   0.006940 0.180310 0.968270 -0.485196
O25   O     O_R   0.028420 0.332670 0.963010 -0.510633
O26   O     O_R   0.810130 0.520390 0.966030 -0.496106

loop_
_geom_bond_atom_site_label_1
_geom_bond_atom_site_label_2
_ccdc_geom_bond_type
C24   C30   S    
C54   C55   A    
C76   H1    S    
C52   O17   A    
C63   H25   S    
C57   H18   S    
C72   C73   A    
C56   C78   S    
C18   C19   S    
Cr6   O11   S    
C19   C29   S    
C24   C27   S    
C47   C53   A    
C20   C30   T    
C25   C26   S    
C36   C37   A    
C21   C31   T    
Cr5   O26   S    
Cr3   O20   S    
C35   C36   A    
Cr1   O17   S    
H36   N1    S    
H37   N2    S    
C37   C38   A    
C43   H8    S    
Cr4   O5    S    
C46   C81   S    
C19   C24   S    
Cr4   O6    S    
H38   N2    S    
C71   H28   S    
C22   C25   S    
C62   H21   S    
C10   H23   S    
C69   C73   A    
Cr1   O1    S    
C67   H27   S    
C5    C14   S    
C60   C80   S    
Cr2   O14   S    
C1    C21   S    
Cr4   O23   S    
C69   C70   A    
Cr3   O22   S    
C3    C11   S    
C18   C26   S    
C8    C9    S    
C82   O10   A    
C4    C12   S    
Cr5   O7    S    
C2    C12   T    
Cr1   O4    S    
C28   O19   A    
C40   O20   A    
C23   N2    S    
C57   C60   A    
C39   C41   A    
C65   C66   A    
C58   C59   A    
C54   C59   A    
C26   C29   S    
Cr3   O16   S    
C75   O25   A    
C39   C44   A    
C39   H5    S    
C71   C74   A    
C77   O2    A    
C1    O13   A    
C51   C53   A    
C38   H10   S    
C76   C78   S    
C69   H22   S    
C18   H40   S    
C47   C52   S    
C23   C34   S    
C64   C76   S    
Cr2   O12   S    
Cr5   O25   S    
C27   H42   S    
C72   H26   S    
C83   C84   T    
C3    C5    S    
C14   H33   S    
C41   H6    S    
C56   C64   S    
C48   H11   S    
C82   O5    A    
C79   O23   A    
C57   C58   A    
C54   H13   S    
C34   C76   S    
C7    C17   T    
C4    O14   A    
C22   H2    S    
C78   H15   S    
C66   C68   A    
C63   C65   A    
C51   H19   S    
C18   C22   S    
C42   C43   A    
C45   C67   S    
Cr5   O11   S    
C25   H43   S    
Cr6   O2    S    
Cr1   O22   S    
C11   C14   S    
C68   H30   S    
C47   C48   A    
C61   C62   A    
C49   C50   A    
C70   H24   S    
C32   C38   A    
Cr3   O21   S    
C42   N1    S    
C8    C10   S    
C23   C64   S    
Cr6   O3    S    
C2    C56   S    
C81   O8    A    
C80   O6    A    
H35   N1    S    
C77   O26   A    
C45   C56   S    
C9    C13   S    
C49   H16   S    
Cr3   O15   S    
Cr2   O19   S    
C16   O16   A    
C36   C44   S    
Cr6   O9    S    
C81   O9    A    
C43   C44   A    
Cr4   O24   S    
C66   H29   S    
Cr4   O11   S    
C28   C61   S    
C75   O24   A    
C26   C31   S    
C55   C60   A    
C52   O21   A    
C6    C15   T    
C33   H3    S    
C19   H39   S    
C71   C72   A    
C5    C9    S    
C35   H7    S    
C10   C11   S    
C6    C75   S    
C50   C59   S    
C79   O3    A    
C25   C27   S    
C58   H17   S    
C4    O15   A    
Cr2   O22   S    
C32   C40   S    
C27   C29   S    
Cr1   O18   S    
C23   C45   S    
C50   C51   A    
C9    C15   S    
C7    C16   S    
C70   C74   A    
C34   C84   S    
C37   H9    S    
C74   C82   S    
C13   H12   S    
C40   O12   A    
C34   C67   S    
C67   C78   S    
C29   H41   S    
C20   C79   S    
C10   C13   S    
C32   C33   A    
C53   H20   S    
C33   C35   A    
C41   C46   A    
C22   C24   S    
C3    H32   S    
C8    H34   S    
C55   H14   S    
C62   C63   A    
C77   C83   S    
C80   O7    A    
C61   C68   A    
C48   C49   A    
Cr2   O13   S    
C11   C17   S    
Br1   C5    S    
C13   C14   S    
C45   H31   S    
C16   O1    A    
C1    O4    A    
C3    C8    S    
C42   C46   A    
Cr6   O10   S    
Cr5   O8    S    
C64   H4    S    
C28   O18   A    
C65   C73   S    
