data_mof_unit_2183.cif
_audit_creation_date              2012-12-10T20:37:25-0500
_audit_creation_method            fapswitch 2.2
_symmetry_space_group_name_H-M    P1
_symmetry_Int_Tables_number       1
_space_group_crystal_system       triclinic
_cell_length_a                    15.654085
_cell_length_b                    10.809978
_cell_length_c                    10.087498
_cell_angle_alpha                 89.072163
_cell_angle_beta                  89.730743
_cell_angle_gamma                 91.633848
_cell_volume                      1706.06911753

loop_
_atom_site_label
_atom_site_type_symbol
_atom_type_description
_atom_site_fract_x
_atom_site_fract_y
_atom_site_fract_z
_atom_type_partial_charge
C1    C     C_R   0.505264 0.261592 0.500506 0.940824
C2    C     C_3   0.083753 0.528015 0.500316 -0.167770
C3    C     C_3   0.972258 0.639076 0.515297 0.390672
C4    C     C_3   0.916786 0.520478 0.495708 -0.133502
C5    C     C_3   0.029004 0.598774 0.399836 0.437612
C6    C     C_3   0.973041 0.480459 0.377603 -0.459475
C7    C     C_1   0.174857 0.524193 0.499937 0.107461
C8    C     C_1   0.825820 0.513989 0.496566 0.105855
C9    C     C_R   0.479025 0.060869 0.605654 -0.042867
C10   C     C_R   0.511379 0.129935 0.499529 -0.252822
C11   C     C_R   0.540579 0.069216 0.385971 0.442407
C12   C     C_R   0.338551 0.503030 0.500036 0.884365
C13   C     C_R   0.525956 0.940619 0.377017 0.124746
C14   C     C_R   0.502949 0.871929 0.493129 -0.202269
C15   C     C_R   0.480838 0.935396 0.604991 -0.123131
C16   C     C_3   0.498320 0.921309 0.750295 0.337534
C17   C     C_3   0.493393 0.065275 0.752267 0.682616
C18   C     C_R   0.426099 0.509026 0.070497 0.009308
C19   C     C_R   0.574283 0.510213 0.071813 0.465394
C20   C     C_R   0.574591 0.511169 0.929350 0.118218
C21   C     C_R   0.425804 0.507342 0.930829 -0.077299
C22   C     C_3   0.347306 0.423705 0.934146 -0.173005
C23   C     C_R   0.501320 0.739274 0.498287 0.882411
C24   C     C_3   0.344742 0.435784 0.087923 0.947714
C25   C     C_R   0.661465 0.500903 0.499646 0.863188
C26   C     C_3   0.971386 0.448418 0.596212 0.386116
C27   C     C_3   0.027739 0.410286 0.479754 0.426565
C28   C     C_1   0.249986 0.515173 0.499742 -0.151906
C29   C     C_1   0.750421 0.507356 0.498273 -0.167717
C30   C     C_3   0.025866 0.567158 0.616313 0.281248
H1    H     H_    0.362012 0.330522 0.898233 0.200007
H2    H     H_    0.948016 0.445388 0.282124 0.177246
N1    N     N_R   0.499430 0.499140 0.142800 -0.166668
N2    N     N_R   0.499430 0.499180 0.857150 -0.140165
O1    O     O_R   0.500010 0.316790 0.614690 -0.603330
O2    O     O_R   0.500000 0.316760 0.385350 -0.573105
O3    O     O_R   0.376780 0.500010 0.614650 -0.616514
O4    O     O_R   0.376770 0.499970 0.385310 -0.539108
O5    O     O_R   0.500000 0.683240 0.614650 -0.638427
O6    O     O_R   0.499990 0.683210 0.385310 -0.599995
O7    O     O_R   0.623230 0.500030 0.614690 -0.633665
O8    O     O_R   0.623220 0.499990 0.385350 -0.553429
Zn1   Zn    Zn3+2 0.500010 0.500020 0.653130 0.939727
Zn2   Zn    Zn3+2 0.499990 0.499980 0.346870 1.028388
O9    O     O_3   0.065164 0.294281 0.463291 -0.611556
C31   C     C_3   0.002113 0.207128 0.424025 -0.299926
H3    H     H_    0.978982 0.228650 0.322483 0.165102
H4    H     H_    0.947735 0.200801 0.495463 0.200718
H5    H     H_    0.031172 0.114890 0.421192 0.172146
N3    N     N_2   0.584009 0.876213 0.776080 -0.321188
H6    H     H_    0.605930 0.807186 0.717094 0.239190
C32   C     C_3   0.612927 0.868392 0.911498 -0.859909
H7    H     H_    0.682718 0.853130 0.912138 0.244665
H8    H     H_    0.579904 0.790143 0.964525 0.226618
H9    H     H_    0.601981 0.955733 0.962871 0.257842
O10   O     O_3   0.418597 0.110799 0.810909 -0.624270
C33   C     C_3   0.421685 0.101074 0.949568 -0.394792
H10   H     H_    0.442945 0.191408 0.988591 0.180813
H11   H     H_    0.465053 0.029443 0.986352 0.179984
H12   H     H_    0.356643 0.077227 0.987186 0.211084
N4    N     N_2   0.571811 0.133403 0.791909 -0.332746
H13   H     H_    0.562458 0.217968 0.834691 0.243377
C34   C     C_3   0.650118 0.130493 0.713744 -0.790914
H14   H     H_    0.654897 0.212120 0.645844 0.238447
H15   H     H_    0.653916 0.046577 0.652800 0.259604
H16   H     H_    0.705799 0.133542 0.781393 0.252506
O11   O     O_3   0.651149 0.513386 0.138289 -0.581682
C35   C     C_3   0.679795 0.637500 0.151217 -0.260331
H17   H     H_    0.733579 0.640277 0.222416 0.184059
H18   H     H_    0.629168 0.696685 0.191232 0.181730
H19   H     H_    0.705067 0.675772 0.055849 0.153604
N5    N     N_2   0.653789 0.539848 0.865982 -0.288679
H20   H     H_    0.656812 0.612435 0.798821 0.248676
C36   C     C_3   0.715827 0.443491 0.858677 -0.664403
H21   H     H_    0.776538 0.482395 0.816018 0.239659
H22   H     H_    0.691766 0.368384 0.794789 0.247450
H23   H     H_    0.729277 0.404362 0.958461 0.255451
N6    N     N_2   0.274994 0.476911 0.866881 -0.279455
H24   H     H_    0.286640 0.558718 0.815046 0.275919
C37   C     C_3   0.220795 0.387921 0.798881 -0.756081
H25   H     H_    0.164234 0.434422 0.759485 0.271647
H26   H     H_    0.198611 0.312322 0.867509 0.213797
H27   H     H_    0.256083 0.346351 0.715806 0.262364
O12   O     O_3   0.285933 0.516633 0.148018 -0.607260
C38   C     C_3   0.198769 0.488424 0.123449 -0.227410
H28   H     H_    0.164213 0.481280 0.219435 0.211013
H29   H     H_    0.185729 0.401410 0.070486 0.131782
H30   H     H_    0.171270 0.565585 0.065349 0.208646
O13   O     O_3   0.362883 0.328187 0.164163 -0.638605
C39   C     C_3   0.292091 0.245559 0.175410 -0.381804
H31   H     H_    0.262264 0.226504 0.077872 0.141239
H32   H     H_    0.245045 0.279495 0.247999 0.221012
H33   H     H_    0.314631 0.156140 0.215466 0.184600
O14   O     O_3   0.930996 0.369833 0.692133 -0.613294
C40   C     C_3   0.992782 0.314990 0.773276 -0.337681
H34   H     H_    0.023636 0.384266 0.838846 0.189314
H35   H     H_    0.041614 0.266649 0.714783 0.203614
H36   H     H_    0.960177 0.244454 0.838245 0.183703
O15   O     O_3   0.066581 0.677757 0.301965 -0.596426
C41   C     C_3   0.004447 0.708106 0.207280 -0.346230
H37   H     H_    0.946382 0.746119 0.253835 0.190868
H38   H     H_    0.986807 0.626255 0.146996 0.157412
H39   H     H_    0.031981 0.780565 0.139314 0.183270
O16   O     O_3   0.934550 0.754804 0.532563 -0.615205
C42   C     C_3   0.998542 0.849231 0.533185 -0.295393
H40   H     H_    0.020627 0.871917 0.430803 0.198010
H41   H     H_    0.053967 0.825748 0.596558 0.193399
H42   H     H_    0.970602 0.933821 0.573994 0.172973
O17   O     O_3   0.061006 0.611368 0.735620 -0.615639
C43   C     C_3   0.995009 0.647846 0.820622 -0.313900
H43   H     H_    0.945255 0.573658 0.836702 0.187308
H44   H     H_    0.965234 0.733445 0.783408 0.203874
H45   H     H_    0.023451 0.669095 0.918148 0.168657
O18   O     O_3   0.599826 0.128983 0.302713 -0.610614
C44   C     C_3   0.560981 0.170327 0.185254 -0.245765
H46   H     H_    0.582548 0.267210 0.165224 0.222628
H47   H     H_    0.489977 0.167815 0.190118 0.178502
H48   H     H_    0.583681 0.116134 0.100955 0.136655
N7    N     N_2   0.529593 0.882844 0.251811 -0.296489
H49   H     H_    0.575371 0.919208 0.187905 0.234506
C45   C     C_3   0.446122 0.865819 0.191745 -0.750282
H50   H     H_    0.452614 0.821939 0.093946 0.234185
H51   H     H_    0.414489 0.955819 0.180927 0.206285
H52   H     H_    0.403450 0.805097 0.254057 0.277003
N8    N     N_2   0.431225 0.850831 0.823558 -0.294382
H53   H     H_    0.449795 0.765191 0.856958 0.245368
C46   C     C_3   0.344608 0.844910 0.772582 -0.724901
H54   H     H_    0.300877 0.806232 0.850722 0.231225
H55   H     H_    0.341070 0.783346 0.685543 0.233601
H56   H     H_    0.322356 0.937853 0.743587 0.276657

loop_
_geom_bond_atom_site_label_1
_geom_bond_atom_site_label_2
_ccdc_geom_bond_type
C3    O16   S    
C26   O14   S    
C6    H2    S    
C34   H15   S    
C18   C21   A    
C2    C7    S    
C4    C8    S    
C24   O13   S    
O18   C44   S    
C39   H31   S    
C40   H36   S    
O9    C31   S    
C42   H41   S    
C31   H5    S    
C26   C27   S    
C36   H22   S    
C12   C28   S    
C18   C24   S    
C8    C29   T    
C16   N3    S    
C5    C6    S    
C37   H25   S    
N6    C37   S    
C33   H11   S    
C23   O6    A    
O10   C33   S    
C12   O3    A    
N4    C34   S    
C11   O18   S    
C43   H43   S    
C45   H52   S    
C17   N4    S    
C5    O15   S    
C16   C17   S    
C44   H47   S    
C36   H23   S    
N3    C32   S    
C19   O11   S    
C2    C27   S    
O1    Zn1   S    
C16   N8    S    
C32   H9    S    
C20   N2    A    
C27   O9    S    
N7    C45   S    
C34   H16   S    
C13   C14   A    
C12   O4    A    
O7    Zn1   S    
O14   C40   S    
O8    Zn2   S    
C37   H27   S    
O16   C42   S    
C13   N7    S    
C32   H8    S    
C38   H29   S    
C25   C29   S    
C42   H42   S    
C31   H4    S    
C22   H1    S    
C1    C10   S    
C30   O17   S    
O11   C35   S    
O12   C38   S    
C22   N6    S    
C37   H26   S    
C19   N1    A    
C25   O7    A    
N6    H24   S    
C35   H17   S    
C33   H12   S    
O5    Zn1   S    
C21   N2    A    
C38   H28   S    
C41   H39   S    
C7    C28   T    
C14   C23   S    
O3    Zn1   S    
C3    C30   S    
C46   H55   S    
O4    Zn2   S    
C39   H32   S    
C6    C27   S    
C17   O10   S    
C44   H48   S    
C41   H38   S    
N3    H6    S    
C43   H45   S    
C45   H50   S    
N5    C36   S    
C26   C30   S    
N8    H53   S    
C22   C24   S    
O2    Zn2   S    
C4    C6    S    
C3    C4    S    
C32   H7    S    
C1    O1    A    
C39   H33   S    
C9    C10   A    
C38   H30   S    
C9    C17   S    
C31   H3    S    
N1    Zn2   S    
N2    Zn1   S    
N5    H20   S    
C3    C5    S    
C25   O8    A    
C4    C26   S    
N7    H49   S    
C40   H35   S    
C46   H54   S    
C42   H40   S    
O15   C41   S    
C2    C30   S    
C19   C20   A    
C9    C15   A    
C46   H56   S    
O17   C43   S    
C11   C13   A    
C33   H10   S    
C35   H19   S    
C23   O5    A    
C15   C16   S    
C41   H37   S    
C24   O12   S    
N4    H13   S    
C18   N1    A    
C43   H44   S    
C45   H51   S    
C10   C11   A    
C34   H14   S    
C2    C5    S    
O6    Zn2   S    
C36   H21   S    
C35   H18   S    
C40   H34   S    
N8    C46   S    
C14   C15   A    
C20   N5    S    
O13   C39   S    
C21   C22   S    
C44   H46   S    
C1    O2    A    
