data_mof_unit_2178.cif
_audit_creation_date              2012-10-26T20:04:44-0400
_audit_creation_method            fapswitch 2.2
_symmetry_space_group_name_H-M    P1
_symmetry_Int_Tables_number       1
_space_group_crystal_system       triclinic
_cell_length_a                    15.829632
_cell_length_b                    15.094129
_cell_length_c                    13.925236
_cell_angle_alpha                 87.786861
_cell_angle_beta                  90.956953
_cell_angle_gamma                 88.094815
_cell_volume                      3322.36085404

loop_
_atom_site_label
_atom_site_type_symbol
_atom_type_description
_atom_site_fract_x
_atom_site_fract_y
_atom_site_fract_z
_atom_type_partial_charge
C1    C     C_R   0.502800 0.329010 0.501646 0.584945
C2    C     C_R   0.500437 0.046706 0.503013 -0.015079
C3    C     C_R   0.425737 0.911802 0.463858 0.014744
C4    C     C_R   0.574271 0.088216 0.536089 0.009062
C5    C     C_R   0.642397 0.942800 0.563548 -0.049851
C6    C     C_R   0.357567 0.057201 0.436568 -0.062411
C7    C     C_R   0.642149 0.033809 0.575720 0.241263
C8    C     C_R   0.357848 0.966212 0.424226 0.223387
C9    C     C_R   0.525252 0.424499 0.801096 0.319237
C10   C     C_R   0.474741 0.575497 0.198904 0.319391
C11   C     C_R   0.472818 0.573770 0.791938 0.220907
C12   C     C_R   0.497189 0.670992 0.498355 0.583480
C13   C     C_R   0.527176 0.426228 0.208061 0.221224
C14   C     C_R   0.487749 0.579351 0.892906 -0.004739
C15   C     C_R   0.512242 0.420647 0.107093 -0.004479
C16   C     C_R   0.340149 0.500933 0.499332 0.572070
C17   C     C_R   0.659852 0.499069 0.500667 0.570842
C18   C     C_R   0.499427 0.500136 0.948726 -0.014814
C19   C     C_R   0.500565 0.499861 0.051273 -0.014834
C20   C     C_R   0.510330 0.421010 0.901986 -0.024125
C21   C     C_R   0.489662 0.578986 0.098013 -0.024404
C22   C     C_R   0.489289 0.660066 0.940961 0.102060
C23   C     C_R   0.497771 0.767813 0.494773 0.031856
C24   C     C_R   0.510696 0.339931 0.059039 0.101842
C25   C     C_R   0.490576 0.659143 0.041832 -0.037033
C26   C     C_R   0.509410 0.340854 0.958168 -0.037298
C27   C     C_3   0.975705 0.451629 0.575837 0.170810
C28   C     C_3   0.024313 0.548451 0.424083 0.228932
C29   C     C_3   0.031203 0.415520 0.494580 -0.170013
C30   C     C_3   0.968808 0.584560 0.505330 -0.131826
C31   C     C_1   0.250536 0.501238 0.498072 0.090363
C32   C     C_1   0.749469 0.498777 0.501914 0.091244
C33   C     C_3   0.028636 0.534970 0.579974 0.224015
C34   C     C_R   0.502220 0.232194 0.505234 0.032753
C35   C     C_3   0.971377 0.465106 0.419940 0.239808
C36   C     C_3   0.083484 0.500195 0.498794 -0.065393
C37   C     C_3   0.916525 0.499873 0.501126 -0.056037
C38   C     C_1   0.175044 0.500836 0.497957 0.086563
C39   C     C_1   0.824963 0.499199 0.501998 0.092276
C40   C     C_R   0.422511 0.818473 0.475343 0.126200
C41   C     C_R   0.577492 0.181544 0.524612 0.128093
C42   C     C_R   0.573511 0.809201 0.515898 0.052987
C43   C     C_R   0.426464 0.190799 0.484200 0.054008
C44   C     C_R   0.572763 0.901633 0.524057 -0.010358
C45   C     C_R   0.427218 0.098366 0.476012 0.000109
C46   C     C_R   0.499564 0.953304 0.496975 -0.014043
Cu1   Cu    Cu3+1 0.500010 0.499990 0.597420 1.121661
Cu2   Cu    Cu3+1 0.499990 0.500010 0.402580 1.123414
H1    H     H_    0.057201 0.346612 0.490118 0.181286
H2    H     H_    0.014646 0.635387 0.813835 0.390717
H3    H     H_    0.778732 0.010478 0.789154 0.397448
H4    H     H_    0.215472 0.045985 0.271919 0.366803
H5    H     H_    0.704448 0.387275 0.706000 0.381709
H6    H     H_    0.295514 0.612775 0.294023 0.381312
H7    H     H_    0.942812 0.653469 0.509779 0.198058
H8    H     H_    0.493849 0.722071 0.076096 0.206154
H9    H     H_    0.506133 0.277927 0.923904 0.205329
H10   H     H_    0.696020 0.903789 0.592257 0.205507
H11   H     H_    0.303918 0.096247 0.408098 0.173831
H12   H     H_    0.062351 0.316920 0.695368 0.346925
H13   H     H_    0.997828 0.688906 0.205496 0.391602
H14   H     H_    0.985517 0.364356 0.186284 0.392177
I1    I     I_    0.508328 0.784909 0.869581 -0.154419
I2    I     I_    0.491639 0.215093 0.130421 -0.156975
I3    I     I_    0.304694 0.756330 0.501241 0.001695
I4    I     I_    0.695305 0.243732 0.498786 0.000073
I5    I     I_    0.687956 0.730093 0.538921 -0.255744
I6    I     I_    0.311993 0.269902 0.461327 -0.293564
I7    I     I_    0.366707 0.650238 0.736915 -0.102805
I8    I     I_    0.633279 0.349747 0.263082 -0.102299
N1    N     N_R   0.499960 0.499930 0.743810 -0.262248
N2    N     N_R   0.500040 0.500070 0.256190 -0.261950
O1    O     O_R   0.500020 0.370250 0.582280 -0.426225
O2    O     O_2   0.891980 0.309864 0.640951 -0.204476
O3    O     O_3   0.025264 0.346666 0.741761 -0.405179
O4    O     O_2   0.109250 0.689079 0.359743 -0.206428
O5    O     O_2   0.113111 0.557482 0.261472 -0.220630
O6    O     O_3   0.974156 0.655032 0.260523 -0.443311
O7    O     O_2   0.882884 0.336457 0.342283 -0.227977
O8    O     O_2   0.873531 0.483557 0.260469 -0.204819
O9    O     O_3   0.012290 0.387903 0.244368 -0.442847
O10   O     O_2   0.127176 0.516782 0.738925 -0.217541
O11   O     O_2   0.116485 0.664075 0.657648 -0.223788
O12   O     O_R   0.499980 0.629750 0.417720 -0.426347
O13   O     O_3   0.987852 0.611275 0.756062 -0.438060
O14   O     O_2   0.800298 0.084361 0.611078 -0.205063
O15   O     O_2   0.687970 0.151613 0.707379 -0.146819
O16   O     O_3   0.734399 0.988159 0.746189 -0.489897
O17   O     O_2   0.312041 0.848206 0.292612 -0.112890
O18   O     O_2   0.199690 0.915099 0.388201 -0.221365
O19   O     O_3   0.266046 0.011105 0.252517 -0.461234
O20   O     O_2   0.644892 0.296548 0.843398 -0.239548
O21   O     O_2   0.533711 0.261369 0.730370 -0.242040
O22   O     O_3   0.655611 0.360960 0.673569 -0.453354
O23   O     O_R   0.500010 0.370270 0.417740 -0.498258
O24   O     O_2   0.466282 0.738624 0.269614 -0.241846
O25   O     O_2   0.355090 0.703426 0.156603 -0.238238
O26   O     O_3   0.344386 0.639042 0.326447 -0.454970
O27   O     O_R   0.499990 0.629730 0.582260 -0.498999
O28   O     O_R   0.379080 0.499980 0.582260 -0.487372
O29   O     O_R   0.620920 0.500020 0.417740 -0.486142
O30   O     O_R   0.379070 0.500000 0.417710 -0.467879
O31   O     O_R   0.620930 0.500000 0.582290 -0.469525
O32   O     O_2   0.885574 0.442216 0.737359 -0.182422
S1    S     S_3+6 0.941235 0.386013 0.676036 0.118689
S2    S     S_3+6 0.058846 0.614027 0.323990 0.104905
S3    S     S_3+6 0.931251 0.417166 0.314236 0.106890
S4    S     S_3+6 0.068806 0.582886 0.685669 0.102732
S5    S     S_3+6 0.718067 0.068787 0.660414 0.096440
S6    S     S_3+6 0.282081 0.931188 0.339301 0.106767
S7    S     S_3+6 0.589762 0.333814 0.761402 0.088023
S8    S     S_3+6 0.410228 0.666174 0.238600 0.087613

loop_
_geom_bond_atom_site_label_1
_geom_bond_atom_site_label_2
_ccdc_geom_bond_type
C9    S7    S    
O9    S3    S    
Cu2   O23   S    
C27   C29   S    
C14   C18   A    
C25   H8    S    
C29   H1    S    
C2    C46   A    
C16   C31   S    
C15   C19   A    
O24   S8    D    
C12   C23   S    
C23   C42   A    
C5    H10   S    
O19   S6    S    
O5    S2    D    
C35   C37   S    
C24   C26   A    
C11   C14   A    
C11   N1    A    
C4    C41   A    
C27   S1    S    
C23   C40   A    
O22   S7    S    
C33   C36   S    
Cu1   O27   S    
O11   S4    D    
C12   O12   A    
C18   C19   A    
C32   C39   T    
C17   O29   A    
C12   O27   A    
H2    O13   S    
C22   I1    S    
C28   C35   S    
C28   S2    S    
C43   I6    S    
C22   C25   A    
C10   S8    S    
O10   S4    D    
O13   S4    S    
C24   I2    S    
C33   S4    S    
C42   C44   A    
Cu2   N2    S    
C4    C7    A    
O32   S1    D    
C44   C46   A    
C1    C34   S    
C2    C45   A    
O26   S8    S    
C6    C45   A    
O14   S5    D    
Cu1   O31   S    
Cu1   O1    S    
C3    C8    A    
C5    C7    A    
O25   S8    D    
C16   O28   A    
C6    C8    A    
O17   S6    D    
C27   C33   S    
Cu1   O28   S    
C7    S5    S    
C30   C37   S    
H3    O16   S    
C2    C4    A    
C34   C41   A    
C8    S6    S    
C9    C20   A    
Cu1   Cu2   S    
C29   C36   S    
H13   O6    S    
C1    O23   A    
Cu2   O30   S    
O7    S3    D    
C43   C45   A    
Cu1   N1    S    
O21   S7    D    
O16   S5    S    
C16   O30   A    
C15   C24   A    
C5    C44   A    
C3    C40   A    
O3    S1    S    
C40   I3    S    
C13   C15   A    
C42   I5    S    
O18   S6    D    
C21   C25   A    
O4    S2    D    
H12   O3    S    
C30   C33   S    
C19   C21   A    
H5    O22   S    
C6    H11   S    
H14   O9    S    
C34   C43   A    
C9    N1    A    
C10   C21   A    
C11   I7    S    
O20   S7    D    
C41   I4    S    
O15   S5    D    
C13   N2    A    
C30   H7    S    
C29   C35   S    
C3    C46   A    
C31   C38   T    
O6    S2    S    
C1    O1    A    
C14   C22   A    
C28   C30   S    
C17   O31   A    
C37   C39   S    
O2    S1    D    
O8    S3    D    
C20   C26   A    
C27   C37   S    
Cu2   O29   S    
C36   C38   S    
C18   C20   A    
C26   H9    S    
C35   S3    S    
Cu2   O12   S    
C28   C36   S    
C13   I8    S    
C17   C32   S    
H6    O26   S    
H4    O19   S    
C10   N2    A    
