data_mof_unit_1152.cif
_audit_creation_date              2012-12-10T17:49:43-0500
_audit_creation_method            fapswitch 2.2
_symmetry_space_group_name_H-M    P1
_symmetry_Int_Tables_number       1
_space_group_crystal_system       triclinic
_cell_length_a                    10.488309
_cell_length_b                    10.566355
_cell_length_c                    9.96273
_cell_angle_alpha                 90.910539
_cell_angle_beta                  89.260543
_cell_angle_gamma                 93.319006
_cell_volume                      1102.03100005

loop_
_atom_site_label
_atom_site_type_symbol
_atom_type_description
_atom_site_fract_x
_atom_site_fract_y
_atom_site_fract_z
_atom_type_partial_charge
Br1   Br    Br    0.292496 0.765725 0.787207 -0.437878
Br2   Br    Br    0.349593 0.851781 0.232690 -0.450800
Br3   Br    Br    0.139441 0.099872 0.871816 -0.381664
Br4   Br    Br    0.642762 0.125757 0.022781 -0.501346
C1    C     C_R   0.508471 0.259528 0.499214 0.940032
C2    C     C_R   0.524822 0.057750 0.619945 -0.037849
C3    C     C_R   0.508581 0.123188 0.498746 -0.110194
C4    C     C_R   0.257593 0.499524 0.500759 0.886963
C5    C     C_R   0.457937 0.059613 0.385167 -0.236569
C6    C     C_R   0.426876 0.931587 0.388819 0.284093
C7    C     C_R   0.443666 0.867638 0.508708 -0.140423
C8    C     C_R   0.342361 0.326039 0.146941 -0.356194
C9    C     C_R   0.266078 0.230668 0.086720 0.388392
C10   C     C_R   0.260371 0.224967 0.948872 0.199077
C11   C     C_R   0.332336 0.314298 0.869679 0.289156
C12   C     C_3   0.962300 0.503539 0.371752 -0.112131
C13   C     C_R   0.419200 0.410418 0.929680 0.122591
C14   C     C_R   0.421409 0.412603 0.074040 0.104555
C15   C     C_R   0.574880 0.583762 0.071377 -0.036817
C16   C     C_R   0.477686 0.736553 0.501920 0.909944
C17   C     C_R   0.574892 0.583782 0.928802 -0.073220
C18   C     C_R   0.742502 0.500654 0.499242 0.893741
C19   C     C_3   0.038203 0.496880 0.628411 -0.081012
C20   C     C_3   0.950475 0.394430 0.558512 -0.148871
C21   C     C_3   0.877813 0.500512 0.497988 -0.021576
C22   C     C_3   0.962935 0.603023 0.567777 -0.173213
C23   C     C_3   0.037544 0.397445 0.432423 -0.170096
C24   C     C_3   0.050080 0.606015 0.441654 -0.150062
C25   C     C_3   0.122551 0.499875 0.502162 0.000540
C26   C     C_R   0.593279 0.109364 0.732421 0.440189
C27   C     C_R   0.569735 0.055305 0.860173 0.134530
C28   C     C_R   0.483435 0.950712 0.872295 -0.240759
C29   C     C_R   0.430629 0.890754 0.758702 0.303812
C30   C     C_R   0.464524 0.937011 0.629697 -0.096678
H1    H     H_    0.906150 0.307932 0.605590 0.201851
H2    H     H_    0.072618 0.313787 0.377715 0.159541
H3    H     H_    0.439780 0.109352 0.293866 0.213752
H4    H     H_    0.207929 0.159319 0.258088 0.320821
H5    H     H_    0.286820 0.225200 0.703824 0.342688
H6    H     H_    0.730601 0.227506 0.796729 0.371962
H7    H     H_    0.457871 0.915165 0.970606 0.249337
H8    H     H_    0.636359 0.652592 0.124798 0.154799
H9    H     H_    0.335284 0.330686 0.252376 0.222802
H10   H     H_    0.636196 0.652603 0.875797 0.146577
H11   H     H_    0.073262 0.494003 0.732959 0.195116
H12   H     H_    0.927853 0.686711 0.622610 0.172655
H13   H     H_    0.095710 0.692064 0.394581 0.190416
H14   H     H_    0.927482 0.506210 0.267114 0.173240
N1    N     N_R   0.498800 0.498800 0.142780 -0.084943
N2    N     N_R   0.498760 0.498720 0.857170 -0.074614
O1    O     O_R   0.500000 0.316780 0.614690 -0.534849
O2    O     O_3   0.305648 0.313086 0.736748 -0.710328
O3    O     O_3   0.685809 0.206032 0.712080 -0.762967
O4    O     O_R   0.499990 0.316750 0.385360 -0.651280
O5    O     O_R   0.313960 0.499980 0.614650 -0.527712
O6    O     O_R   0.313940 0.499960 0.385310 -0.646120
O7    O     O_R   0.500010 0.683250 0.614640 -0.610124
O8    O     O_R   0.500000 0.683220 0.385310 -0.584732
O9    O     O_R   0.686060 0.500040 0.614690 -0.605353
O10   O     O_R   0.686040 0.500020 0.385350 -0.619914
O11   O     O_3   0.191763 0.144397 0.161138 -0.665430
Zn1   Zn    Zn3+2 0.500010 0.500020 0.653130 1.034714
Zn2   Zn    Zn3+2 0.499990 0.499980 0.346870 0.987834

loop_
_geom_bond_atom_site_label_1
_geom_bond_atom_site_label_2
_ccdc_geom_bond_type
C13   N2    A    
C12   C24   S    
C28   H7    S    
C20   C23   S    
C24   H13   S    
C11   C13   A    
C2    C3    A    
N1    Zn2   S    
C23   H2    S    
C23   C25   S    
C17   H10   S    
C5    C6    A    
C15   N1    A    
C22   C24   S    
C27   C28   A    
C15   H8    S    
C19   C20   S    
H4    O11   S    
C28   C29   A    
C12   H14   S    
C12   C23   S    
C5    H3    S    
H5    O2    S    
C21   C22   S    
O6    Zn2   S    
Br1   C29   S    
O7    Zn1   S    
C9    C10   A    
C8    C9    A    
O1    Zn1   S    
C4    O6    A    
Br3   C10   S    
O10   Zn2   S    
C19   H11   S    
C4    C25   S    
C19   C25   S    
C4    O5    A    
C24   C25   S    
C2    C26   A    
C29   C30   A    
C8    H9    S    
C18   O10   A    
C26   C27   A    
N2    Zn1   S    
C26   O3    S    
C7    C16   S    
Br4   C27   S    
C6    C7    A    
C22   H12   S    
C16   O8    A    
C20   H1    S    
O5    Zn1   S    
C3    C5    A    
C1    O4    A    
O8    Zn2   S    
C9    O11   S    
C20   C21   S    
C13   C14   A    
H6    O3    S    
O4    Zn2   S    
C19   C22   S    
C8    C14   A    
C18   O9    A    
C1    C3    S    
C12   C21   S    
C17   N2    A    
O9    Zn1   S    
C15   C17   A    
C16   O7    A    
C10   C11   A    
C7    C30   A    
C1    O1    A    
C11   O2    S    
C2    C30   A    
C14   N1    A    
C18   C21   S    
Br2   C6    S    
