data_mof_unit_2593.cif
_audit_creation_date              2013-03-05T16:30:58-0500
_audit_creation_method            fapswitch 2.2
_symmetry_space_group_name_H-M    P1
_symmetry_Int_Tables_number       1
_space_group_crystal_system       triclinic
_cell_length_a                    12.972775
_cell_length_b                    10.904185
_cell_length_c                    9.727471
_cell_angle_alpha                 93.569262
_cell_angle_beta                  97.087468
_cell_angle_gamma                 95.415824
_cell_volume                      1355.60543366

loop_
_atom_site_label
_atom_site_type_symbol
_atom_site_description
_atom_site_fract_x
_atom_site_fract_y
_atom_site_fract_z
_atom_type_partial_charge
O1    O     O_R   0.500000 0.319640 0.618810 -0.523820
O2    O     O_R   0.500010 0.319680 0.381230 -0.608019
C1    C     C_R   0.498357 0.262752 0.496643 0.848394
O3    O     O_R   0.348990 0.499960 0.599490 -0.604214
O4    O     O_R   0.349000 0.500000 0.361910 -0.514424
C2    C     C_R   0.300745 0.502428 0.472704 0.808132
Cu1   Cu    Cu3+1 0.499990 0.499980 0.640670 0.997855
Cu2   Cu    Cu3+1 0.500010 0.500020 0.359330 1.039389
O5    O     O_R   0.499990 0.680320 0.618770 -0.626744
O6    O     O_R   0.500000 0.680360 0.381190 -0.542712
O7    O     O_R   0.651000 0.500000 0.638090 -0.535133
O8    O     O_R   0.651010 0.500040 0.400510 -0.517151
C3    C     C_R   0.494676 0.736523 0.502140 0.742880
C4    C     C_R   0.698759 0.497598 0.526655 0.857298
C5    C     C_R   0.811860 0.494627 0.543002 -0.126060
C6    C     C_R   0.186276 0.497210 0.454731 -0.180481
C7    C     C_R   0.021867 0.390896 0.342793 0.212290
C8    C     C_R   0.125694 0.437605 0.335596 0.388853
C9    C     C_R   0.136584 0.544598 0.562155 -0.367292
C10   C     C_R   0.028974 0.521221 0.558337 0.064420
C11   C     C_R   0.969607 0.439986 0.450693 -0.128990
C12   C     C_R   0.859518 0.422728 0.448052 0.354477
C13   C     C_R   0.872282 0.575153 0.644822 -0.174841
C14   C     C_R   0.980095 0.583612 0.657646 -0.143894
H1    H     H_    0.835342 0.638252 0.707614 0.198189
H2    H     H_    0.024941 0.647632 0.737676 0.160072
H3    H     H_    0.182077 0.601480 0.648136 0.163771
C15   C     C_R   0.489433 0.071002 0.615983 -0.080807
C16   C     C_R   0.489454 0.128671 0.492853 -0.010375
C17   C     C_R   0.475033 0.051831 0.369578 -0.233407
H4    H     H_    0.476959 0.089007 0.270634 0.143156
C18   C     C_R   0.467135 0.923036 0.373743 -0.150494
H5    H     H_    0.459564 0.867969 0.276278 0.195835
C19   C     C_R   0.480068 0.867903 0.501708 -0.116110
C20   C     C_R   0.480952 0.945692 0.621271 -0.117346
C21   C     C_3   0.524655 0.958859 0.773844 0.721153
C22   C     C_3   0.532538 0.100100 0.764968 0.136142
H6    H     H_    0.478366 0.148984 0.823276 0.126880
C23   C     C_R   0.586279 0.542010 0.089375 0.157439
N1    N     N_R   0.500660 0.500930 0.148010 -0.270146
C24   C     C_R   0.420838 0.435504 0.055609 0.408899
C25   C     C_R   0.419543 0.436917 0.906856 0.444791
N2    N     N_R   0.500660 0.500890 0.852110 -0.272175
C26   C     C_R   0.588429 0.534226 0.946456 0.049075
C27   C     C_3   0.673389 0.638688 0.960179 -0.076257
C28   C     C_3   0.663617 0.654896 0.119219 0.728981
H7    H     H_    0.651956 0.712464 0.893500 0.123754
N3    N     N_R   0.794579 0.339820 0.345634 0.158229
O9    O     O_R   0.777673 0.369352 0.217849 -0.244821
O10   O     O_R   0.736188 0.248731 0.385663 -0.358487
O11   O     O_3   0.622643 0.913496 0.815824 -0.622988
C29   C     C_3   0.690713 0.904720 0.712475 0.016602
H8    H     H_    0.678348 0.968935 0.629274 0.184824
H9    H     H_    0.681421 0.808863 0.664181 0.142794
C30   C     C_3   0.803392 0.932939 0.779922 -0.680245
H10   H     H_    0.819565 0.873464 0.866522 0.256161
H11   H     H_    0.857095 0.915682 0.701927 0.190976
H12   H     H_    0.818569 0.030969 0.821280 0.304491
N4    N     N_R   0.639548 0.161148 0.791208 0.145851
O12   O     O_R   0.683705 0.183635 0.918933 -0.277577
O13   O     O_R   0.687577 0.203713 0.691522 -0.332921
O14   O     O_3   0.341801 0.362775 0.103717 -0.536228
C31   C     C_3   0.374814 0.246091 0.133792 0.169186
H13   H     H_    0.352870 0.227652 0.237554 0.178485
H14   H     H_    0.460422 0.241215 0.133012 0.142921
C32   C     C_3   0.316963 0.139093 0.037706 -0.841540
H15   H     H_    0.328537 0.150130 0.928515 0.288189
H16   H     H_    0.348210 0.051694 0.066911 0.229779
H17   H     H_    0.232681 0.129175 0.049385 0.259685
O15   O     O_3   0.350932 0.349852 0.821564 -0.573311
C33   C     C_3   0.247956 0.385289 0.799981 0.124859
H18   H     H_    0.223646 0.374584 0.687277 0.196397
H19   H     H_    0.241129 0.482079 0.837551 0.094191
C34   C     C_3   0.166289 0.295885 0.851670 -0.771534
H20   H     H_    0.173209 0.301240 0.965858 0.312394
H21   H     H_    0.087187 0.320972 0.813897 0.232623
H22   H     H_    0.171590 0.199992 0.809716 0.243024
N5    N     N_R   0.773745 0.594028 0.937015 0.150412
O16   O     O_R   0.858828 0.669528 0.959238 -0.441582
O17   O     O_R   0.781075 0.477174 0.907768 -0.227509
O18   O     O_3   0.752488 0.628052 0.209216 -0.529418
C35   C     C_3   0.821120 0.735882 0.252839 0.163160
H23   H     H_    0.791903 0.787125 0.339819 0.149402
H24   H     H_    0.831409 0.795923 0.166801 0.168412
C36   C     C_3   0.929242 0.703228 0.304756 -0.780176
H25   H     H_    0.945829 0.618322 0.247104 0.278757
H26   H     H_    0.988922 0.779910 0.290968 0.216418
H27   H     H_    0.934372 0.690266 0.416654 0.220822
O19   O     O_3   0.612668 0.755442 0.171162 -0.634890
C37   C     C_3   0.642429 0.871352 0.120815 -0.063140
H28   H     H_    0.571023 0.903925 0.068090 0.249787
H29   H     H_    0.700148 0.869491 0.046337 0.190111
C38   C     C_3   0.686623 0.968414 0.238938 -0.676735
H30   H     H_    0.667796 0.939231 0.340851 0.245731
H31   H     H_    0.772797 0.985507 0.244763 0.247328
H32   H     H_    0.654698 0.057408 0.218862 0.275548
N6    N     N_R   0.974827 0.289612 0.247031 0.176365
O20   O     O_R   0.977536 0.293946 0.114168 -0.302609
O21   O     O_R   0.946499 0.184519 0.294804 -0.340307
O22   O     O_3   0.167610 0.427808 0.212111 -0.530289
C39   C     C_3   0.133883 0.522855 0.128781 0.161411
H33   H     H_    0.047580 0.522165 0.113537 0.180667
H34   H     H_    0.155561 0.504968 0.024022 0.166304
C40   C     C_3   0.185658 0.651807 0.182731 -0.891631
H35   H     H_    0.271880 0.653078 0.194566 0.278006
H36   H     H_    0.161672 0.719561 0.107572 0.229526
H37   H     H_    0.160855 0.681244 0.283644 0.240996
O23   O     O_3   0.449343 0.928485 0.863618 -0.643431
C41   C     C_3   0.410604 0.802809 0.845367 0.105580
H38   H     H_    0.474884 0.743492 0.863552 0.183289
H39   H     H_    0.365763 0.780287 0.740473 0.164582
C42   C     C_3   0.336021 0.776149 0.950552 -0.875045
H40   H     H_    0.269517 0.833073 0.934756 0.260303
H41   H     H_    0.305608 0.677192 0.938130 0.195422
H42   H     H_    0.377319 0.797421 0.057180 0.255184

loop_
_geom_bond_atom_site_label_1
_geom_bond_atom_site_label_2
_geom_bond_distance
_ccdc_geom_bond_type
C32   H16   1.109719 S    
C30   H10   1.106503 S    
C31   H14   1.117777 S    
C39   H33   1.110320 S    
C21   O23   1.418554 S    
C24   C25   1.446080 A    
C12   N3    1.434054 S    
C20   C21   1.514998 S    
C40   H36   1.109810 S    
N6    O20   1.300892 A    
Cu1   Cu2   2.736786 S    
C28   O19   1.429826 S    
C27   C28   1.568213 S    
C29   H8    1.109406 S    
Cu1   O7    1.962254 S    
O14   C31   1.416395 S    
C34   H21   1.111455 S    
C21   C22   1.542361 S    
C22   H6    1.109572 S    
C14   H2    1.084312 S    
C41   H39   1.111383 S    
C17   H4    1.069540 S    
O7    C4    1.313325 A    
N5    O17   1.303060 A    
C32   H17   1.109026 S    
C25   O15   1.393592 S    
O23   C41   1.407037 S    
C19   C20   1.394397 A    
C27   H7    1.099034 S    
C1    C16   1.453486 S    
O5    C3    1.320115 A    
C42   H40   1.110621 S    
C5    C12   1.411467 A    
C10   C14   1.396030 A    
C15   C20   1.365130 A    
C34   H22   1.109955 S    
C13   C14   1.382532 A    
C27   N5    1.470112 S    
Cu1   N2    2.055125 S    
C9    H3    1.084914 S    
C29   C30   1.521578 S    
N3    O10   1.300340 A    
C32   H15   1.103204 S    
C31   C32   1.524443 S    
N4    O12   1.300715 A    
C38   H31   1.109680 S    
C11   C12   1.419630 A    
C8    O22   1.380626 S    
C24   O14   1.382150 S    
O3    Cu1   1.950380 S    
C42   H41   1.107350 S    
C40   H35   1.108907 S    
N6    O21   1.301210 A    
C29   H9    1.108532 S    
O18   C35   1.415035 S    
C36   H26   1.110834 S    
N4    O13   1.301722 A    
C34   H20   1.100719 S    
O11   C29   1.422208 S    
C42   H42   1.107298 S    
O3    C2    1.315417 A    
C41   C42   1.515196 S    
C23   N1    1.361586 A    
C33   H19   1.110365 S    
N5    O16   1.300087 A    
C36   H25   1.104855 S    
C7    C11   1.421944 A    
O1    C1    1.302676 A    
C18   C19   1.414112 A    
N2    C26   1.375972 A    
C16   C17   1.401777 A    
O4    Cu2   1.962252 S    
C28   O18   1.424015 S    
C37   H29   1.104912 S    
Cu2   O8    1.950380 S    
C7    C8    1.405966 A    
C38   H30   1.108180 S    
C22   N4    1.467103 S    
C21   O11   1.429361 S    
C23   C28   1.502177 S    
Cu2   O6    1.964732 S    
N1    C24   1.392900 A    
O8    C4    1.307564 A    
C39   C40   1.531849 S    
C35   H24   1.107329 S    
C30   H11   1.110752 S    
C25   N2    1.386912 A    
O15   C33   1.419964 S    
C26   C27   1.495948 S    
C37   C38   1.529906 S    
C39   H34   1.100861 S    
C36   H27   1.101028 S    
Cu1   O5    1.991108 S    
C15   C16   1.387030 A    
O1    Cu1   1.964734 S    
O2    Cu2   1.991108 S    
O6    C3    1.304754 A    
C33   C34   1.524186 S    
C23   C26   1.391425 A    
C38   H32   1.109445 S    
C35   C36   1.513640 S    
C18   H5    1.078921 S    
C9    C10   1.390699 A    
O2    C1    1.317722 A    
C33   H18   1.098544 S    
C41   H38   1.106654 S    
C17   C18   1.401938 A    
C37   H28   1.102199 S    
O4    C2    1.311557 A    
C15   C22   1.490951 S    
C6    C9    1.391545 A    
N3    O9    1.301081 A    
C5    C13   1.391628 A    
O22   C39   1.423140 S    
C13   H1    1.076234 S    
C2    C6    1.468908 S    
C31   H13   1.107079 S    
C3    C19   1.462887 S    
C10   C11   1.425109 A    
C6    C8    1.402911 A    
C35   H23   1.109955 S    
C30   H12   1.109245 S    
C4    C5    1.459845 S    
Cu2   N1    2.057303 S    
O19   C37   1.420565 S    
C7    N6    1.436767 S    
C40   H37   1.108321 S    
