data_mof_unit_88.cif
_audit_creation_date              2012-12-10T17:24:47-0500
_audit_creation_method            fapswitch 2.2
_symmetry_space_group_name_H-M    P1
_symmetry_Int_Tables_number       1
_space_group_crystal_system       triclinic
_cell_length_a                    23.50498
_cell_length_b                    10.869326
_cell_length_c                    9.567772
_cell_angle_alpha                 91.250705
_cell_angle_beta                  90.38675
_cell_angle_gamma                 92.008719
_cell_volume                      2442.25270819

loop_
_atom_site_label
_atom_site_type_symbol
_atom_type_description
_atom_site_fract_x
_atom_site_fract_y
_atom_site_fract_z
_atom_type_partial_charge
C1    C     C_R   0.501380 0.262122 0.498015 0.856632
C2    C     C_R   0.963763 0.265626 0.524720 -0.138511
C3    C     C_R   0.022815 0.261891 0.525893 -0.153993
C4    C     C_R   0.056271 0.371313 0.527383 0.010331
C5    C     C_R   0.029814 0.486197 0.530758 -0.069787
C6    C     C_R   0.063396 0.596349 0.535044 -0.198108
C7    C     C_R   0.036362 0.710864 0.544159 0.411469
C8    C     C_R   0.976873 0.715115 0.530894 0.326317
C9    C     C_R   0.115796 0.368505 0.523317 0.590658
C10   C     C_R   0.123119 0.588181 0.526546 0.631474
C11   C     C_R   0.235587 0.506889 0.385572 0.325547
C12   C     C_R   0.390827 0.499181 0.499800 0.839267
C13   C     C_R   0.295158 0.526780 0.384423 0.378501
C14   C     C_R   0.327867 0.492104 0.500860 -0.190706
C15   C     C_R   0.299937 0.450912 0.621530 -0.297162
C16   C     C_R   0.240784 0.443958 0.626881 -0.182907
C17   C     C_R   0.208431 0.471876 0.509533 0.227962
C18   C     C_R   0.758726 0.455299 0.627339 -0.114446
C19   C     C_R   0.699528 0.457223 0.623072 -0.226219
C20   C     C_R   0.671424 0.499012 0.503982 -0.011237
C21   C     C_R   0.703501 0.540222 0.389890 -0.231575
C22   C     C_R   0.762791 0.537995 0.394133 -0.097458
C23   C     C_R   0.494612 0.737042 0.501645 0.832200
C24   C     C_R   0.790598 0.495252 0.512770 0.346447
C25   C     C_R   0.554286 0.118183 0.717719 -0.225585
C26   C     C_R   0.559862 0.063081 0.848443 0.451974
C27   C     C_R   0.527165 0.957016 0.874756 -0.133845
C28   C     C_R   0.494086 0.898523 0.769375 0.415181
C29   C     C_R   0.498005 0.942260 0.629725 -0.097316
C30   C     C_R   0.517909 0.064121 0.613649 -0.063142
C31   C     C_R   0.501431 0.127227 0.493433 -0.212177
C32   C     C_R   0.478092 0.059978 0.376977 0.325595
C33   C     C_R   0.474993 0.931824 0.379107 0.322415
C34   C     C_R   0.608971 0.500227 0.500688 0.765994
C35   C     C_R   0.486350 0.870857 0.505431 -0.262022
C36   C     C_R   0.576802 0.660505 0.148473 -0.177290
C37   C     C_R   0.615012 0.736809 0.078428 -0.311379
C38   C     C_R   0.616444 0.734240 0.933124 0.424781
C39   C     C_R   0.576838 0.659216 0.860231 -0.194301
C40   C     C_R   0.537915 0.578200 0.927513 0.163503
C41   C     C_R   0.537948 0.578301 0.077100 0.230454
C42   C     C_R   0.463135 0.427537 0.071473 0.006404
C43   C     C_R   0.463384 0.426923 0.923430 -0.068504
C44   C     C_R   0.882398 0.602967 0.522809 0.594804
C45   C     C_R   0.877417 0.383056 0.518742 0.531848
C46   C     C_R   0.936803 0.378871 0.524511 0.014381
C47   C     C_R   0.969732 0.490197 0.528486 -0.068429
C48   C     C_R   0.942702 0.604576 0.526964 -0.173409
Cu1   Cu    Cu3+1 0.500000 0.499990 0.640660 0.942041
Cu2   Cu    Cu3+1 0.500000 0.500010 0.359340 0.997265
H1    H     H_    0.939314 0.179234 0.522411 0.221653
H2    H     H_    0.675712 0.424928 0.712327 0.154733
H3    H     H_    0.682888 0.575882 0.298623 0.148636
H4    H     H_    0.787186 0.569766 0.305499 0.138649
H5    H     H_    0.580250 0.199210 0.694227 0.153853
H6    H     H_    0.528216 0.918147 0.977894 0.219207
H7    H     H_    0.432454 0.369463 0.124804 0.196940
H8    H     H_    0.042134 0.172842 0.524066 0.203768
H9    H     H_    0.579728 0.671251 0.258629 0.217451
H10   H     H_    0.642967 0.799401 0.138426 0.168039
H11   H     H_    0.578286 0.669749 0.750569 0.220060
H12   H     H_    0.433407 0.366983 0.865985 0.148995
H13   H     H_    0.323848 0.425947 0.713202 0.197936
H14   H     H_    0.219942 0.417278 0.722723 0.186452
H15   H     H_    0.779902 0.422904 0.719714 0.141523
N1    N     N_R   0.851619 0.493667 0.517696 -0.477970
N2    N     N_R   0.147668 0.475809 0.520580 -0.439210
N3    N     N_R   0.500540 0.501210 0.147910 -0.193909
N4    N     N_R   0.500560 0.501290 0.852040 -0.187463
O1    O     O_R   0.500000 0.319640 0.618810 -0.597619
O2    O     O_2   0.845537 0.277285 0.512903 -0.524993
O3    O     O_2   0.141663 0.259585 0.519522 -0.522700
O4    O     O_2   0.156702 0.691199 0.521382 -0.514845
O5    O     O_R   0.500000 0.319660 0.381240 -0.534810
O6    O     O_R   0.417880 0.499950 0.618810 -0.594553
O7    O     O_R   0.417880 0.499980 0.381240 -0.517698
O8    O     O_R   0.500000 0.680340 0.618760 -0.562030
O9    O     O_R   0.500000 0.680360 0.381190 -0.545026
O10   O     O_R   0.582120 0.500020 0.618760 -0.615938
O11   O     O_R   0.582120 0.500050 0.381190 -0.617428
O12   O     O_2   0.854185 0.708764 0.526562 -0.472642
Cl1   Cl    Cl    0.452091 0.131373 0.225330 -0.633051
O13   O     O_3   0.601692 0.099395 0.944941 -0.605395
C49   C     C_3   0.599980 0.225556 0.983318 0.067100
H16   H     H_    0.576169 0.233949 0.082911 0.196574
H17   H     H_    0.578886 0.284291 0.906066 0.134205
C50   C     C_3   0.661205 0.274057 0.006795 -0.340228
H18   H     H_    0.681285 0.221136 0.090969 0.236708
H19   H     H_    0.685912 0.260526 0.909315 0.219690
C51   C     C_3   0.663679 0.410146 0.048015 -0.936202
H20   H     H_    0.647646 0.465454 0.961088 0.247727
H21   H     H_    0.708390 0.440564 0.071296 0.257667
H22   H     H_    0.637520 0.425745 0.142329 0.277038
O14   O     O_3   0.457765 0.802767 0.810076 -0.568298
C52   C     C_3   0.401188 0.820406 0.765481 0.106512
H23   H     H_    0.393311 0.768683 0.665711 0.138608
H24   H     H_    0.391635 0.919295 0.750726 0.122870
C53   C     C_3   0.360816 0.769224 0.875915 -0.301609
H25   H     H_    0.371504 0.672812 0.898864 0.247144
H26   H     H_    0.366568 0.826183 0.973017 0.249069
C54   C     C_3   0.298735 0.771599 0.828733 -0.906307
H27   H     H_    0.287383 0.866494 0.801336 0.263932
H28   H     H_    0.291261 0.709014 0.736796 0.265234
H29   H     H_    0.270744 0.739825 0.914748 0.273824
Cl2   Cl    Cl    0.454125 0.852213 0.221272 -0.612771
O15   O     O_3   0.650930 0.814778 0.857794 -0.596634
C55   C     C_3   0.708682 0.813489 0.900875 0.075230
H30   H     H_    0.734523 0.793251 0.806831 0.184454
H31   H     H_    0.718376 0.740871 0.977450 0.116776
C56   C     C_3   0.727283 0.940849 0.959495 -0.321039
H32   H     H_    0.720806 0.010838 0.878399 0.248645
H33   H     H_    0.700839 0.964793 0.051240 0.234569
C57   C     C_3   0.789803 0.945101 0.003798 -0.863737
H34   H     H_    0.796997 0.877709 0.087199 0.265290
H35   H     H_    0.801934 0.038728 0.045018 0.267156
H36   H     H_    0.817233 0.923706 0.912969 0.273685
O16   O     O_3   0.067677 0.821159 0.556759 -0.528695
C58   C     C_3   0.085365 0.842029 0.697701 0.134669
H37   H     H_    0.126903 0.894023 0.695967 0.199150
H38   H     H_    0.092942 0.755658 0.755080 0.116418
C59   C     C_3   0.042663 0.919766 0.777552 -0.376391
H39   H     H_    0.034220 0.004089 0.718245 0.257685
H40   H     H_    0.002016 0.865831 0.789073 0.240265
C60   C     C_3   0.065136 0.957303 0.922867 -0.838777
H41   H     H_    0.073352 0.874349 0.984703 0.269202
H42   H     H_    0.033062 0.012460 0.978376 0.274046
H43   H     H_    0.105156 0.014083 0.914778 0.263158
Cl3   Cl    Cl    0.948373 0.862856 0.513356 -0.547696
Cl4   Cl    Cl    0.194805 0.522629 0.231712 -0.592811
O17   O     O_3   0.321788 0.583948 0.273168 -0.572121
C61   C     C_3   0.308393 0.710524 0.271110 0.133625
H44   H     H_    0.262227 0.723493 0.254986 0.186991
H45   H     H_    0.329866 0.750603 0.179228 0.192776
C62   C     C_3   0.329166 0.783446 0.402498 -0.433968
H46   H     H_    0.304781 0.752457 0.494920 0.206703
H47   H     H_    0.374705 0.766220 0.420905 0.236824
C63   C     C_3   0.321119 0.921313 0.388158 -0.780618
H48   H     H_    0.338647 0.971109 0.482394 0.241684
H49   H     H_    0.275125 0.940054 0.378495 0.270049
H50   H     H_    0.343633 0.956471 0.294764 0.300401

loop_
_geom_bond_atom_site_label_1
_geom_bond_atom_site_label_2
_ccdc_geom_bond_type
C50   H18   S    
C26   O13   S    
C45   O2    S    
C7    O16   S    
C44   N1    A    
C52   H23   S    
C49   C50   S    
C36   H9    S    
C62   C63   S    
C9    N2    A    
C52   C53   S    
C7    C8    A    
C22   H4    S    
C45   C46   A    
C2    C46   A    
C18   H15   S    
C63   H49   S    
C26   C27   A    
C54   H27   S    
O13   C49   S    
C18   C24   A    
C1    O5    A    
C28   C29   A    
C37   C38   A    
C49   H17   S    
Cu2   O5    S    
C30   C31   A    
C10   O4    S    
O15   C55   S    
C15   C16   A    
Cu2   O9    S    
C1    C31   S    
C28   O14   S    
C18   C19   A    
C56   H32   S    
C59   C60   S    
C34   O11   A    
C58   H37   S    
C19   H2    S    
C8    Cl3   S    
C31   C32   A    
C16   C17   A    
C13   O17   S    
Cu1   O6    S    
C13   C14   A    
C24   N1    S    
C57   H36   S    
C20   C34   S    
C61   C62   S    
C54   H28   S    
Cu1   N4    S    
C21   C22   A    
C42   N3    A    
C55   H31   S    
C36   C41   A    
C11   Cl4   S    
C42   H7    S    
C41   N3    A    
C58   H38   S    
C38   C39   A    
C39   H11   S    
C63   H50   S    
C17   N2    S    
C40   N4    A    
C33   Cl2   S    
C49   H16   S    
C44   O12   S    
C39   C40   A    
C27   H6    S    
C9    O3    S    
C62   H47   S    
C25   C26   A    
C10   N2    A    
Cu1   O10   S    
C58   C59   S    
C38   O15   S    
C8    C48   A    
C29   C30   A    
Cu2   O7    S    
C34   O10   A    
C5    C47   A    
C51   H21   S    
C47   C48   A    
C55   H30   S    
C23   O8    A    
C56   C57   S    
C59   H39   S    
C62   H46   S    
C60   H43   S    
C40   C41   A    
C12   C14   S    
Cu1   Cu2   S    
C54   H29   S    
C23   C35   S    
Cu1   O1    S    
C50   H19   S    
C55   C56   S    
C22   C24   A    
C50   C51   S    
C42   C43   A    
C3    C4    A    
C45   N1    A    
C51   H22   S    
C60   H42   S    
C57   H34   S    
C25   C30   A    
C46   C47   A    
C11   C17   A    
C25   H5    S    
C4    C5    A    
C61   H45   S    
Cu2   O11   S    
C6    C10   A    
C52   H24   S    
C6    C7    A    
C53   C54   S    
C32   Cl1   S    
C63   H48   S    
C29   C35   A    
C53   H26   S    
C1    O1    A    
C32   C33   A    
C19   C20   A    
C12   O7    A    
O17   C61   S    
O16   C58   S    
C21   H3    S    
C11   C13   A    
C51   H20   S    
C5    C6    A    
C33   C35   A    
Cu1   O8    S    
C2    C3    A    
C23   O9    A    
O14   C52   S    
C56   H33   S    
C59   H40   S    
C37   H10   S    
C2    H1    S    
C3    H8    S    
C44   C48   A    
C20   C21   A    
C36   C37   A    
C53   H25   S    
C12   O6    A    
C27   C28   A    
C15   H13   S    
C14   C15   A    
C16   H14   S    
C4    C9    A    
C43   N4    A    
Cu2   N3    S    
C61   H44   S    
C43   H12   S    
C60   H41   S    
C57   H35   S    
