data_mof_unit_1538.cif
_audit_creation_date              2012-12-11T17:25:09-0500
_audit_creation_method            fapswitch 2.2
_symmetry_space_group_name_H-M    P1
_symmetry_Int_Tables_number       1
_space_group_crystal_system       triclinic
_cell_length_a                    6.954862
_cell_length_b                    20.545237
_cell_length_c                    24.459832
_cell_angle_alpha                 90.180355
_cell_angle_beta                  90.416526
_cell_angle_gamma                 89.401715
_cell_volume                      3494.74859793

loop_
_atom_site_label
_atom_site_type_symbol
_atom_type_description
_atom_site_fract_x
_atom_site_fract_y
_atom_site_fract_z
_atom_type_partial_charge
O1    O     O_R   0.507280 0.423750 0.460310 -0.534964
O2    O     O_R   0.171030 0.555650 0.437630 -0.538466
O3    O     O_R   0.004080 0.576250 0.539690 -0.533883
C1    C     C_R   0.338988 0.575691 0.421820 0.731644
O4    O     O_R   0.177330 0.422980 0.453960 -0.534887
O5    O     O_R   0.010420 0.442640 0.556140 -0.534972
C2    C     C_R   0.346445 0.398989 0.443421 0.683890
O6    O     O_R   0.500930 0.557360 0.443860 -0.534719
O7    O     O_3   0.340310 0.506600 0.533500 -0.367584
V1    V     V_3+5 0.064140 0.498780 0.493780 1.439752
O8    O     O_R   0.680890 0.444350 0.562370 -0.538899
C3    C     C_R   0.850598 0.424370 0.578123 0.731858
O9    O     O_R   0.674590 0.577020 0.546040 -0.535385
C4    C     C_R   0.842720 0.600906 0.556874 0.686972
V2    V     V_3+5 0.564550 0.501220 0.506220 1.439429
O10   O     O_3   0.838250 0.493400 0.466500 -0.367419
C5    C     C_R   0.975728 0.836169 0.913198 -0.161180
C6    C     C_R   0.848144 0.662405 0.588546 -0.145014
C7    C     C_R   0.025526 0.718348 0.909758 0.418096
C8    C     C_R   0.017275 0.777030 0.940180 0.227634
C9    C     C_R   0.939244 0.836145 0.856802 -0.243850
C10   C     C_R   0.944903 0.778070 0.824950 -0.042289
C11   C     C_R   0.990705 0.718547 0.852174 -0.022607
C12   C     C_R   0.908287 0.777691 0.766846 0.089943
C13   C     C_R   0.920025 0.718057 0.736398 0.038195
C14   C     C_R   0.967739 0.660777 0.764853 -0.306184
C15   C     C_R   0.001899 0.660050 0.821392 0.426547
C16   C     C_R   0.859430 0.835148 0.738038 -0.155206
C17   C     C_R   0.824807 0.834611 0.682110 -0.182729
C18   C     C_R   0.835575 0.777007 0.652057 0.050529
C19   C     C_R   0.883083 0.717579 0.678274 0.111833
C20   C     C_R   0.797037 0.778932 0.595713 -0.145440
C21   C     C_R   0.802348 0.722709 0.563667 0.357132
C22   C     C_R   0.889032 0.660356 0.645049 -0.253309
H1    H     H_    0.921084 0.612963 0.661623 0.115610
H2    H     H_    0.787763 0.880141 0.662127 0.129794
H3    H     H_    0.910655 0.883128 0.839046 0.120500
H4    H     H_    0.845077 0.882027 0.757318 0.118927
H5    H     H_    0.619057 0.204857 0.792271 0.112447
C23   C     C_R   0.729992 0.268881 0.730752 -0.144722
H6    H     H_    0.588050 0.283092 0.716368 0.114095
C24   C     C_R   0.894328 0.294853 0.706339 0.135208
C25   C     C_R   0.076585 0.275491 0.725795 -0.142387
H7    H     H_    0.205209 0.294889 0.707520 0.115332
C26   C     C_R   0.094277 0.230862 0.769040 -0.148743
H8    H     H_    0.236219 0.216656 0.783427 0.111850
C27   C     C_R   0.929939 0.204894 0.793459 0.135160
C28   C     C_R   0.747684 0.224250 0.773996 -0.149201
C29   C     C_1   0.876409 0.340924 0.661351 -0.043233
C30   C     C_1   0.947845 0.158860 0.838477 -0.054989
C31   C     C_1   0.961032 0.120668 0.876263 -0.187811
C32   C     C_1   0.863201 0.379160 0.623600 -0.176415
C33   C     C_R   0.585857 0.778938 0.241737 -0.115832
H9    H     H_    0.725372 0.800890 0.236335 0.150555
C34   C     C_R   0.433474 0.794722 0.206186 0.041024
C35   C     C_R   0.254425 0.765406 0.214221 -0.132657
H10   H     H_    0.135417 0.777207 0.187030 0.142003
C36   C     C_R   0.225723 0.720774 0.256997 0.362732
C37   C     C_R   0.380893 0.704996 0.293018 0.021529
C38   C     C_R   0.559649 0.734669 0.284681 -0.147322
C39   C     C_1   0.459207 0.840871 0.161518 -0.005475
C40   C     C_1   0.361579 0.659042 0.338308 -0.044552
C41   C     C_1   0.348338 0.620923 0.376165 -0.175148
C42   C     C_1   0.475249 0.879149 0.123879 -0.157631
C43   C     C_R   0.466518 0.160966 0.089904 -0.060252
C44   C     C_R   0.353538 0.336897 0.412885 -0.136279
C45   C     C_R   0.449551 0.278435 0.092989 -0.153325
C46   C     C_R   0.453386 0.220730 0.063144 -0.252711
C47   C     C_R   0.472327 0.158816 0.147554 0.265481
C48   C     C_R   0.440097 0.217340 0.178758 0.010104
C49   C     C_R   0.443541 0.277338 0.150267 0.108342
C50   C     C_R   0.400752 0.218920 0.236407 -0.030360
C51   C     C_R   0.402570 0.279352 0.265775 0.079793
C52   C     C_R   0.425963 0.337171 0.235597 -0.162518
C53   C     C_R   0.439387 0.336082 0.178971 -0.173227
C54   C     C_R   0.339951 0.163050 0.264169 -0.192348
C55   C     C_R   0.301142 0.163471 0.319832 0.349872
C56   C     C_R   0.327001 0.221025 0.350770 -0.045939
C57   C     C_R   0.373017 0.280085 0.323875 0.048151
C58   C     C_R   0.307188 0.220423 0.408086 -0.144388
C59   C     C_R   0.317964 0.277217 0.439199 0.355893
C60   C     C_R   0.385227 0.337675 0.356214 -0.233921
H11   H     H_    0.446981 0.381966 0.157353 0.129327
H12   H     H_    0.417751 0.384290 0.338717 0.110506
H13   H     H_    0.447415 0.324235 0.071108 0.134860
H14   H     H_    0.452389 0.222731 0.018879 0.126847
H15   H     H_    0.424176 0.384747 0.254129 0.120358
H16   H     H_    0.307552 0.118688 0.242384 0.195199
O11   O     O_R   0.323320 0.942780 0.056240 -0.534660
O12   O     O_R   0.647300 0.077050 0.046060 -0.533604
O13   O     O_R   0.813840 0.057330 0.943840 -0.538366
C61   C     C_R   0.478001 0.100953 0.056805 0.766507
O14   O     O_R   0.653250 0.944380 0.062400 -0.535068
O15   O     O_R   0.819830 0.923720 0.960300 -0.537479
C62   C     C_R   0.485224 0.924448 0.078282 0.755273
O16   O     O_R   0.317330 0.076390 0.039790 -0.541264
O17   O     O_3   0.483830 0.993470 0.966560 -0.373791
V3    V     V_3+5 0.760140 0.001210 0.006210 1.457784
O18   O     O_R   0.149290 0.922840 0.953850 -0.535991
C63   C     C_R   0.981058 0.898984 0.943082 0.702782
O19   O     O_R   0.143340 0.055500 0.937510 -0.540959
C64   C     C_R   0.973638 0.075513 0.921784 0.718061
V4    V     V_3+5 0.259690 0.998600 0.993650 1.448197
O20   O     O_3   0.986130 0.006520 0.033440 -0.364581
O21   O     O_3   0.047684 0.601847 0.846996 -0.591749
H17   H     H_    0.049408 0.565694 0.820049 0.290814
H18   H     H_    0.761079 0.824828 0.576167 0.145607
H19   H     H_    0.679837 0.723520 0.311602 0.161122
O22   O     O_3   0.044819 0.694256 0.261571 -0.652360
H20   H     H_    0.041681 0.664144 0.293005 0.291058
O23   O     O_3   0.291686 0.271618 0.494975 -0.641529
H21   H     H_    0.315458 0.313790 0.513263 0.279100
O24   O     O_3   0.235034 0.106324 0.342048 -0.631216
H22   H     H_    0.137251 0.117303 0.369896 0.291904
O25   O     O_3   0.526026 0.100505 0.171197 -0.659950
H23   H     H_    0.606338 0.110585 0.203735 0.297029
H24   H     H_    0.284061 0.175497 0.429907 0.155902
O26   O     O_3   0.761201 0.729456 0.508564 -0.638625
H25   H     H_    0.780130 0.687445 0.489414 0.279807
O27   O     O_3   0.067218 0.659854 0.935556 -0.590413
H26   H     H_    0.088311 0.666227 0.975226 0.343738
O28   O     O_3   0.052326 0.774340 0.996006 -0.653035
H27   H     H_    0.022761 0.816590 0.013640 0.287432
H28   H     H_    0.979991 0.614837 0.743996 0.117946

loop_
_geom_bond_atom_site_label_1
_geom_bond_atom_site_label_2
_ccdc_geom_bond_type
C13   C19   A    
C43   C61   S    
O18   V4    S    
C34   C35   A    
O19   C64   A    
C36   O22   S    
C46   H14   S    
C51   C52   A    
C4    C6    S    
C7    C11   A    
C7    C8    A    
C50   C54   A    
O17   V3    S    
C26   H8    S    
C31   C64   S    
C17   H2    S    
C14   C15   A    
C17   C18   A    
C16   C17   A    
O5    C3    A    
C18   C19   A    
C56   C58   A    
O15   V3    S    
V2    O10   S    
C61   O16   A    
C5    C8    A    
C35   H10   S    
C22   H1    S    
C26   C27   A    
O26   H25   S    
O8    V2    S    
C59   O23   S    
V3    O20   S    
C20   H18   S    
C48   C49   A    
O1    V2    S    
C11   C15   A    
C52   H15   S    
C6    C21   A    
O7    V1    S    
C54   H16   S    
C8    O28   S    
C38   H19   S    
C1    O6    A    
C43   C46   A    
C23   C24   A    
C37   C38   A    
O14   C62   A    
C49   C53   A    
O9    C4    A    
O11   V4    S    
C14   H28   S    
C55   O24   S    
C3    C32   S    
C33   C38   A    
C27   C30   S    
C33   C34   A    
C45   H13   S    
C52   C53   A    
C45   C46   A    
C12   C13   A    
O4    C2    A    
C56   C57   A    
C50   C51   A    
C13   C14   A    
C55   C56   A    
C5    C9    A    
O11   C62   A    
C39   C42   T    
O2    C1    A    
C25   H7    S    
C40   C41   T    
C44   C60   A    
C6    C22   A    
O15   C63   A    
O12   C61   A    
C27   C28   A    
C1    C41   S    
C16   H4    S    
C29   C32   T    
C30   C31   T    
C51   C57   A    
C19   C22   A    
C54   C55   A    
C25   C26   A    
O17   V4    S    
O3    C4    A    
C23   H6    S    
C7    O27   S    
O6    V2    S    
C60   H12   S    
O9    V2    S    
C10   C12   A    
C24   C25   A    
O13   C64   A    
O2    V1    S    
O27   H26   S    
O24   H22   S    
C23   C28   A    
C58   H24   S    
C47   O25   S    
C37   C40   S    
O23   H21   S    
O1    C2    A    
C12   C16   A    
C42   C62   S    
C58   C59   A    
O5    V1    S    
C57   C60   A    
O8    C3    A    
C33   H9    S    
O21   H17   S    
O18   C63   A    
C20   C21   A    
C36   C37   A    
O4    V1    S    
O3    V1    S    
V1    O10   S    
O22   H20   S    
C44   C59   A    
C18   C20   A    
C53   H11   S    
C43   C47   A    
C34   C39   S    
C35   C36   A    
C45   C49   A    
O13   V3    S    
O7    V2    S    
C47   C48   A    
C5    C63   S    
C24   C29   S    
C21   O26   S    
C9    H3    S    
O19   V4    S    
O16   V4    S    
V4    O20   S    
C15   O21   S    
C10   C11   A    
C48   C50   A    
O28   H27   S    
C9    C10   A    
O14   V3    S    
O12   V3    S    
O25   H23   S    
H5    C28   S    
C2    C44   S    
