data_mof_unit_595.cif
_audit_creation_date              2012-12-10T16:57:04-0500
_audit_creation_method            fapswitch 2.2
_symmetry_space_group_name_H-M    P1
_symmetry_Int_Tables_number       1
_space_group_crystal_system       triclinic
_cell_length_a                    7.830666
_cell_length_b                    8.549823
_cell_length_c                    16.94882
_cell_angle_alpha                 92.306455
_cell_angle_beta                  80.965367
_cell_angle_gamma                 93.820414
_cell_volume                      1117.65806705

loop_
_atom_site_label
_atom_site_type_symbol
_atom_type_description
_atom_site_fract_x
_atom_site_fract_y
_atom_site_fract_z
_atom_type_partial_charge
C1    C     C_R   0.545943 0.794472 0.498024 0.936079
C2    C     C_R   0.617008 0.641620 0.228191 -0.248152
C3    C     C_R   0.680850 0.532257 0.836502 -0.018071
C4    C     C_R   0.652232 0.654204 0.145698 0.017418
C5    C     C_R   0.575068 0.635019 0.886525 0.076104
C6    C     C_R   0.596080 0.527731 0.097837 0.070327
C7    C     C_R   0.433256 0.695858 0.860105 -0.203260
C8    C     C_R   0.516562 0.390074 0.132594 -0.183361
C9    C     C_R   0.387429 0.649342 0.785885 -0.053983
C10   C     C_R   0.489526 0.374484 0.214930 -0.040989
C11   C     C_2   0.586988 0.655067 0.971531 -0.098038
C12   C     C_R   0.454031 0.205589 0.502539 1.011386
C13   C     C_2   0.614231 0.529691 0.011341 -0.124988
C14   C     C_2   0.418392 0.220666 0.248194 0.979382
C15   C     C_2   0.242371 0.726774 0.760219 0.938956
C16   C     C_2   0.757529 0.794468 0.112849 0.900299
C17   C     C_2   0.850509 0.485972 0.854669 0.961762
C18   C     C_2   0.003532 0.302715 0.462208 1.122086
C19   C     C_2   0.991176 0.694750 0.541277 1.130959
C20   C     C_2   0.570040 0.958149 0.496559 -0.337738
C21   C     C_2   0.430028 0.041980 0.504565 -0.305282
C22   C     C_R   0.479508 0.507357 0.653643 0.869505
C23   C     C_R   0.521881 0.496824 0.347236 0.937451
C24   C     C_R   0.484720 0.535482 0.738800 -0.108916
C25   C     C_R   0.537641 0.504028 0.262278 -0.104078
C26   C     C_R   0.626145 0.475155 0.766474 -0.176264
H1    H     H_    0.703948 0.391451 0.729552 0.207336
H2    H     H_    0.125643 0.928247 0.753886 0.363925
H3    H     H_    0.947104 0.883309 0.029072 0.361902
H4    H     H_    0.056798 0.539571 0.910796 0.347764
H5    H     H_    0.099131 0.142229 0.379796 0.351406
H6    H     H_    0.867747 0.840615 0.624333 0.332931
H7    H     H_    0.658634 0.736841 0.266500 0.177896
H8    H     H_    0.627619 0.416534 0.980088 0.137561
H9    H     H_    0.547492 0.762979 0.003137 0.152178
H10   H     H_    0.353757 0.775452 0.899055 0.181967
H11   H     H_    0.478072 0.292990 0.094681 0.187170
H12   H     H_    0.702340 0.008957 0.488434 0.221054
H13   H     H_    0.297807 0.991243 0.512779 0.221329
H14   H     H_    0.283829 0.015380 0.231552 0.355612
N1    N     N_2   0.953500 0.457650 0.478520 -0.199249
N2    N     N_2   0.046500 0.542350 0.521480 -0.185439
O1    O     O_R   0.388470 0.738640 0.505270 -0.623465
O2    O     O_R   0.323448 0.116754 0.203256 -0.779516
O3    O     O_2   0.128182 0.649455 0.732211 -0.564016
O4    O     O_R   0.231445 0.888723 0.772511 -0.787614
O5    O     O_2   0.738232 0.922654 0.146678 -0.609138
O6    O     O_R   0.883275 0.779593 0.045137 -0.747666
O7    O     O_2   0.909962 0.363411 0.826524 -0.610222
O8    O     O_R   0.944374 0.584201 0.902544 -0.742850
O9    O     O_2   0.974723 0.206760 0.515005 -0.639140
O10   O     O_R   0.074798 0.257507 0.384622 -0.787740
O11   O     O_2   0.029887 0.798795 0.493124 -0.650888
O12   O     O_R   0.611530 0.261360 0.494730 -0.624780
O13   O     O_R   0.898391 0.727053 0.616849 -0.772329
O14   O     O_R   0.679650 0.711510 0.491500 -0.625372
O15   O     O_R   0.320350 0.288490 0.508500 -0.613387
O16   O     O_R   0.337210 0.515200 0.623500 -0.585441
O17   O     O_R   0.662790 0.484800 0.376500 -0.608803
O18   O     O_R   0.628380 0.488060 0.609730 -0.609023
O19   O     O_R   0.371620 0.511940 0.390270 -0.605146
O20   O     O_2   0.446023 0.182280 0.313516 -0.644619
Zn1   Zn    Zn3+2 0.305580 0.518120 0.509190 1.042450
Zn2   Zn    Zn3+2 0.694420 0.481880 0.490810 1.024765

loop_
_geom_bond_atom_site_label_1
_geom_bond_atom_site_label_2
_ccdc_geom_bond_type
C17   O8    S    
C22   O16   A    
C2    C4    A    
O14   Zn2   S    
C9    C24   A    
C4    C16   S    
C20   H12   S    
C7    H10   S    
H6    O13   S    
N1    Zn2   S    
C19   N2    S    
C23   O19   A    
H5    O10   S    
O18   Zn2   S    
H2    O4    S    
C19   O11   D    
C11   H9    S    
C9    C15   S    
C18   O10   S    
C13   H8    S    
C12   O12   A    
C6    C13   S    
C23   O17   A    
C11   C13   D    
C16   O6    S    
O17   Zn2   S    
O12   Zn2   S    
C12   O15   A    
N2    Zn1   S    
C10   C25   A    
C8    C10   A    
C1    O14   A    
C24   C26   A    
C18   O9    D    
C3    C17   S    
C2    C25   A    
C5    C7    A    
C23   C25   S    
C5    C11   S    
C22   O18   A    
H4    O8    S    
C22   C24   S    
C4    C6    A    
C8    H11   S    
C15   O3    D    
H3    O6    S    
O1    Zn1   S    
C14   O20   D    
C7    C9    A    
H14   O2    S    
C20   C21   D    
C2    H7    S    
C14   O2    S    
N1    N2    D    
C18   N1    S    
C19   O13   S    
O16   Zn1   S    
O19   Zn1   S    
C16   O5    D    
C1    C20   S    
C6    C8    A    
C15   O4    S    
C26   H1    S    
C12   C21   S    
C1    O1    A    
C3    C26   A    
C17   O7    D    
O15   Zn1   S    
C10   C14   S    
C3    C5    A    
C21   H13   S    
