data_mof_unit_3527.cif
_audit_creation_date              2012-12-11T15:16:37-0500
_audit_creation_method            fapswitch 2.2
_symmetry_space_group_name_H-M    P1
_symmetry_Int_Tables_number       1
_space_group_crystal_system       triclinic
_cell_length_a                    25.121629
_cell_length_b                    7.233246
_cell_length_c                    21.919885
_cell_angle_alpha                 90.000123
_cell_angle_beta                  110.222474
_cell_angle_gamma                 90.000073
_cell_volume                      3737.55539519

loop_
_atom_site_label
_atom_site_type_symbol
_atom_type_description
_atom_site_fract_x
_atom_site_fract_y
_atom_site_fract_z
_atom_type_partial_charge
O1    O     O_R   0.554350 0.505270 0.581390 -0.531391
O2    O     O_R   0.445650 0.005270 0.418610 -0.531392
O3    O     O_R   0.553380 0.177580 0.454800 -0.540716
O4    O     O_R   0.446620 0.677580 0.545200 -0.540716
C1    C     C_R   0.565870 0.344561 0.438301 0.676717
C2    C     C_R   0.434130 0.844561 0.561699 0.676717
O5    O     O_R   0.560970 0.175640 0.583140 -0.532536
O6    O     O_R   0.439030 0.675640 0.416860 -0.532536
O7    O     O_R   0.453290 0.004120 0.547860 -0.538733
O8    O     O_R   0.546710 0.504120 0.452140 -0.538733
C3    C     C_R   0.576076 0.343892 0.607560 0.676614
C4    C     C_R   0.423924 0.843892 0.392440 0.676614
O9    O     O_3   0.464660 0.338800 0.488280 -0.372920
O10   O     O_3   0.535340 0.838800 0.511720 -0.372920
V1    V     V_3+5 0.506560 0.064420 0.502170 1.413801
V2    V     V_3+5 0.493440 0.564420 0.497830 1.413802
C5    C     C_R   0.148446 0.984233 0.288788 -0.154971
C6    C     C_R   0.851555 0.484210 0.711211 -0.154970
H1    H     H_    0.063141 0.011783 0.222401 0.109295
H2    H     H_    0.936860 0.511759 0.777598 0.109294
H3    H     H_    0.234028 0.982976 0.400989 0.130344
H4    H     H_    0.765974 0.482945 0.599010 0.130344
H5    H     H_    0.136149 0.014660 0.330493 0.119425
H6    H     H_    0.863852 0.514627 0.669505 0.119425
C7    C     C_R   0.120813 0.942614 0.172409 -0.035365
C8    C     C_R   0.879187 0.442611 0.827591 -0.035365
C9    C     C_R   0.396622 0.811800 0.273865 -0.158246
C10   C     C_R   0.603377 0.311815 0.726136 -0.158246
C11   C     C_R   0.357214 0.808185 0.211103 -0.113986
C12   C     C_R   0.642785 0.308206 0.788898 -0.113986
C13   C     C_R   0.299924 0.840588 0.199897 -0.156446
C14   C     C_R   0.700075 0.340603 0.800103 -0.156445
C15   C     C_R   0.280290 0.878343 0.251814 0.076543
C16   C     C_R   0.719710 0.378347 0.748186 0.076543
C17   C     C_R   0.321290 0.883857 0.316388 0.068743
C18   C     C_R   0.678710 0.383854 0.683612 0.068742
C19   C     C_R   0.221437 0.910467 0.241799 0.073361
C20   C     C_R   0.778563 0.410465 0.758201 0.073362
C21   C     C_R   0.205416 0.949260 0.296648 0.135221
C22   C     C_R   0.794585 0.449245 0.703351 0.135221
C23   C     C_R   0.246236 0.953818 0.359125 -0.195629
C24   C     C_R   0.753765 0.453797 0.640874 -0.195629
C25   C     C_R   0.303129 0.921268 0.368945 -0.190434
C26   C     C_R   0.696871 0.421253 0.631054 -0.190432
C27   C     C_R   0.177720 0.906407 0.179495 -0.211900
C28   C     C_R   0.822279 0.406412 0.820505 -0.211899
C29   C     C_R   0.106705 0.982177 0.227271 -0.162854
C30   C     C_R   0.893296 0.482160 0.772728 -0.162855
C31   C     C_R   0.379661 0.849835 0.326940 -0.079912
C32   C     C_R   0.620338 0.349837 0.673060 -0.079912
H7    H     H_    0.186403 0.878126 0.135584 0.095415
H8    H     H_    0.813596 0.378141 0.864417 0.095414
H9    H     H_    0.440811 0.784301 0.281155 0.107917
H10   H     H_    0.559188 0.284321 0.718845 0.107917
H11   H     H_    0.272106 0.834899 0.149961 0.111142
H12   H     H_    0.727893 0.334920 0.850040 0.111142
H13   H     H_    0.371184 0.778983 0.170581 0.125854
H14   H     H_    0.628814 0.279014 0.829419 0.125854
H15   H     H_    0.332921 0.926075 0.418318 0.112776
H16   H     H_    0.667080 0.426055 0.581681 0.112774
C33   C     C_R   0.120666 0.765340 0.881526 -0.160949
C34   C     C_R   0.879337 0.265341 0.118477 -0.160948
H17   H     H_    0.105397 0.637336 0.895138 0.123746
H18   H     H_    0.894607 0.137336 0.104867 0.123746
C35   C     C_R   0.156446 0.755506 0.844792 -0.138772
C36   C     C_R   0.843556 0.255506 0.155211 -0.138772
H19   H     H_    0.167525 0.620538 0.831432 0.134458
H20   H     H_    0.832480 0.120539 0.168573 0.134458
C37   C     C_R   0.177398 0.917183 0.825430 0.020390
C38   C     C_R   0.822602 0.417183 0.174570 0.020390
C39   C     C_R   0.161733 0.089144 0.844170 -0.135392
C40   C     C_R   0.838265 0.589144 0.155827 -0.135392
H21   H     H_    0.176993 0.216743 0.830264 0.138559
H22   H     H_    0.823002 0.716742 0.169731 0.138559
C41   C     C_R   0.125930 0.099084 0.880980 -0.160037
C42   C     C_R   0.874068 0.599083 0.119017 -0.160038
H23   H     H_    0.114718 0.234118 0.894130 0.121654
H24   H     H_    0.885278 0.734117 0.105865 0.121655
C43   C     C_R   0.104726 0.937265 0.900106 -0.046933
C44   C     C_R   0.895274 0.437265 0.099894 -0.046933
N1    N     N_R   0.235256 0.061996 0.766702 -0.280440
N2    N     N_R   0.764740 0.561995 0.233293 -0.280440
N3    N     N_R   0.268892 0.051974 0.731198 -0.284122
N4    N     N_R   0.731104 0.551974 0.268797 -0.284122
C45   C     C_R   0.283943 0.885730 0.713121 0.513442
C46   C     C_R   0.716057 0.385730 0.286878 0.513442
N5    N     N_R   0.263790 0.729938 0.732232 -0.280443
N6    N     N_R   0.736214 0.229939 0.267772 -0.280444
N7    N     N_R   0.230154 0.739959 0.767734 -0.284077
N8    N     N_R   0.769849 0.239960 0.232271 -0.284077
C47   C     C_R   0.215112 0.906198 0.785822 0.513558
C48   C     C_R   0.784888 0.406198 0.214178 0.513558
C49   C     C_R   0.337601 0.702660 0.655143 -0.135275
C50   C     C_R   0.662401 0.202661 0.344860 -0.135274
H25   H     H_    0.322339 0.575090 0.669066 0.138543
H26   H     H_    0.677666 0.075091 0.330939 0.138543
C51   C     C_R   0.373627 0.692619 0.618611 -0.158761
C52   C     C_R   0.626375 0.192619 0.381392 -0.158763
H27   H     H_    0.385003 0.557574 0.605651 0.121320
H28   H     H_    0.615001 0.057575 0.394354 0.121320
C53   C     C_R   0.394883 0.854388 0.599547 -0.047866
C54   C     C_R   0.605117 0.354388 0.400453 -0.047867
C55   C     C_R   0.378702 0.026384 0.617771 -0.162068
C56   C     C_R   0.621295 0.526383 0.382226 -0.162066
H29   H     H_    0.393978 0.154301 0.604102 0.123535
H30   H     H_    0.606018 0.654300 0.395893 0.123535
C57   C     C_R   0.342699 0.036336 0.654234 -0.138716
C58   C     C_R   0.657298 0.536336 0.345763 -0.138716
H31   H     H_    0.331463 0.171347 0.667379 0.134488
H32   H     H_    0.668533 0.671346 0.332615 0.134488
C59   C     C_R   0.321759 0.874689 0.673638 0.020074
C60   C     C_R   0.678241 0.374690 0.326361 0.020073
O11   O     O_R   0.953220 0.285790 0.047790 -0.537735
O12   O     O_R   0.046780 0.785790 0.952210 -0.537735
O13   O     O_R   0.939020 0.617570 0.916840 -0.533670
O14   O     O_R   0.060980 0.117570 0.083160 -0.533671
C61   C     C_R   0.923961 0.448739 0.892457 0.682529
C62   C     C_R   0.076039 0.948740 0.107543 0.682530
O15   O     O_R   0.946600 0.615450 0.045180 -0.541040
O16   O     O_R   0.053400 0.115450 0.954820 -0.541040
O17   O     O_R   0.054370 0.786770 0.081410 -0.531311
O18   O     O_R   0.945630 0.286770 0.918590 -0.531311
C63   C     C_R   0.934271 0.446964 0.061690 0.676346
C64   C     C_R   0.065729 0.946964 0.938310 0.676346
O19   O     O_3   0.035300 0.454160 0.011680 -0.373304
O20   O     O_3   0.964700 0.954160 0.988320 -0.373304
V3    V     V_3+5 0.993450 0.728620 0.997830 1.411142
V4    V     V_3+5 0.006550 0.228620 0.002170 1.411142

loop_
_geom_bond_atom_site_label_1
_geom_bond_atom_site_label_2
_ccdc_geom_bond_type
C36   H20   S    
O20   V3    S    
C49   C51   A    
C9    C11   A    
C23   C25   A    
O1    C3    A    
C8    C61   S    
C40   C42   A    
O2    C4    A    
C7    C62   S    
C2    O7    A    
C56   H30   S    
C4    C31   S    
N2    C48   A    
C21   C23   A    
O11   V4    S    
H4    C24   S    
O5    C3    A    
C5    H5    S    
C6    H6    S    
C34   C44   A    
C42   H24   S    
O17   V3    S    
C46   N6    A    
C50   C52   A    
C28   H8    S    
C33   C43   A    
O13   V3    S    
C33   H17   S    
C5    C21   A    
C2    C53   S    
C50   C60   A    
C37   C39   A    
C6    C22   A    
C34   H18   S    
C51   H27   S    
C10   C32   A    
C58   H32   S    
O13   C61   A    
C17   C31   A    
O19   V4    S    
C13   C15   A    
N7    C47   A    
C17   C25   A    
C7    C29   A    
C25   H15   S    
C50   H26   S    
O12   C64   A    
O5    V1    S    
O6    V2    S    
C11   C13   A    
C57   H31   S    
C24   C26   A    
N1    N3    A    
C45   N5    A    
C39   C41   A    
C34   C36   A    
C12   C14   A    
C42   C44   A    
C40   H22   S    
C39   H21   S    
C10   H10   S    
O15   C63   A    
C35   H19   S    
C52   C54   A    
C15   C19   A    
C58   C60   A    
O16   C64   A    
C62   O17   A    
C14   C16   A    
O4    V2    S    
C46   C60   S    
C61   O18   A    
N8    C48   A    
O11   C63   A    
O6    C4    A    
O3    C1    A    
C9    H9    S    
H1    C29   S    
C55   H29   S    
O1    V2    S    
C54   C56   A    
O2    V1    S    
C41   H23   S    
H2    C30   S    
C49   C59   A    
H3    C23   S    
O4    C2    A    
N3    C45   A    
N6    N8    A    
N2    N4    A    
N5    N7    A    
C18   C26   A    
C19   C27   A    
C7    C27   A    
C56   C58   A    
C18   C32   A    
C53   C55   A    
C1    C54   S    
C16   C20   A    
C57   C59   A    
C38   C48   S    
C5    C29   A    
C11   H13   S    
C45   C59   S    
C6    C30   A    
C38   C40   A    
O16   V4    S    
C8    C30   A    
C43   C64   S    
C52   H28   S    
C10   C12   A    
O7    V1    S    
C1    O8    A    
C19   C21   A    
C3    C32   S    
O8    V2    S    
C20   C22   A    
O12   V3    S    
C36   C38   A    
C26   H16   S    
C35   C37   A    
C12   H14   S    
C22   C24   A    
C15   C17   A    
O14   C62   A    
C16   C18   A    
O18   V4    S    
C20   C28   A    
C8    C28   A    
N1    C47   A    
C33   C35   A    
C49   H25   S    
O14   V4    S    
O9    V2    S    
C27   H7    S    
O10   V1    S    
N4    C46   A    
O3    V1    S    
C55   C57   A    
C13   H11   S    
C37   C47   S    
C41   C43   A    
C14   H12   S    
C51   C53   A    
C9    C31   A    
C44   C63   S    
O15   V3    S    
