data_mof_unit_1572.cif
_audit_creation_date              2012-12-10T17:17:32-0500
_audit_creation_method            fapswitch 2.2
_symmetry_space_group_name_H-M    P1
_symmetry_Int_Tables_number       1
_space_group_crystal_system       triclinic
_cell_length_a                    10.193388
_cell_length_b                    10.835004
_cell_length_c                    12.302454
_cell_angle_alpha                 90.642857
_cell_angle_beta                  109.304133
_cell_angle_gamma                 95.999683
_cell_volume                      1273.81506223

loop_
_atom_site_label
_atom_site_type_symbol
_atom_type_description
_atom_site_fract_x
_atom_site_fract_y
_atom_site_fract_z
_atom_type_partial_charge
C1    C     C_R   0.053593 0.732593 0.495548 0.940667
C2    C     C_R   0.207959 0.528250 0.837627 -0.115914
C3    C     C_2   0.089632 0.865386 0.502417 -0.385548
C4    C     C_R   0.135243 0.516551 0.713794 0.854905
C5    C     C_2   0.007908 0.936250 0.534301 -0.145266
C6    C     C_2   0.926733 0.136553 0.525640 -0.383275
C7    C     C_2   0.030190 0.068317 0.531111 -0.143278
C8    C     C_2   0.432453 0.512223 0.508551 -0.122933
C9    C     C_2   0.567260 0.488851 0.490086 -0.128545
C10   C     C_R   0.949849 0.267814 0.510351 0.950526
C11   C     C_R   0.866215 0.489318 0.286095 0.874340
C12   C     C_R   0.428391 0.527501 0.992419 0.087684
C13   C     C_R   0.793491 0.598738 0.987766 -0.202082
C14   C     C_R   0.797532 0.501351 0.164056 -0.055733
C15   C     C_R   0.134970 0.489041 0.912141 -0.195514
C16   C     C_R   0.207543 0.473867 0.027470 -0.152344
C17   C     C_R   0.353054 0.489948 0.067309 -0.187193
C18   C     C_R   0.353683 0.561156 0.880772 0.092539
C19   C     C_R   0.575291 0.532610 0.024353 0.082709
C20   C     C_R   0.646921 0.589458 0.953205 0.181800
C21   C     C_R   0.571379 0.638474 0.850176 -0.256502
C22   C     C_R   0.426322 0.624676 0.814281 -0.205685
C23   C     C_R   0.652825 0.480823 0.124750 -0.251837
C24   C     C_R   0.869121 0.557196 0.094651 -0.205936
H1    H     H_    0.982185 0.574876 0.125563 0.155293
H2    H     H_    0.849350 0.643051 0.934787 0.139867
H3    H     H_    0.022387 0.465832 0.880398 0.161916
H4    H     H_    0.403492 0.475234 0.157445 0.128965
H5    H     H_    0.151278 0.443987 0.085102 0.144654
H6    H     H_    0.130189 0.108800 0.526056 0.190175
H7    H     H_    0.603091 0.428604 0.177537 0.138856
H8    H     H_    0.371410 0.665519 0.734529 0.155352
H9    H     H_    0.917786 0.896970 0.556359 0.187616
H10   H     H_    0.826951 0.095627 0.530604 0.149667
H11   H     H_    0.179473 0.905089 0.480335 0.150207
H12   H     H_    0.564829 0.415473 0.428448 0.156220
H13   H     H_    0.434702 0.586801 0.568847 0.158860
H14   H     H_    0.684477 0.622233 0.602978 0.153528
H15   H     H_    0.315749 0.376604 0.398182 0.155963
H16   H     H_    0.624228 0.685805 0.796475 0.133963
N1    N     N_2   0.313640 0.446500 0.454900 -0.193377
N2    N     N_2   0.686360 0.553430 0.545150 -0.189690
O1    O     O_R   0.936910 0.692950 0.509080 -0.607041
O2    O     O_R   0.138320 0.658600 0.480130 -0.617085
O3    O     O_R   0.002900 0.525670 0.675280 -0.612911
O4    O     O_R   0.204310 0.491320 0.646330 -0.602501
O5    O     O_R   0.861680 0.341400 0.519870 -0.609337
O6    O     O_R   0.063090 0.307050 0.490920 -0.606581
O7    O     O_R   0.795690 0.508680 0.353670 -0.605719
O8    O     O_R   0.997100 0.474330 0.324720 -0.613934
Zn1   Zn    Zn3+2 0.865520 0.522940 0.519330 0.935529
Zn2   Zn    Zn3+2 0.134480 0.477060 0.480670 0.933961

loop_
_geom_bond_atom_site_label_1
_geom_bond_atom_site_label_2
_ccdc_geom_bond_type
C12   C17   A    
C6    C10   S    
C9    H12   S    
O8    Zn2   S    
C6    C7    D    
C11   O7    A    
C2    C18   A    
N1    Zn2   S    
C2    C4    S    
C19   C20   A    
C3    H11   S    
N2    Zn1   S    
C3    C5    D    
O2    Zn2   S    
C16   H5    S    
H15   N1    S    
C7    H6    S    
C4    O4    A    
C21   C22   A    
C24   H1    S    
C2    C15   A    
O1    Zn1   S    
C9    N2    D    
C21   H16   S    
C22   H8    S    
C12   C19   A    
C14   C23   A    
H14   N2    S    
C4    O3    A    
C10   O6    A    
C11   C14   S    
C13   H2    S    
C8    H13   S    
O3    Zn1   S    
C12   C18   A    
C15   C16   A    
O4    Zn2   S    
O6    Zn2   S    
C8    N1    D    
C14   C24   A    
C10   O5    A    
C5    C7    S    
C11   O8    A    
C19   C23   A    
C16   C17   A    
O5    Zn1   S    
C1    O2    A    
C13   C20   A    
O7    Zn1   S    
C20   C21   A    
C18   C22   A    
C17   H4    S    
C15   H3    S    
C1    O1    A    
C6    H10   S    
C13   C24   A    
C5    H9    S    
C8    C9    S    
C1    C3    S    
C23   H7    S    
