data_mof_unit_386.cif
_audit_creation_date              2012-12-10T18:20:43-0500
_audit_creation_method            fapswitch 2.2
_symmetry_space_group_name_H-M    P1
_symmetry_Int_Tables_number       1
_space_group_crystal_system       triclinic
_cell_length_a                    15.858685
_cell_length_b                    10.63741
_cell_length_c                    9.439748
_cell_angle_alpha                 90.261832
_cell_angle_beta                  89.930784
_cell_angle_gamma                 90.117369
_cell_volume                      1592.42033267

loop_
_atom_site_label
_atom_site_type_symbol
_atom_type_description
_atom_site_fract_x
_atom_site_fract_y
_atom_site_fract_z
_atom_type_partial_charge
C1    C     C_R   0.500431 0.259663 0.499647 0.832688
C2    C     C_R   0.499569 0.740337 0.500353 0.832679
C3    C     C_3   0.567777 0.956374 0.428947 -0.258791
C4    C     C_3   0.432222 0.043626 0.571053 -0.258793
C5    C     C_3   0.499026 0.877007 0.500872 0.006554
C6    C     C_3   0.500974 0.122993 0.499128 0.006550
C7    C     C_3   0.502231 0.959404 0.635179 -0.218796
C8    C     C_3   0.497768 0.040596 0.364821 -0.218798
C9    C     C_3   0.558632 0.570714 0.049558 0.103541
C10   C     C_3   0.441368 0.429286 0.950441 0.103535
C11   C     C_3   0.488136 0.612540 0.949887 -0.138919
C12   C     C_3   0.511864 0.387460 0.050113 -0.139032
C13   C     C_3   0.571334 0.459036 0.948875 -0.000451
C14   C     C_3   0.428665 0.540963 0.051124 -0.000503
C15   C     C_R   0.340012 0.499816 0.500082 0.844189
C16   C     C_R   0.659988 0.500184 0.499918 0.844176
C17   C     C_3   0.970846 0.414594 0.593311 -0.199711
C18   C     C_3   0.029153 0.585410 0.406688 -0.199723
C19   C     C_3   0.028378 0.384714 0.463927 -0.226991
C20   C     C_3   0.971622 0.615290 0.536072 -0.226986
C21   C     C_1   0.250338 0.499684 0.500382 -0.086011
C22   C     C_1   0.749662 0.500318 0.499618 -0.086042
C23   C     C_3   0.026658 0.529396 0.629246 0.027747
C24   C     C_3   0.973342 0.470609 0.370754 0.027741
C25   C     C_3   0.083095 0.499910 0.501527 0.100947
C26   C     C_3   0.916905 0.500094 0.498472 0.100950
C27   C     C_1   0.174790 0.499676 0.500854 0.040663
C28   C     C_1   0.825210 0.500328 0.499146 0.040663
C29   C     C_3   0.570070 0.040374 0.562307 0.062680
C30   C     C_3   0.429930 0.959626 0.437693 0.062679
Cu1   Cu    Cu3+1 0.500020 0.499990 0.643150 0.978564
Cu2   Cu    Cu3+1 0.499980 0.500010 0.356850 0.978505
H1    H     H_    0.052450 0.290414 0.433587 0.161675
H2    H     H_    0.947550 0.709590 0.566412 0.161678
H3    H     H_    0.946130 0.345139 0.670452 0.171462
H4    H     H_    0.053869 0.654865 0.329547 0.171461
H5    H     H_    0.623461 0.918535 0.371639 0.140973
H6    H     H_    0.376539 0.081465 0.628361 0.140984
H7    H     H_    0.504458 0.924690 0.745864 0.140040
H8    H     H_    0.495542 0.075309 0.254136 0.140034
H9    H     H_    0.478669 0.707298 0.903869 0.132686
H10   H     H_    0.521331 0.292702 0.096131 0.132694
H11   H     H_    0.631280 0.424978 0.901658 0.168603
H12   H     H_    0.368719 0.575021 0.098341 0.168593
N1    N     N_3   0.500060 0.499970 0.858290 -0.196137
N2    N     N_3   0.499940 0.500030 0.141710 -0.196154
O1    O     O_R   0.500040 0.316850 0.620870 -0.581316
O2    O     O_R   0.499960 0.683150 0.379130 -0.581337
O3    O     O_R   0.500000 0.316860 0.379090 -0.597255
O4    O     O_R   0.500000 0.683140 0.620910 -0.597251
O5    O     O_R   0.379090 0.499980 0.620870 -0.563345
O6    O     O_R   0.620910 0.500020 0.379130 -0.563421
O7    O     O_R   0.379060 0.499990 0.379090 -0.567566
O8    O     O_R   0.620940 0.500010 0.620910 -0.567540
C31   C     C_2   0.945222 0.437413 0.223769 0.871450
O9    O     O_2   0.997907 0.413711 0.132993 -0.556786
O10   O     O_R   0.859370 0.433794 0.190989 -0.728555
H13   H     H_    0.848593 0.410721 0.088257 0.355732
C32   C     C_2   0.054777 0.562592 0.776230 0.871446
O11   O     O_2   0.002092 0.586292 0.867007 -0.556777
O12   O     O_R   0.140630 0.566216 0.809010 -0.728524
H14   H     H_    0.151406 0.589289 0.911742 0.355728
C33   C     C_2   0.650112 0.081793 0.632673 0.324771
H15   H     H_    0.692794 0.011841 0.674878 0.075028
O13   O     O_2   0.667914 0.193089 0.642742 -0.548293
C34   C     C_2   0.349887 0.918207 0.367327 0.324769
H16   H     H_    0.307206 0.988159 0.325122 0.075012
O14   O     O_2   0.332086 0.806911 0.357258 -0.548294
C35   C     C_2   0.625588 0.654545 0.109524 0.397583
H17   H     H_    0.608139 0.736721 0.171131 0.056781
O15   O     O_2   0.699897 0.631436 0.088591 -0.525247
C36   C     C_2   0.374419 0.345446 0.890469 0.397647
H18   H     H_    0.391880 0.263188 0.829010 0.056671
O16   O     O_2   0.300106 0.368637 0.911233 -0.525207

loop_
_geom_bond_atom_site_label_1
_geom_bond_atom_site_label_2
_ccdc_geom_bond_type
C34   O14   D    
C31   O9    D    
C29   C33   S    
C7    C29   S    
C33   O13   D    
C14   N2    S    
C24   C31   S    
C23   C32   S    
C17   C23   S    
C18   C24   S    
C17   C26   S    
C15   O7    A    
C24   C26   S    
C11   C14   S    
C35   O15   D    
C3    C29   S    
C9    C13   S    
Cu2   O6    S    
C12   H10   S    
C2    O4    A    
C15   O5    A    
C20   H2    S    
C34   H16   S    
C21   C27   T    
C9    N2    S    
C22   C28   T    
Cu2   O2    S    
C35   H17   S    
C18   C25   S    
C4    C7    S    
C32   O12   S    
C1    C6    S    
C36   O16   D    
C3    C8    S    
C10   C14   S    
Cu1   O5    S    
C5    C7    S    
C1    O1    A    
C6    C8    S    
C2    O2    A    
C12   N2    S    
C32   O11   D    
Cu1   Cu2   S    
C20   C23   S    
C10   N1    S    
C9    C11   S    
C30   C34   S    
C10   C12   S    
C4    C6    S    
C4    H6    S    
C31   O10   S    
C19   H1    S    
C11   N1    S    
C2    C5    S    
Cu1   O4    S    
Cu2   O7    S    
C13   H11   S    
C14   H12   S    
C5    C30   S    
C16   C22   S    
Cu2   N2    S    
C16   O6    A    
C9    C35   S    
C36   H18   S    
C3    C5    S    
C25   C27   S    
C17   H3    S    
C26   C28   S    
C8    C30   S    
C19   C24   S    
C13   N1    S    
C18   H4    S    
O10   H13   S    
C20   C26   S    
C17   C19   S    
C11   H9    S    
C18   C20   S    
C23   C25   S    
Cu1   O8    S    
O12   H14   S    
C19   C25   S    
C16   O8    A    
Cu2   O3    S    
C33   H15   S    
C15   C21   S    
C6    C29   S    
C12   C13   S    
C3    H5    S    
Cu1   N1    S    
C7    H7    S    
Cu1   O1    S    
C8    H8    S    
C1    O3    A    
C4    C30   S    
C10   C36   S    
