data_mof_unit_3290.cif
_audit_creation_date              2012-12-11T14:44:07-0500
_audit_creation_method            fapswitch 2.2
_symmetry_space_group_name_H-M    P1
_symmetry_Int_Tables_number       1
_space_group_crystal_system       triclinic
_cell_length_a                    18.875487
_cell_length_b                    10.925885
_cell_length_c                    18.844042
_cell_angle_alpha                 90.030075
_cell_angle_beta                  90.223544
_cell_angle_gamma                 89.902389
_cell_volume                      3886.19742841

loop_
_atom_site_label
_atom_site_type_symbol
_atom_type_description
_atom_site_fract_x
_atom_site_fract_y
_atom_site_fract_z
_atom_type_partial_charge
C1    C     C_R   0.728251 0.372374 0.143764 0.568155
C2    C     C_R   0.964585 0.990634 0.044601 -0.119548
C3    C     C_R   0.992495 0.772999 0.038089 0.013195
C4    C     C_R   0.528064 0.058979 0.029341 -0.119859
C5    C     C_R   0.522214 0.062928 0.956838 -0.145565
C6    C     C_R   0.028064 0.558979 0.029341 -0.119859
C7    C     C_R   0.022214 0.562928 0.956838 -0.145565
C8    C     C_R   0.475089 0.501461 0.972008 -0.117935
C9    C     C_R   0.464585 0.490634 0.044601 -0.119548
C10   C     C_R   0.695811 0.870330 0.037617 -0.118742
C11   C     C_R   0.310950 0.889986 0.963113 -0.117290
C12   C     C_R   0.195811 0.370330 0.037617 -0.118742
C13   C     C_R   0.810950 0.389986 0.963113 -0.117289
C14   C     C_R   0.695556 0.856789 0.964297 0.072047
C15   C     C_R   0.306099 0.878505 0.036350 0.052888
C16   C     C_R   0.195556 0.356789 0.964297 0.072047
C17   C     C_R   0.268890 0.377864 0.853724 0.562280
C18   C     C_R   0.806099 0.378505 0.036350 0.052888
C19   C     C_R   0.746767 0.920360 0.923469 0.037043
C20   C     C_R   0.239659 0.894003 0.068716 0.041203
C21   C     C_R   0.246767 0.420360 0.923469 0.037043
C22   C     C_R   0.739659 0.394003 0.068716 0.041203
C23   C     C_R   0.789261 0.009014 0.955846 -0.145928
C24   C     C_R   0.178841 0.912948 0.026607 -0.133525
C25   C     C_R   0.289262 0.509014 0.955846 -0.145928
C26   C     C_R   0.678841 0.412948 0.026607 -0.133525
C27   C     C_R   0.788450 0.022424 0.028315 -0.132538
C28   C     C_R   0.228251 0.872375 0.143764 0.568155
C29   C     C_R   0.184096 0.922814 0.954102 -0.124816
C30   C     C_R   0.288450 0.522424 0.028315 -0.132537
C31   C     C_R   0.684096 0.422814 0.954102 -0.124816
C32   C     C_R   0.744232 0.949086 0.069997 0.004882
C33   C     C_R   0.250344 0.917082 0.922361 0.005586
C34   C     C_R   0.244231 0.449086 0.069997 0.004882
C35   C     C_R   0.750344 0.417082 0.922361 0.005585
C36   C     C_R   0.479398 0.052788 0.455206 -0.132754
C37   C     C_R   0.463114 0.051336 0.526095 -0.137395
C38   C     C_R   0.979398 0.552787 0.455206 -0.132754
C39   C     C_R   0.768890 0.877864 0.853724 0.562280
C40   C     C_R   0.963114 0.551336 0.526095 -0.137395
C41   C     C_R   0.456699 0.160646 0.563973 0.012612
C42   C     C_R   0.495272 0.163520 0.421307 0.019643
C43   C     C_R   0.956699 0.660646 0.563973 0.012612
C44   C     C_R   0.995272 0.663520 0.421307 0.019643
C45   C     C_R   0.532998 0.154830 0.145632 0.542142
C46   C     C_R   0.469549 0.156589 0.852678 0.553074
C47   C     C_R   0.032998 0.654830 0.145632 0.542142
C48   C     C_R   0.969549 0.656589 0.852678 0.553074
C49   C     C_R   0.466914 0.273058 0.529210 -0.108646
C50   C     C_R   0.490257 0.398074 0.931451 -0.087398
C51   C     C_R   0.487795 0.274270 0.458199 -0.109254
C52   C     C_R   0.966915 0.773058 0.529210 -0.108646
C53   C     C_R   0.987795 0.774270 0.458199 -0.109254
C54   C     C_R   0.797937 0.030435 0.475668 0.104176
C55   C     C_R   0.206486 0.039645 0.521654 0.110465
C56   C     C_R   0.297937 0.530435 0.475668 0.104176
C57   C     C_R   0.706486 0.539645 0.521654 0.110465
C58   C     C_R   0.800107 0.015535 0.548216 0.381686
C59   C     C_R   0.206753 0.025070 0.448819 0.392796
C60   C     C_R   0.300106 0.515535 0.548216 0.381686
C61   C     C_R   0.472311 0.377454 0.077496 -0.092118
C62   C     C_R   0.706753 0.525070 0.448819 0.392796
C63   C     C_R   0.748405 0.944636 0.582831 0.004345
C64   C     C_R   0.253007 0.940452 0.417158 0.004610
C65   C     C_R   0.248405 0.444636 0.582831 0.004345
C66   C     C_R   0.753007 0.440452 0.417158 0.004610
C67   C     C_R   0.685256 0.917949 0.547491 -0.179529
C68   C     C_R   0.308246 0.890338 0.456840 -0.198934
C69   C     C_R   0.185256 0.417949 0.547491 -0.179529
C70   C     C_R   0.808246 0.390338 0.456840 -0.198934
C71   C     C_R   0.678306 0.945826 0.475516 -0.149889
C72   C     C_R   0.990257 0.898074 0.931451 -0.087398
C73   C     C_R   0.312549 0.912880 0.529204 -0.171066
C74   C     C_R   0.178306 0.445826 0.475516 -0.149889
C75   C     C_R   0.812549 0.412880 0.529204 -0.171065
C76   C     C_R   0.735821 0.995774 0.437975 -0.035671
C77   C     C_R   0.261904 0.987020 0.562602 -0.039702
C78   C     C_R   0.235821 0.495774 0.437975 -0.035670
C79   C     C_R   0.761904 0.487020 0.562602 -0.039702
C80   C     C_R   0.739753 0.975795 0.145086 0.555241
C81   C     C_R   0.258584 0.967585 0.851931 0.563927
C82   C     C_R   0.239753 0.475795 0.145086 0.555241
C83   C     C_R   0.972311 0.877454 0.077496 -0.092118
C84   C     C_R   0.758584 0.467585 0.851931 0.563927
C85   C     C_R   0.731398 0.383837 0.350321 0.567249
C86   C     C_R   0.268790 0.384238 0.649487 0.548113
C87   C     C_R   0.231398 0.883837 0.350321 0.567249
C88   C     C_R   0.768790 0.884238 0.649487 0.548113
C89   C     C_R   0.531161 0.157006 0.353048 0.538158
C90   C     C_R   0.437695 0.153354 0.638799 0.533196
C91   C     C_R   0.031161 0.657006 0.353048 0.538159
C92   C     C_R   0.937696 0.653354 0.638799 0.533196
C93   C     C_R   0.728726 0.020512 0.361886 0.568319
C94   C     C_R   0.975089 0.001461 0.972008 -0.117935
C95   C     C_R   0.270293 0.017011 0.637774 0.547265
C96   C     C_R   0.228726 0.520512 0.361886 0.568319
C97   C     C_R   0.770293 0.517011 0.637774 0.547265
C98   C     C_R   0.502122 0.170562 0.922950 -0.007642
C99   C     C_R   0.511434 0.161418 0.071159 0.015666
C100  C     C_R   0.002122 0.670562 0.922950 -0.007642
C101  C     C_R   0.011434 0.661418 0.071159 0.015667
C102  C     C_R   0.495086 0.280763 0.963120 0.019571
C103  C     C_R   0.492495 0.272999 0.038089 0.013195
C104  C     C_R   0.995086 0.780763 0.963120 0.019571
Cr1   Cr    Cr6+3 0.772000 0.169640 0.250110 1.069939
Cr2   Cr    Cr6+3 0.383330 0.010620 0.749160 1.052211
Cr3   Cr    Cr6+3 0.116670 0.510620 0.250840 1.070423
Cr4   Cr    Cr6+3 0.883330 0.510620 0.749160 1.052211
Cr5   Cr    Cr6+3 0.228000 0.169640 0.749890 1.078476
Cr6   Cr    Cr6+3 0.272000 0.669640 0.250110 1.069939
Cr7   Cr    Cr6+3 0.728000 0.669640 0.749890 1.078476
Cr8   Cr    Cr6+3 0.614960 0.323350 0.249260 1.069264
Cr9   Cr    Cr6+3 0.385040 0.323350 0.750740 1.064887
Cr10  Cr    Cr6+3 0.114960 0.823350 0.249260 1.069264
Cr11  Cr    Cr6+3 0.885040 0.823350 0.750740 1.064887
Cr12  Cr    Cr6+3 0.616670 0.010620 0.250840 1.070423
F1    F     F_    0.856863 0.062245 0.583766 -0.598068
F2    F     F_    0.156661 0.084768 0.409845 -0.585984
F3    F     F_    0.356863 0.562245 0.583766 -0.598068
F4    F     F_    0.656661 0.584768 0.409845 -0.585984
H1    H     H_    0.546200 0.973797 0.052517 0.178968
H2    H     H_    0.353704 0.867765 0.559502 0.188418
H3    H     H_    0.129086 0.423870 0.448717 0.180186
H4    H     H_    0.853704 0.367765 0.559502 0.188418
H5    H     H_    0.501299 0.412848 0.875944 0.149553
H6    H     H_    0.461901 0.372944 0.133786 0.146253
H7    H     H_    0.001299 0.912848 0.875944 0.149553
H8    H     H_    0.961901 0.872944 0.133786 0.146253
H9    H     H_    0.970647 0.090160 0.946857 0.152907
H10   H     H_    0.951248 0.070407 0.075795 0.156865
H11   H     H_    0.470647 0.590160 0.946857 0.152907
H12   H     H_    0.530201 0.979176 0.927307 0.177267
H13   H     H_    0.451248 0.570407 0.075795 0.156865
H14   H     H_    0.657692 0.820456 0.069203 0.155588
H15   H     H_    0.362870 0.885826 0.938915 0.161728
H16   H     H_    0.157692 0.320456 0.069203 0.155588
H17   H     H_    0.862870 0.385826 0.938915 0.161728
H18   H     H_    0.826483 0.063327 0.925643 0.143615
H19   H     H_    0.126493 0.919841 0.049551 0.163772
H20   H     H_    0.326483 0.563327 0.925643 0.143615
H21   H     H_    0.626493 0.419841 0.049551 0.163772
H22   H     H_    0.822380 0.091495 0.051512 0.164112
H23   H     H_    0.046199 0.473797 0.052517 0.178968
H24   H     H_    0.136936 0.942308 0.923254 0.157047
H25   H     H_    0.322380 0.591495 0.051512 0.164112
H26   H     H_    0.636936 0.442308 0.923254 0.157047
H27   H     H_    0.484469 0.965334 0.428550 0.160550
H28   H     H_    0.457489 0.963392 0.551597 0.151220
H29   H     H_    0.984469 0.465334 0.428550 0.160550
H30   H     H_    0.957489 0.463392 0.551597 0.151220
H31   H     H_    0.461516 0.358993 0.557347 0.202688
H32   H     H_    0.500844 0.360424 0.433206 0.188111
H33   H     H_    0.961516 0.858993 0.557347 0.202688
H34   H     H_    0.030201 0.479176 0.927307 0.177267
H35   H     H_    0.000844 0.860424 0.433206 0.188111
H36   H     H_    0.642232 0.874449 0.575214 0.177313
H37   H     H_    0.346047 0.830077 0.432374 0.182206
H38   H     H_    0.142232 0.374449 0.575214 0.177313
H39   H     H_    0.846047 0.330077 0.432374 0.182206
H40   H     H_    0.629086 0.923870 0.448717 0.180186
I1    I     I_    0.898294 0.087188 0.432333 -0.259293
I2    I     I_    0.110381 0.118612 0.561520 -0.223694
I3    I     I_    0.398294 0.587188 0.432333 -0.259293
I4    I     I_    0.610381 0.618612 0.561520 -0.223694
I5    I     I_    0.614643 0.740859 0.923448 -0.422915
I6    I     I_    0.401707 0.846826 0.093314 -0.415935
I7    I     I_    0.114643 0.240859 0.923448 -0.422914
I8    I     I_    0.901707 0.346826 0.093314 -0.415936
O1    O     O_R   0.787540 0.042690 0.170470 -0.509995
O2    O     O_R   0.454130 0.051100 0.669160 -0.511382
O3    O     O_R   0.045870 0.551100 0.330840 -0.524313
O4    O     O_R   0.954130 0.551100 0.669160 -0.511382
O5    O     O_R   0.681340 0.959300 0.325510 -0.474349
O6    O     O_R   0.318660 0.959300 0.674490 -0.502967
O7    O     O_R   0.181340 0.459300 0.325510 -0.474349
O8    O     O_R   0.818660 0.459300 0.674490 -0.502967
O9    O     O_3   0.667880 0.167870 0.250070 -0.295794
O10   O     O_3   0.332120 0.167870 0.749930 -0.300467
O11   O     O_3   0.167880 0.667870 0.250070 -0.295794
O12   O     O_R   0.212460 0.042690 0.829530 -0.481412
O13   O     O_3   0.832120 0.667870 0.749930 -0.300467
O14   O     O_R   0.765660 0.292160 0.175050 -0.474796
O15   O     O_R   0.234340 0.292160 0.824950 -0.464118
O16   O     O_R   0.265660 0.792160 0.175050 -0.474796
O17   O     O_R   0.734340 0.792160 0.824950 -0.464118
O18   O     O_R   0.670190 0.408980 0.168550 -0.521379
O19   O     O_R   0.329810 0.408980 0.831450 -0.524636
O20   O     O_R   0.170190 0.908980 0.168550 -0.521379
O21   O     O_R   0.829810 0.908980 0.831450 -0.524636
O22   O     O_R   0.556580 0.251450 0.175160 -0.520245
O23   O     O_R   0.287540 0.542690 0.170470 -0.509995
O24   O     O_R   0.443420 0.251450 0.824840 -0.507474
O25   O     O_R   0.056580 0.751450 0.175160 -0.520245
O26   O     O_R   0.943420 0.751450 0.824840 -0.507474
O27   O     O_R   0.545920 0.049510 0.170320 -0.495840
O28   O     O_R   0.454080 0.049510 0.829680 -0.504797
O29   O     O_R   0.045920 0.549510 0.170320 -0.495840
O30   O     O_R   0.954080 0.549510 0.829680 -0.504797
O31   O     O_R   0.681390 0.957840 0.176710 -0.497867
O32   O     O_R   0.318610 0.957840 0.823290 -0.502601
O33   O     O_R   0.181390 0.457840 0.176710 -0.497867
O34   O     O_R   0.712460 0.542690 0.829530 -0.481412
O35   O     O_R   0.818610 0.457840 0.823290 -0.502601
O36   O     O_R   0.787500 0.044280 0.330990 -0.475294
O37   O     O_R   0.212500 0.044280 0.669010 -0.470956
O38   O     O_R   0.287500 0.544280 0.330990 -0.475294
O39   O     O_R   0.712500 0.544280 0.669010 -0.470956
O40   O     O_R   0.765610 0.293630 0.323860 -0.520820
O41   O     O_R   0.234390 0.293630 0.676140 -0.518831
O42   O     O_R   0.265610 0.793630 0.323860 -0.520820
O43   O     O_R   0.734390 0.793630 0.676140 -0.518831
O44   O     O_R   0.670140 0.410570 0.329080 -0.428503
O45   O     O_R   0.556540 0.252920 0.323970 -0.495688
O46   O     O_R   0.329860 0.410570 0.670920 -0.439611
O47   O     O_R   0.170140 0.910570 0.329080 -0.428503
O48   O     O_R   0.829860 0.910570 0.670920 -0.439611
O49   O     O_R   0.443460 0.252920 0.676030 -0.487335
O50   O     O_R   0.056540 0.752920 0.323970 -0.495688
O51   O     O_R   0.943460 0.752920 0.676030 -0.487335
O52   O     O_R   0.545870 0.051100 0.330840 -0.524312

loop_
_geom_bond_atom_site_label_1
_geom_bond_atom_site_label_2
_ccdc_geom_bond_type
C3    C104  A    
C45   O27   A    
C99   C103  A    
C95   O37   A    
C16   C21   A    
C47   C101  S    
C96   O7    A    
C55   C59   A    
C82   O23   A    
C57   C79   A    
C23   H18   S    
C36   C42   A    
C86   O41   A    
Cr7   O13   S    
C83   H8    S    
C81   O32   A    
C56   C78   A    
C57   C62   A    
Cr3   O3    S    
C1    O18   A    
C71   H40   S    
C57   I4    S    
C56   I3    S    
C10   H14   S    
C59   C64   A    
Cr1   O1    S    
C13   C18   A    
Cr1   O40   S    
C9    C61   A    
C64   C68   A    
C89   O45   A    
C36   C37   A    
C61   C103  A    
C95   O6    A    
C92   O4    A    
C13   C35   A    
Cr4   O35   S    
C28   O20   A    
Cr8   O18   S    
C71   C76   A    
C55   C77   A    
C43   C52   A    
C16   I7    S    
Cr9   O19   S    
C29   C33   A    
Cr6   O23   S    
C100  C104  A    
C27   H22   S    
Cr10  O20   S    
C60   F3    S    
C70   H39   S    
C6    C101  A    
C41   C49   A    
Cr8   O44   S    
C93   O36   A    
C24   C29   A    
C90   O49   A    
C22   C26   A    
C31   H26   S    
C11   C15   A    
Cr5   O10   S    
C40   C43   A    
C12   C16   A    
C78   C96   S    
C8    C9    A    
C49   C51   A    
C88   O43   A    
Cr11  O48   S    
C12   H16   S    
C15   I6    S    
C61   H6    S    
C23   C27   A    
Cr1   O14   S    
Cr12  O52   S    
C26   H21   S    
C38   H29   S    
C62   F4    S    
C42   C51   A    
C48   O26   A    
Cr5   O15   S    
C65   C86   S    
C41   C90   S    
C46   C98   S    
Cr6   O16   S    
C1    C22   S    
C37   H28   S    
C97   O8    A    
Cr12  O9    S    
Cr4   O30   S    
Cr2   O2    S    
Cr11  O51   S    
C2    C83   A    
Cr6   O42   S    
Cr9   O46   S    
Cr10  O50   S    
Cr5   O41   S    
C44   C53   A    
Cr7   O34   S    
Cr9   O49   S    
Cr11  O13   S    
C79   C97   S    
C80   O1    A    
C5    H12   S    
C24   H19   S    
C87   O47   A    
C15   C20   A    
C48   C100  S    
C66   C85   S    
C63   C67   A    
Cr7   O17   S    
C94   H9    S    
C7    C100  A    
C30   C34   A    
C72   H7    S    
C75   H4    S    
C68   C73   A    
C20   C24   A    
C2    C94   A    
C25   H20   S    
C81   O12   A    
C45   C99   S    
Cr1   O9    S    
C62   C66   A    
Cr12  O31   S    
C49   H31   S    
Cr1   O36   S    
Cr2   O28   S    
C72   C104  A    
C52   H33   S    
C98   C102  A    
C80   O31   A    
C77   C95   S    
C58   F1    S    
C17   C21   S    
C56   C60   A    
C48   O30   A    
C67   H36   S    
C13   H17   S    
C92   O51   A    
C19   C23   A    
C86   O46   A    
C38   C44   A    
C11   H15   S    
C76   C93   S    
C32   C80   S    
C50   C102  A    
Cr9   O10   S    
C17   O15   A    
C36   H27   S    
C96   O38   A    
C11   C33   A    
C35   C84   S    
C90   O2    A    
C8    H11   S    
C69   H38   S    
Cr2   O6    S    
C40   H30   S    
C69   C74   A    
Cr6   O38   S    
C50   H5    S    
Cr8   O45   S    
C97   O39   A    
C14   I5    S    
Cr5   O37   S    
C44   C91   S    
C19   C39   S    
C54   C76   A    
Cr12  O5    S    
C84   O35   A    
Cr11  O26   S    
C60   C65   A    
C53   H35   S    
C59   F2    S    
Cr3   O29   S    
Cr4   O4    S    
C3    C83   A    
C87   O42   A    
C31   C35   A    
C75   C79   A    
C12   C34   A    
C63   C88   S    
C85   O44   A    
Cr7   O39   S    
C70   C75   A    
Cr10  O11   S    
C52   C53   A    
C30   H25   S    
Cr2   O32   S    
C54   C58   A    
Cr10  O25   S    
C84   O34   A    
C25   C30   A    
Cr9   O24   S    
C21   C25   A    
C18   I8    S    
C88   O48   A    
Cr3   O11   S    
C27   C32   A    
C18   C22   A    
C14   C19   A    
C47   O25   A    
C58   C63   A    
C55   I2    S    
C46   O24   A    
C4    C5    A    
C51   H32   S    
C82   O33   A    
C1    O14   A    
Cr3   O33   S    
C6    C7    A    
Cr11  O21   S    
C20   C28   S    
C43   C92   S    
C91   O3    A    
C42   C89   S    
C91   O50   A    
C28   O16   A    
C72   C94   A    
C89   O52   A    
C38   C40   A    
C29   H24   S    
Cr5   O12   S    
C3    C101  A    
C66   C70   A    
C7    H34   S    
Cr3   O7    S    
Cr6   O11   S    
C17   O19   A    
C65   C69   A    
Cr4   O8    S    
C93   O5    A    
C2    H10   S    
C4    H1    S    
C74   H3    S    
C8    C50   A    
C67   C71   A    
C54   I1    S    
C37   C41   A    
C102  C103  A    
Cr10  O47   S    
Cr7   O43   S    
Cr8   O22   S    
C39   O17   A    
C10   C32   A    
C45   O22   A    
C26   C31   A    
C5    C98   A    
C73   H2    S    
C74   C78   A    
C4    C99   A    
Cr4   O13   S    
C46   O28   A    
Cr12  O27   S    
C39   O21   A    
C73   C77   A    
C47   O29   A    
C34   C82   S    
C6    H23   S    
C33   C81   S    
Cr2   O10   S    
C64   C87   S    
C68   H37   S    
C85   O40   A    
C10   C14   A    
Cr8   O9    S    
C9    H13   S    
