data_mof_unit_837.cif
_audit_creation_date              2012-12-10T18:05:52-0500
_audit_creation_method            fapswitch 2.2
_symmetry_space_group_name_H-M    P1
_symmetry_Int_Tables_number       1
_space_group_crystal_system       triclinic
_cell_length_a                    12.603081
_cell_length_b                    12.980428
_cell_length_c                    14.910873
_cell_angle_alpha                 91.147052
_cell_angle_beta                  102.286303
_cell_angle_gamma                 83.405878
_cell_volume                      2367.65903399

loop_
_atom_site_label
_atom_site_type_symbol
_atom_type_description
_atom_site_fract_x
_atom_site_fract_y
_atom_site_fract_z
_atom_type_partial_charge
C1    C     C_R   0.440584 0.690288 0.477934 0.953082
C2    C     C_R   0.501414 0.408743 0.092190 -0.242292
C3    C     C_R   0.478917 0.695659 0.047597 0.011239
C4    C     C_R   0.479182 0.694645 0.954381 -0.244175
C5    C     C_R   0.488755 0.601087 0.906444 0.141250
C6    C     C_R   0.496698 0.505494 0.952975 -0.034657
C7    C     C_R   0.505593 0.410065 0.905723 -0.244149
C8    C     C_R   0.511707 0.315688 0.951862 0.581748
C9    C     C_R   0.509139 0.315057 0.044184 0.603986
C10   C     C_R   0.488818 0.600734 0.812354 -0.117443
C11   C     C_R   0.499861 0.505108 0.767957 -0.228678
C12   C     C_R   0.500079 0.501636 0.672481 0.973235
C13   C     C_R   0.507896 0.411095 0.813076 0.626008
C14   C     C_R   0.733328 0.054445 0.486149 0.566047
C15   C     C_R   0.595653 0.196452 0.502033 -0.200326
C16   C     C_R   0.294701 0.833075 0.415241 0.489967
C17   C     C_R   0.262370 0.933982 0.381601 -0.195362
C18   C     C_R   0.341210 0.003237 0.387005 0.465656
C19   C     C_R   0.453964 0.967103 0.416644 -0.054142
C20   C     C_R   0.484006 0.859984 0.424364 -0.048345
C21   C     C_R   0.538545 0.032000 0.441089 0.030150
C22   C     C_R   0.650208 0.990936 0.449536 -0.023482
C23   C     C_R   0.560266 0.307482 0.510301 0.930123
C24   C     C_R   0.673163 0.885812 0.425466 -0.041018
C25   C     C_R   0.590068 0.821534 0.415091 -0.082365
C26   C     C_R   0.514198 0.133695 0.467199 -0.161192
C27   C     C_R   0.706619 0.154373 0.518991 -0.109056
C28   C     C_R   0.406134 0.795434 0.438947 -0.227188
C29   C     C_R   0.085440 0.350261 0.366049 0.610598
C30   C     C_R   0.804680 0.618536 0.619541 0.550195
C31   C     C_R   0.913807 0.625642 0.658637 0.380921
C32   C     C_R   0.994807 0.572186 0.619592 0.505641
C33   C     C_R   0.966074 0.518212 0.535849 -0.162782
C34   C     C_R   0.499454 0.499634 0.327471 1.015230
C35   C     C_R   0.854240 0.503671 0.505350 -0.056713
C36   C     C_R   0.043011 0.472457 0.484654 -0.220402
C37   C     C_R   0.009061 0.401372 0.412915 -0.234217
C38   C     C_R   0.899560 0.383080 0.389070 0.622211
C39   C     C_R   0.824370 0.432866 0.435248 -0.172761
C40   C     C_R   0.151221 0.497744 0.497635 0.787587
C41   C     C_R   0.192966 0.371456 0.389017 -0.221934
C42   C     C_R   0.500351 0.408323 0.185115 0.609356
C43   C     C_R   0.497263 0.501459 0.232016 -0.307838
C44   C     C_R   0.492636 0.596498 0.189377 0.450216
C45   C     C_R   0.488304 0.600412 0.094988 0.025081
C46   C     C_R   0.495255 0.505048 0.046650 -0.139688
H1    H     H_    0.430596 0.163654 0.466049 0.232366
H2    H     H_    0.609082 0.741269 0.397576 0.212277
H3    H     H_    0.253152 0.331968 0.354421 0.238920
H4    H     H_    0.743960 0.410281 0.417307 0.223033
H5    H     H_    0.471252 0.768501 0.919648 0.164853
N1    N     N_R   0.222190 0.444670 0.452360 -0.202315
N2    N     N_R   0.776970 0.554790 0.547140 -0.193416
O1    O     O_R   0.366740 0.627160 0.477250 -0.515936
O2    O     O_R   0.544830 0.662520 0.507680 -0.597878
O3    O     O_R   0.410940 0.482340 0.616930 -0.560124
O4    O     O_R   0.589030 0.517700 0.647360 -0.570065
O5    O     O_R   0.455170 0.337480 0.492320 -0.607931
O6    O     O_R   0.633260 0.372840 0.522750 -0.640787
O7    O     O_R   0.410970 0.482300 0.352640 -0.611097
O8    O     O_R   0.589060 0.517660 0.383070 -0.645692
Zn1   Zn    Zn3+2 0.381090 0.476390 0.479680 1.065270
Zn2   Zn    Zn3+2 0.618910 0.523610 0.520320 0.999876
F1    F     F_    0.505229 0.318038 0.231510 -0.609779
C47   C     C_R   0.779945 0.837816 0.409494 0.171503
C48   C     C_R   0.868773 0.811301 0.482764 -0.089389
C49   C     C_R   0.966419 0.760212 0.465959 -0.111337
C50   C     C_R   0.973267 0.728129 0.377158 -0.030915
C51   C     C_R   0.883895 0.750570 0.304500 -0.168101
C52   C     C_R   0.788048 0.806034 0.320388 -0.165492
H6    H     H_    0.862610 0.830866 0.552562 0.185411
H7    H     H_    0.035934 0.743429 0.522175 0.215906
H8    H     H_    0.047211 0.684885 0.364573 0.195708
H9    H     H_    0.888918 0.725159 0.235803 0.146705
H10   H     H_    0.719177 0.822224 0.263633 0.152938
F2    F     F_    0.840354 0.017705 0.497604 -0.707316
F3    F     F_    0.216750 0.771409 0.421800 -0.663706
F4    F     F_    0.308462 0.100247 0.351798 -0.670942
C53   C     C_R   0.146984 0.963393 0.335992 0.222354
C54   C     C_R   0.100305 0.907999 0.258310 -0.121138
C55   C     C_R   0.990971 0.933261 0.214845 -0.164795
C56   C     C_R   0.926806 0.012603 0.249488 -0.067031
C57   C     C_R   0.972412 0.067559 0.326871 0.030793
C58   C     C_R   0.082422 0.043881 0.369924 -0.030338
H11   H     H_    0.148812 0.845409 0.231288 0.141779
H12   H     H_    0.955657 0.890490 0.154959 0.148487
H13   H     H_    0.841687 0.031344 0.216548 0.150470
H14   H     H_    0.922065 0.128538 0.353035 0.192685
H15   H     H_    0.116597 0.087047 0.430018 0.135416
F5    F     F_    0.863504 0.317690 0.319975 -0.633792
F6    F     F_    0.057073 0.280824 0.298385 -0.591224
F7    F     F_    0.492973 0.683501 0.241554 -0.708555
F8    F     F_    0.185146 0.580948 0.546892 -0.606048
F9    F     F_    0.726163 0.668890 0.658640 -0.628984
F10   F     F_    0.098449 0.564876 0.669981 -0.584613
F11   F     F_    0.941235 0.680413 0.736956 -0.587857
C59   C     C_R   0.467326 0.798440 0.091707 0.204943
C60   C     C_R   0.368839 0.836467 0.116801 -0.065342
C61   C     C_R   0.358658 0.933589 0.158431 -0.148095
C62   C     C_R   0.446279 0.993299 0.174964 0.010288
C63   C     C_R   0.543870 0.956532 0.148925 -0.092053
C64   C     C_R   0.554223 0.859725 0.106778 -0.182608
H16   H     H_    0.300584 0.790661 0.104632 0.133431
H17   H     H_    0.282857 0.962681 0.177830 0.166265
H18   H     H_    0.438445 0.068172 0.207676 0.221962
H19   H     H_    0.611590 0.002934 0.161553 0.174583
H20   H     H_    0.630265 0.831922 0.086921 0.133604
C65   C     C_R   0.472175 0.698874 0.758912 0.036772
C66   C     C_R   0.558857 0.758776 0.762629 -0.039764
C67   C     C_R   0.542430 0.851371 0.712584 -0.042982
C68   C     C_R   0.439180 0.885202 0.659686 -0.157838
C69   C     C_R   0.352328 0.826202 0.656335 -0.128735
C70   C     C_R   0.368768 0.732989 0.705378 -0.083419
H21   H     H_    0.638803 0.733665 0.804220 0.181711
H22   H     H_    0.609624 0.897050 0.715013 0.163797
H23   H     H_    0.426530 0.956932 0.621092 0.148090
H24   H     H_    0.272419 0.852404 0.615319 0.181214
H25   H     H_    0.301051 0.687698 0.702147 0.227580
F12   F     F_    0.517482 0.321124 0.765436 -0.636677
F13   F     F_    0.519896 0.223268 0.908026 -0.567108
F14   F     F_    0.515140 0.222077 0.086307 -0.590271
C71   C     C_R   0.793057 0.207411 0.580886 0.170051
C72   C     C_R   0.893296 0.218074 0.557006 -0.066492
C73   C     C_R   0.973627 0.266953 0.616367 -0.158206
C74   C     C_R   0.954598 0.306416 0.699999 -0.101036
C75   C     C_R   0.855942 0.295353 0.725171 -0.111330
C76   C     C_R   0.776110 0.245112 0.666596 -0.108843
H26   H     H_    0.908950 0.190204 0.492024 0.159339
H27   H     H_    0.050247 0.275240 0.596987 0.152785
H28   H     H_    0.016389 0.345328 0.745348 0.176214
H29   H     H_    0.841408 0.325350 0.790266 0.163692
H30   H     H_    0.700665 0.236159 0.687835 0.175004

loop_
_geom_bond_atom_site_label_1
_geom_bond_atom_site_label_2
_ccdc_geom_bond_type
C16   C28   A    
C23   O5    A    
C21   C26   A    
O5    Zn1   S    
C63   C64   A    
C35   N2    A    
N2    Zn2   S    
C10   C65   S    
C19   C20   A    
C40   F8    S    
C43   C44   A    
C59   C60   A    
C72   C73   A    
C45   C46   A    
C2    C46   A    
C23   O6    A    
C62   H18   S    
C37   C38   A    
C57   C58   A    
C36   C37   A    
C19   C21   A    
C18   C19   A    
C30   C31   A    
C20   C25   A    
C56   H13   S    
C60   C61   A    
C17   C53   S    
C33   C36   A    
C65   C66   A    
O7    Zn1   S    
C49   H7    S    
C71   C76   A    
O8    Zn2   S    
C76   H30   S    
C67   C68   A    
C74   H28   S    
C31   C32   A    
C8    C9    A    
O2    Zn2   S    
C1    C28   S    
C9    F14   S    
O4    Zn2   S    
C68   H23   S    
C14   C27   A    
C41   N1    A    
C55   H12   S    
C44   F7    S    
C15   C23   S    
C57   H14   S    
C21   C22   A    
C34   O7    A    
C53   C58   A    
C41   H3    S    
C69   C70   A    
C13   F12   S    
C27   C71   S    
C55   C56   A    
C64   H20   S    
C38   C39   A    
C30   N2    A    
C73   C74   A    
C4    H5    S    
C49   C50   A    
C36   C40   A    
C48   C49   A    
C24   C25   A    
C16   C17   A    
C15   C26   A    
O1    Zn1   S    
C50   H8    S    
C40   N1    A    
C3    C45   A    
C34   O8    A    
C70   H25   S    
C14   F2    S    
C65   C70   A    
C47   C52   A    
C35   C39   A    
C1    O1    A    
C54   H11   S    
C3    C59   S    
C15   C27   A    
C48   H6    S    
C7    C13   A    
C18   F4    S    
C39   H4    S    
C17   C18   A    
C51   H9    S    
C25   H2    S    
C12   O3    A    
C24   C47   S    
C12   O4    A    
C26   H1    S    
C47   C48   A    
C74   C75   A    
C22   C24   A    
C42   C43   A    
C3    C4    A    
C42   F1    S    
C29   F6    S    
C44   C45   A    
C8    F13   S    
C63   H19   S    
C6    C46   A    
C68   C69   A    
C29   C41   A    
C50   C51   A    
C34   C43   S    
C59   C64   A    
C54   C55   A    
C11   C12   S    
C6    C7    A    
C20   C28   A    
C38   F5    S    
O6    Zn2   S    
C61   C62   A    
C69   H24   S    
C32   C33   A    
C14   C22   A    
C1    O2    A    
C5    C10   A    
C30   F9    S    
N1    Zn1   S    
C66   C67   A    
C11   C13   A    
C72   H26   S    
C5    C6    A    
C75   H29   S    
C2    C42   A    
C75   C76   A    
C66   H21   S    
C62   C63   A    
C33   C35   A    
C73   H27   S    
C61   H17   S    
O3    Zn1   S    
C51   C52   A    
C7    C8    A    
C10   C11   A    
C53   C54   A    
C4    C5    A    
C32   F10   S    
C56   C57   A    
C58   H15   S    
C29   C37   A    
C52   H10   S    
C16   F3    S    
C71   C72   A    
C2    C9    A    
C67   H22   S    
C60   H16   S    
C31   F11   S    
