data_mof_unit_1625.cif
_audit_creation_date              2012-12-11T17:06:25-0500
_audit_creation_method            fapswitch 2.2
_symmetry_space_group_name_H-M    P1
_symmetry_Int_Tables_number       1
_space_group_crystal_system       triclinic
_cell_length_a                    6.947438
_cell_length_b                    14.493615
_cell_length_c                    16.013115
_cell_angle_alpha                 90.442406
_cell_angle_beta                  89.733173
_cell_angle_gamma                 90.061892
_cell_volume                      1612.35003098

loop_
_atom_site_label
_atom_site_type_symbol
_atom_type_description
_atom_site_fract_x
_atom_site_fract_y
_atom_site_fract_z
_atom_type_partial_charge
O1    O     O_R   0.494400 0.415450 0.412630 -0.548373
O2    O     O_R   0.823940 0.405730 0.586760 -0.541646
O3    O     O_R   0.994240 0.584550 0.587370 -0.555370
C1    C     C_R   0.654596 0.385326 0.616749 0.706820
O4    O     O_R   0.824110 0.404430 0.413240 -0.537579
O5    O     O_R   0.994420 0.583240 0.412620 -0.542835
C2    C     C_R   0.655945 0.384331 0.382639 0.731567
O6    O     O_R   0.494230 0.416760 0.587380 -0.537813
O7    O     O_3   0.660800 0.558670 0.500000 -0.361377
V1    V     V_3+5 0.935650 0.489120 0.500000 1.466584
O8    O     O_R   0.324140 0.594270 0.413240 -0.520281
C3    C     C_R   0.155415 0.615954 0.384213 0.738603
O9    O     O_R   0.323960 0.595570 0.586760 -0.525668
C4    C     C_R   0.154664 0.617483 0.615468 0.772259
V2    V     V_3+5 0.435660 0.510880 0.500000 1.504701
O10   O     O_3   0.160640 0.441330 0.500000 -0.391377
C5    C     C_3   0.952210 0.721024 0.727134 -0.267406
C6    C     C_3   0.048425 0.710189 0.813250 0.346260
C7    C     C_3   0.123583 0.809708 0.810435 -0.120040
C8    C     C_3   0.028891 0.822316 0.723642 -0.227492
C9    C     C_3   0.216744 0.786206 0.683068 0.362641
C10   C     C_3   0.314259 0.775643 0.769007 -0.294097
C11   C     C_3   0.234243 0.676150 0.771838 0.295067
C12   C     C_3   0.142115 0.686605 0.685456 -0.092895
H1    H     H_    0.462936 0.797471 0.784996 0.148136
C13   C     C_R   0.249386 0.822521 0.244305 -0.060739
C14   C     C_R   0.118615 0.809801 0.178717 -0.206367
C15   C     C_R   0.987293 0.734284 0.185363 0.362628
C16   C     C_R   0.998511 0.673979 0.254075 -0.092786
C17   C     C_R   0.141702 0.683572 0.315531 -0.155104
C18   C     C_R   0.261485 0.760906 0.310489 -0.038170
C19   C     C_3   0.475880 0.770015 0.315615 0.168933
C20   C     C_3   0.463161 0.837537 0.242683 0.161317
C21   C     C_R   0.515863 0.243283 0.681552 -0.036167
C22   C     C_R   0.644080 0.318234 0.686206 -0.175577
C23   C     C_R   0.771420 0.322056 0.755900 0.421824
C24   C     C_R   0.766448 0.251614 0.816367 -0.155252
H2    H     H_    0.863236 0.256056 0.869134 0.146228
C25   C     C_R   0.626240 0.181448 0.813860 -0.133851
C26   C     C_R   0.505817 0.177527 0.744566 -0.044419
C27   C     C_3   0.292528 0.168259 0.741339 -0.366672
C28   C     C_3   0.299940 0.241086 0.673522 0.659692
H3    H     H_    0.220678 0.191905 0.799923 0.186961
H4    H     H_    0.247506 0.098731 0.718978 0.123917
C29   C     C_R   0.519425 0.244556 0.312856 -0.015316
C30   C     C_R   0.648957 0.318434 0.311217 -0.292057
C31   C     C_R   0.775848 0.324449 0.240967 0.358704
C32   C     C_R   0.760384 0.260656 0.173646 0.405612
C33   C     C_R   0.623253 0.187416 0.176482 -0.274709
C34   C     C_R   0.508866 0.180173 0.248146 -0.039937
C35   C     C_3   0.294477 0.172372 0.256742 0.239800
C36   C     C_3   0.306240 0.244234 0.326555 0.126007
O11   O     O_R   0.771650 0.079500 0.908680 -0.553819
O12   O     O_R   0.441690 0.091800 0.082800 -0.515038
O13   O     O_R   0.271460 0.912980 0.083410 -0.531177
C37   C     C_R   0.610670 0.115778 0.110178 0.775748
O14   O     O_R   0.441930 0.090510 0.909280 -0.544561
O15   O     O_R   0.271690 0.911670 0.908660 -0.551133
C38   C     C_R   0.611598 0.113047 0.881305 0.688655
O16   O     O_R   0.771410 0.080810 0.083440 -0.527575
O17   O     O_3   0.605100 0.937580 0.996050 -0.372746
V3    V     V_3+5 0.330220 0.007110 0.996030 1.499108
O18   O     O_R   0.941980 0.900620 0.909250 -0.538249
C39   C     C_R   0.111285 0.878604 0.880622 0.725602
O19   O     O_R   0.941740 0.901920 0.082770 -0.533342
C40   C     C_R   0.110496 0.878221 0.110202 0.728061
V4    V     V_3+5 0.830220 0.985300 0.996000 1.496579
O20   O     O_3   0.105210 0.054870 0.996020 -0.362820
O21   O     O_3   0.962092 0.670236 0.883232 -0.640108
H5    H     H_    0.925279 0.607053 0.865297 0.318107
H6    H     H_    0.524975 0.800899 0.375605 0.142407
H7    H     H_    0.532829 0.813708 0.183715 0.165807
O22   O     O_3   0.515981 0.928416 0.264353 -0.637762
H8    H     H_    0.441158 0.947768 0.314524 0.293206
O23   O     O_3   0.891576 0.396117 0.771479 -0.612939
H9    H     H_    0.853017 0.448977 0.736644 0.283888
O24   O     O_3   0.212999 0.323871 0.699263 -0.604704
H10   H     H_    0.181885 0.359085 0.648336 0.337047
O25   O     O_3   0.232984 0.209085 0.595582 -0.650720
H11   H     H_    0.310635 0.154378 0.578949 0.286870
O26   O     O_3   0.907348 0.395317 0.231715 -0.622431
H12   H     H_    0.872052 0.447341 0.268899 0.274788
H13   H     H_    0.804092 0.698160 0.711329 0.161276
O27   O     O_3   0.872378 0.277344 0.103756 -0.593987
H14   H     H_    0.815369 0.246203 0.054552 0.275649
H15   H     H_    0.246953 0.102753 0.277054 0.151770
O28   O     O_3   0.194397 0.203245 0.186108 -0.610220
H16   H     H_    0.246310 0.264473 0.169817 0.319085
O29   O     O_3   0.257382 0.206953 0.404106 -0.627131
H17   H     H_    0.261504 0.259501 0.444033 0.333692
H18   H     H_    0.234436 0.311240 0.313112 0.129038
H19   H     H_    0.946881 0.883710 0.703067 0.137371
O30   O     O_3   0.304682 0.825404 0.613111 -0.642101
H20   H     H_    0.337671 0.889375 0.630128 0.285722
O31   O     O_3   0.337842 0.598551 0.796812 -0.628954
H21   H     H_    0.383587 0.613163 0.853944 0.312366
O32   O     O_3   0.854442 0.712782 0.124422 -0.638916
H22   H     H_    0.899309 0.737824 0.070440 0.307312
H23   H     H_    0.902141 0.615333 0.256152 0.161482
O33   O     O_3   0.573110 0.687656 0.295432 -0.633972
H24   H     H_    0.520767 0.662627 0.242227 0.300880

loop_
_geom_bond_atom_site_label_1
_geom_bond_atom_site_label_2
_ccdc_geom_bond_type
C15   O32   S    
O15   V3    S    
O28   H16   S    
C26   C27   S    
O30   H20   S    
O22   H8    S    
O31   H21   S    
C21   C28   S    
C1    O6    A    
O32   H22   S    
O11   C38   A    
O14   V3    S    
C29   C30   A    
C8    H19   S    
C13   C14   A    
C24   H2    S    
C21   C26   A    
C23   C24   A    
C6    C7    S    
O5    C3    A    
C17   C18   A    
O14   C38   A    
V2    O10   S    
O13   V3    S    
C5    C8    S    
C21   C22   A    
C27   C28   S    
C4    C12   S    
C20   H7    S    
O8    V2    S    
C7    C8    S    
O16   V4    S    
O19   V4    S    
C10   H1    S    
C11   C12   S    
O1    V2    S    
O7    V1    S    
C6    O21   S    
C1    C22   S    
C13   C18   A    
O9    C4    A    
C27   H3    S    
C36   O29   S    
O17   V3    S    
C35   H15   S    
C5    C6    S    
C19   H6    S    
O18   V4    S    
O15   C39   A    
O12   C37   A    
C5    C12   S    
C16   H23   S    
C28   O25   S    
V4    O20   S    
C2    C30   S    
C7    C10   S    
O27   H14   S    
C35   O28   S    
C25   C26   A    
O4    C2    A    
O12   V3    S    
C29   C36   S    
O24   H10   S    
O26   H12   S    
C32   O27   S    
C5    H13   S    
C22   C23   A    
O2    C1    A    
O23   H9    S    
C16   C17   A    
C23   O23   S    
O17   V4    S    
C13   C20   S    
C31   C32   A    
C7    C39   S    
C25   C38   S    
C34   C35   S    
O3    C4    A    
C20   O22   S    
C32   C33   A    
O19   C40   A    
O6    V2    S    
O9    V2    S    
C27   H4    S    
O25   H11   S    
O2    V1    S    
O13   C40   A    
C30   C31   A    
C15   C16   A    
C3    C17   S    
O1    C2    A    
C18   C19   S    
O5    V1    S    
O8    C3    A    
C33   C37   S    
V3    O20   S    
C19   C20   S    
O7    V2    S    
C35   C36   S    
C24   C25   A    
O3    V1    S    
V1    O10   S    
C9    O30   S    
C29   C34   A    
C6    C11   S    
O33   H24   S    
C11   O31   S    
C31   O26   S    
O21   H5    S    
O11   V4    S    
O18   C39   A    
C19   O33   S    
O4    V1    S    
C37   O16   A    
C8    C9    S    
C28   O24   S    
C33   C34   A    
C9    C12   S    
C14   C15   A    
C14   C40   S    
C10   C11   S    
C36   H18   S    
O29   H17   S    
C9    C10   S    
