data_mof_unit_1771.cif
_audit_creation_date              2012-12-10T18:22:32-0500
_audit_creation_method            fapswitch 2.2
_symmetry_space_group_name_H-M    P1
_symmetry_Int_Tables_number       1
_space_group_crystal_system       triclinic
_cell_length_a                    23.513513
_cell_length_b                    10.600991
_cell_length_c                    9.679492
_cell_angle_alpha                 88.828545
_cell_angle_beta                  91.074989
_cell_angle_gamma                 90.307326
_cell_volume                      2411.81468986

loop_
_atom_site_label
_atom_site_type_symbol
_atom_type_description
_atom_site_fract_x
_atom_site_fract_y
_atom_site_fract_z
_atom_type_partial_charge
C1    C     C_R   0.500304 0.260288 0.500714 0.805802
C2    C     C_R   0.701827 0.589448 0.570291 -0.127296
C3    C     C_R   0.240658 0.439396 0.603836 -0.073040
C4    C     C_R   0.761035 0.586046 0.572333 -0.077087
C5    C     C_R   0.209797 0.507256 0.501376 0.285941
C6    C     C_R   0.789790 0.491513 0.502183 0.294323
C7    C     C_3   0.545353 0.040307 0.574496 -0.145283
C8    C     C_3   0.455219 0.959850 0.425318 -0.136868
C9    C     C_3   0.548531 0.959530 0.444034 -0.162278
C10   C     C_3   0.452036 0.040538 0.555815 -0.152060
C11   C     C_3   0.499975 0.877210 0.499125 -0.026302
C12   C     C_R   0.499917 0.739744 0.499275 0.804982
C13   C     C_3   0.500566 0.122883 0.500764 -0.027581
C14   C     C_3   0.496771 0.955914 0.629971 -0.014642
C15   C     C_3   0.503823 0.044251 0.369877 -0.016565
C16   C     C_R   0.391634 0.501197 0.499278 0.779677
C17   C     C_R   0.608292 0.498914 0.501114 0.772635
C18   C     C_3   0.506206 0.612402 0.046616 0.287541
C19   C     C_3   0.493817 0.387483 0.953240 0.287459
C20   C     C_3   0.459265 0.567888 0.946969 0.268805
C21   C     C_3   0.540661 0.432007 0.052915 0.278105
C22   C     C_3   0.546832 0.544325 0.951861 0.288728
C23   C     C_R   0.239657 0.575638 0.399733 -0.071712
C24   C     C_3   0.453106 0.455394 0.048070 0.276912
C25   C     C_R   0.878420 0.601182 0.454167 0.590337
C26   C     C_R   0.120424 0.391160 0.511907 0.590881
C27   C     C_R   0.880902 0.387435 0.535974 0.584407
C28   C     C_R   0.118589 0.615062 0.485262 0.582025
C29   C     C_R   0.940334 0.386811 0.530665 -0.070769
C30   C     C_R   0.059090 0.613149 0.475152 -0.072895
C31   C     C_R   0.969534 0.498905 0.496099 -0.052208
C32   C     C_R   0.029720 0.499148 0.498361 -0.051456
C33   C     C_R   0.938671 0.610178 0.459535 -0.134740
C34   C     C_R   0.758106 0.397383 0.435028 -0.065735
C35   C     C_R   0.060543 0.386018 0.524766 -0.133093
C36   C     C_R   0.970717 0.276538 0.563110 -0.204691
C37   C     C_R   0.028925 0.723606 0.442955 -0.201010
C38   C     C_R   0.030091 0.273730 0.561142 0.412718
C39   C     C_R   0.969590 0.724087 0.430759 0.412965
C40   C     C_R   0.298959 0.577302 0.401937 -0.130965
C41   C     C_R   0.698860 0.397670 0.438830 -0.135819
C42   C     C_R   0.329325 0.503501 0.499262 -0.020682
C43   C     C_R   0.670450 0.495224 0.503761 -0.000715
C44   C     C_R   0.299793 0.434893 0.600574 -0.121978
Cu1   Cu    Cu3+1 0.500010 0.499990 0.643150 1.140307
Cu2   Cu    Cu3+1 0.499990 0.500010 0.356850 1.140645
H1    H     H_    0.947796 0.191193 0.590699 0.254276
H2    H     H_    0.450112 0.059278 0.007210 0.395140
H3    H     H_    0.683298 0.712068 0.988016 0.374865
H4    H     H_    0.317419 0.284797 0.007644 0.375630
H5    H     H_    0.033693 0.947340 0.692029 0.386894
H6    H     H_    0.966110 0.062782 0.341690 0.379989
H7    H     H_    0.217081 0.628234 0.319108 0.180405
H8    H     H_    0.779295 0.324020 0.379611 0.177518
H9    H     H_    0.321078 0.637072 0.328383 0.199805
H10   H     H_    0.675214 0.321966 0.390782 0.193911
H11   H     H_    0.218787 0.388160 0.685070 0.182428
H12   H     H_    0.052155 0.810408 0.424143 0.257322
H13   H     H_    0.784617 0.658670 0.626154 0.176010
H14   H     H_    0.582936 0.074816 0.633889 0.201401
H15   H     H_    0.417619 0.925397 0.365943 0.198668
H16   H     H_    0.492988 0.919650 0.736875 0.249225
H17   H     H_    0.507973 0.081121 0.263257 0.248407
H18   H     H_    0.322517 0.378038 0.677523 0.210481
H19   H     H_    0.680693 0.666575 0.618937 0.192549
H20   H     H_    0.588608 0.925195 0.399683 0.200674
H21   H     H_    0.411908 0.074728 0.600029 0.200929
H22   H     H_    0.340164 0.785406 0.984961 0.377626
H23   H     H_    0.661274 0.218390 0.016741 0.376567
H24   H     H_    0.550710 0.940385 0.993349 0.394226
N1    N     N_R   0.851110 0.493081 0.497120 -0.471557
N2    N     N_R   0.148297 0.504778 0.499844 -0.469361
N3    N     N_3   0.500040 0.499970 0.858290 -0.345998
N4    N     N_3   0.499960 0.500030 0.141710 -0.345836
O1    O     O_R   0.500030 0.316850 0.620870 -0.516526
O2    O     O_2   0.150737 0.284184 0.505838 -0.437550
O3    O     O_2   0.853064 0.283382 0.581539 -0.502112
O4    O     O_2   0.146473 0.726685 0.481200 -0.499217
O5    O     O_2   0.415678 0.754505 0.779166 -0.298436
O6    O     O_2   0.353319 0.575318 0.833942 -0.252970
O7    O     O_3   0.373171 0.737847 0.023449 -0.469047
O8    O     O_2   0.646767 0.432011 0.161048 -0.245861
O9    O     O_2   0.586380 0.250983 0.224259 -0.326597
O10   O     O_3   0.627428 0.262863 0.978120 -0.451247
O11   O     O_2   0.467378 0.825786 0.158903 -0.282958
O12   O     O_R   0.499970 0.683150 0.379130 -0.518147
O13   O     O_2   0.568757 0.776105 0.196348 -0.263428
O14   O     O_3   0.535923 0.859980 0.956251 -0.497740
O15   O     O_2   0.432271 0.222053 0.803021 -0.278375
O16   O     O_2   0.533707 0.174428 0.842111 -0.275922
O17   O     O_3   0.464728 0.139923 0.044068 -0.498785
O18   O     O_2   0.649908 0.506067 0.842039 -0.247161
O19   O     O_2   0.602459 0.707693 0.784389 -0.296070
O20   O     O_3   0.648115 0.676510 0.028266 -0.431365
O21   O     O_2   0.396056 0.294357 0.218341 -0.257359
O22   O     O_2   0.348560 0.492077 0.148433 -0.268618
O23   O     O_R   0.500000 0.316860 0.379090 -0.530073
O24   O     O_3   0.353700 0.316919 0.969866 -0.461761
O25   O     O_2   0.090915 0.069072 0.499704 -0.193115
O26   O     O_2   0.106629 0.157969 0.729555 -0.230848
O27   O     O_3   0.014196 0.029886 0.684769 -0.497269
O28   O     O_2   0.905291 0.858431 0.248873 -0.208537
O29   O     O_2   0.898514 0.911205 0.494148 -0.223142
O30   O     O_3   0.987733 0.984216 0.360842 -0.497852
O31   O     O_R   0.500000 0.683140 0.620910 -0.528443
O32   O     O_R   0.417890 0.499960 0.620920 -0.526221
O33   O     O_R   0.582110 0.500040 0.379080 -0.514252
O34   O     O_R   0.417870 0.499970 0.379140 -0.525946
O35   O     O_R   0.582130 0.500030 0.620860 -0.519986
O36   O     O_2   0.846789 0.697907 0.404765 -0.434927
S1    S     S_3+6 0.399224 0.660319 0.889006 0.111574
S2    S     S_3+6 0.601485 0.342862 0.110885 0.096572
S3    S     S_3+6 0.519421 0.772002 0.095760 0.097087
S4    S     S_3+6 0.481315 0.227525 0.904317 0.095884
S5    S     S_3+6 0.613308 0.609295 0.895443 0.113533
S6    S     S_3+6 0.386544 0.388790 0.102477 0.123829
S7    S     S_3+6 0.062774 0.130502 0.619062 0.084029
S8    S     S_3+6 0.937998 0.871409 0.382838 0.075444

loop_
_geom_bond_atom_site_label_1
_geom_bond_atom_site_label_2
_ccdc_geom_bond_type
C27   C29   A    
C26   N2    A    
C2    H19   S    
H24   O14   S    
C10   H21   S    
C44   H18   S    
C29   C36   A    
O10   S2    S    
H22   O7    S    
C19   C21   S    
C5    N2    S    
C17   O33   A    
C12   O31   A    
C11   C14   S    
Cu1   O35   S    
C23   C40   A    
C14   H16   S    
O6    S1    D    
C36   H1    S    
Cu1   N3    S    
O19   S5    D    
O14   S3    S    
C9    H20   S    
C38   S7    S    
C7    C14   S    
C20   C24   S    
H2    O17   S    
Cu2   O34   S    
C26   O2    S    
C31   C33   A    
C25   N1    A    
H3    O20   S    
C28   O4    S    
O21   S6    D    
C37   H12   S    
O28   S8    D    
C16   O32   A    
C8    H15   S    
C40   C42   A    
C18   N4    S    
C21   C22   S    
C41   C43   A    
C28   N2    A    
C34   C41   A    
C42   C44   A    
C18   S3    S    
Cu1   O31   S    
C23   H7    S    
O30   S8    S    
C6    N1    S    
C3    C44   A    
H4    O24   S    
C1    O1    A    
C32   C35   A    
O7    S1    S    
C19   N3    S    
C35   C38   A    
C4    C6    A    
C10   C14   S    
C1    O23   A    
C19   S4    S    
C3    C5    A    
Cu1   Cu2   S    
C21   N4    S    
C6    C34   A    
C30   C37   A    
O8    S2    D    
C2    C4    A    
C17   C43   S    
C41   H10   S    
O25   S7    D    
C20   S1    S    
O24   S6    S    
C31   C32   A    
C5    C23   A    
C2    C43   A    
C11   C12   S    
C40   H9    S    
Cu2   O33   S    
C33   C39   A    
C9    C11   S    
C25   O36   S    
C3    H11   S    
C8    C10   S    
C22   S5    S    
Cu2   O23   S    
C24   S6    S    
C8    C15   S    
O11   S3    D    
C13   C15   S    
O29   S8    D    
C1    C13   S    
C16   C42   S    
C7    H14   S    
Cu2   N4    S    
C21   S2    S    
C27   N1    A    
Cu1   O32   S    
C7    C9    S    
O15   S4    D    
H6    O30   S    
C18   C22   S    
C27   O3    S    
C10   C13   S    
C17   O35   A    
O20   S5    S    
C34   H8    S    
C12   O12   A    
H5    O27   S    
C39   S8    S    
O17   S4    S    
O5    S1    D    
Cu1   O1    S    
O27   S7    S    
C36   C38   A    
C19   C24   S    
C9    C15   S    
C29   C31   A    
H23   O10   S    
C30   C32   A    
C24   N4    S    
C8    C11   S    
C4    H13   S    
C28   C30   A    
C20   N3    S    
C18   C20   S    
O16   S4    D    
O18   S5    D    
O13   S3    D    
C16   O34   A    
C26   C35   A    
C7    C13   S    
C37   C39   A    
C15   H17   S    
O9    S2    D    
O22   S6    D    
O26   S7    D    
C22   N3    S    
C25   C33   A    
Cu2   O12   S    
