data_mof_unit_4135.cif
_audit_creation_date              2012-12-10T19:47:48-0500
_audit_creation_method            fapswitch 2.2
_symmetry_space_group_name_H-M    P1
_symmetry_Int_Tables_number       1
_space_group_crystal_system       triclinic
_cell_length_a                    18.231804
_cell_length_b                    18.228688
_cell_length_c                    21.863763
_cell_angle_alpha                 89.609201
_cell_angle_beta                  88.590981
_cell_angle_gamma                 89.70857
_cell_volume                      7263.78983112

loop_
_atom_site_label
_atom_site_type_symbol
_atom_type_description
_atom_site_fract_x
_atom_site_fract_y
_atom_site_fract_z
_atom_type_partial_charge
C1    C     C_R   0.000092 0.358723 0.999127 1.025967
C2    C     C_1   0.282250 0.001239 0.996876 0.065069
C3    C     C_2   0.717214 0.825201 0.774678 1.097768
C4    C     C_2   0.774240 0.662193 0.211564 1.090838
C5    C     C_2   0.281084 0.825898 0.225848 1.101826
C6    C     C_2   0.224608 0.342681 0.202396 1.083746
C7    C     C_2   0.752833 0.086158 0.179209 1.083640
C8    C     C_2   0.364941 0.770539 0.328112 1.092123
C9    C     C_2   0.737762 0.569775 0.316892 1.073353
C10   C     C_2   0.710691 0.180382 0.280757 1.095230
C11   C     C_2   0.263189 0.440308 0.301626 1.074740
C12   C     C_2   0.315909 0.212676 0.725046 1.121543
C13   C     C_1   0.999094 0.717919 0.001806 0.069617
C14   C     C_2   0.791857 0.316153 0.725458 1.092395
C15   C     C_2   0.633469 0.771361 0.672467 1.064563
C16   C     C_2   0.234057 0.625687 0.668734 1.083283
C17   C     C_1   0.717797 0.000605 0.002086 0.058532
C18   C     C_1   0.500414 0.782189 0.499815 0.023797
C19   C     C_1   0.782130 0.501763 0.498775 0.062515
C20   C     C_1   0.499996 0.217972 0.499005 0.079088
C21   C     C_1   0.217782 0.499050 0.502341 0.029219
C22   C     C_R   0.001508 0.503927 0.879529 0.975446
C23   C     C_R   0.503787 0.999440 0.879549 0.978282
C24   C     C_R   0.999218 0.500233 0.120508 1.027617
C25   C     C_R   0.358889 0.000367 0.997035 1.041485
C26   C     C_R   0.496020 0.998985 0.120549 0.969490
C27   C     C_R   0.501418 0.002858 0.379577 0.979530
C28   C     C_R   0.999546 0.500294 0.379713 0.918119
C29   C     C_R   0.498420 0.004270 0.620406 0.982330
C30   C     C_R   0.996606 0.499074 0.620463 0.987543
C31   C     C_R   0.083847 0.616524 0.793995 0.337784
C32   C     C_R   0.618460 0.921064 0.794113 0.341260
C33   C     C_R   0.960547 0.373187 0.810845 0.330283
C34   C     C_R   0.372722 0.042798 0.813250 0.307372
C35   C     C_R   0.103090 0.408909 0.196388 0.362053
C36   C     C_R   0.999720 0.641251 0.001428 1.092566
C37   C     C_R   0.630928 0.024710 0.189697 0.312132
C38   C     C_R   0.894015 0.592710 0.199796 0.362245
C39   C     C_R   0.379643 0.921836 0.206195 0.335480
C40   C     C_R   0.595400 0.104191 0.296116 0.342250
C41   C     C_R   0.135242 0.490548 0.301041 0.294800
C42   C     C_R   0.451961 0.874619 0.311540 0.345998
C43   C     C_R   0.862943 0.513851 0.308265 0.277603
C44   C     C_R   0.545269 0.875121 0.689423 0.311484
C45   C     C_R   0.127316 0.542086 0.686920 0.340576
C46   C     C_R   0.414726 0.116850 0.705074 0.348263
C47   C     C_R   0.641166 0.000057 0.002305 1.019101
C48   C     C_R   0.885263 0.416879 0.705921 0.332271
C49   C     C_R   0.144104 0.643064 0.757443 -0.219252
C50   C     C_R   0.647096 0.861587 0.758704 -0.207742
C51   C     C_R   0.900231 0.331633 0.792256 -0.219908
C52   C     C_R   0.331706 0.104280 0.794655 -0.209405
C53   C     C_R   0.171656 0.399108 0.224803 -0.212232
C54   C     C_R   0.680443 0.077533 0.210560 -0.205488
C55   C     C_R   0.826772 0.605166 0.232338 -0.219188
C56   C     C_R   0.350845 0.862158 0.241782 -0.208894
C57   C     C_R   0.661048 0.120492 0.262247 -0.220690
C58   C     C_R   0.500155 0.858708 0.499981 0.999446
C59   C     C_R   0.189330 0.443766 0.275101 -0.203970
C60   C     C_R   0.389418 0.836530 0.293175 -0.236595
C61   C     C_R   0.809925 0.562576 0.285162 -0.189006
C62   C     C_R   0.608196 0.836554 0.707678 -0.211562
C63   C     C_R   0.167893 0.603336 0.705115 -0.227669
C64   C     C_R   0.354727 0.143760 0.741674 -0.221740
C65   C     C_R   0.859896 0.355580 0.741235 -0.204037
C66   C     C_R   0.140785 0.000424 0.999342 0.880621
C67   C     C_R   0.999697 0.859252 0.000266 0.896300
C68   C     C_R   0.859228 0.000193 0.000567 0.859862
C69   C     C_R   0.858775 0.500461 0.498468 1.013012
C70   C     C_R   0.999947 0.140767 0.999905 0.854499
C71   C     C_R   0.640755 0.500462 0.499483 0.869874
C72   C     C_R   0.500063 0.359262 0.500082 0.890314
C73   C     C_R   0.359218 0.499789 0.500653 0.862525
C74   C     C_R   0.500088 0.640770 0.499852 0.856263
C75   C     C_R   0.057664 0.531667 0.714814 -0.053763
C76   C     C_R   0.531260 0.944063 0.716175 -0.072191
C77   C     C_R   0.949955 0.453250 0.723888 -0.079293
C78   C     C_R   0.451031 0.051409 0.723527 -0.072677
C79   C     C_R   0.063542 0.485561 0.279400 -0.098666
C80   C     C_R   0.499945 0.141280 0.498867 1.093871
C81   C     C_R   0.551473 0.045343 0.276440 -0.076594
C82   C     C_R   0.934082 0.516942 0.282419 -0.088886
C83   C     C_R   0.465517 0.943892 0.284826 -0.053625
C84   C     C_R   0.559292 0.025432 0.215311 -0.058835
C85   C     C_R   0.054862 0.464050 0.219207 -0.094756
C86   C     C_R   0.446035 0.955159 0.224186 -0.069828
C87   C     C_R   0.941594 0.536772 0.221050 -0.086075
C88   C     C_R   0.551742 0.954944 0.776404 -0.078781
C89   C     C_R   0.048108 0.551299 0.775962 -0.071327
C90   C     C_R   0.442138 0.031921 0.784942 -0.070154
C91   C     C_R   0.141224 0.499723 0.501533 0.980661
C92   C     C_R   0.970087 0.443232 0.784396 -0.054295
C93   C     C_R   0.999099 0.496059 0.686694 -0.087106
C94   C     C_R   0.494242 0.001963 0.686872 -0.120816
C95   C     C_R   0.999044 0.501108 0.313677 -0.067617
C96   C     C_R   0.505164 0.999612 0.313333 -0.078255
C97   C     C_R   0.497672 0.995475 0.187004 -0.072460
C98   C     C_R   0.998004 0.499966 0.186933 -0.119741
C99   C     C_R   0.501654 0.997144 0.813298 -0.123625
C100  C     C_R   0.005596 0.501704 0.813084 -0.073691
C101  C     C_1   0.999997 0.217290 0.999933 -0.060206
C102  C     C_1   0.000078 0.282163 0.999770 0.034256
C103  C     C_1   0.217341 0.001125 0.997878 -0.035532
C104  C     C_1   0.999170 0.782764 0.001129 -0.054174
C105  C     C_1   0.782695 0.000564 0.001548 -0.037847
C106  C     C_1   0.500330 0.717300 0.499683 -0.045143
C107  C     C_1   0.717255 0.501516 0.498825 -0.037986
C108  C     C_1   0.500070 0.282797 0.499827 -0.050676
C109  C     C_1   0.282670 0.499206 0.501981 -0.046047
C110  C     C_2   0.879989 0.263695 0.826372 1.077763
C111  C     C_2   0.265671 0.126951 0.831094 1.059096
C112  C     C_2   0.182098 0.712160 0.772900 1.113910
H1    H     H_    0.863395 0.214776 0.908548 0.346874
H2    H     H_    0.682816 0.601150 0.393266 0.352438
H3    H     H_    0.776482 0.263427 0.253603 0.392062
H4    H     H_    0.322451 0.421307 0.376355 0.358893
H5    H     H_    0.258644 0.268773 0.662263 0.364980
H6    H     H_    0.693242 0.277713 0.754140 0.361797
H7    H     H_    0.652284 0.726326 0.589464 0.348158
H8    H     H_    0.280424 0.641338 0.584983 0.352425
H9    H     H_    0.926329 0.651759 0.831546 0.365866
H10   H     H_    0.648302 0.079178 0.828767 0.367833
H11   H     H_    0.150753 0.344943 0.860525 0.409114
H12   H     H_    0.219983 0.143423 0.914842 0.347929
H13   H     H_    0.396379 0.869420 0.840112 0.399020
H14   H     H_    0.951195 0.340887 0.179578 0.365477
H15   H     H_    0.633100 0.829291 0.145795 0.397207
H16   H     H_    0.045976 0.659527 0.176371 0.364672
H17   H     H_    0.350903 0.080075 0.169614 0.368613
H18   H     H_    0.441306 0.158518 0.324704 0.372446
H19   H     H_    0.080233 0.648254 0.289146 0.352108
H20   H     H_    0.637342 0.834933 0.368060 0.405396
H21   H     H_    0.918894 0.354662 0.296160 0.355499
H22   H     H_    0.372327 0.893458 0.665285 0.396597
H23   H     H_    0.216357 0.811976 0.744519 0.398876
H24   H     H_    0.164200 0.359230 0.620911 0.386341
H25   H     H_    0.571660 0.151938 0.667318 0.368659
H26   H     H_    0.848829 0.574530 0.672246 0.370735
H27   H     H_    0.774713 0.769156 0.837414 0.361334
H28   H     H_    0.714885 0.703575 0.142686 0.359735
H29   H     H_    0.180421 0.792646 0.254170 0.371987
H30   H     H_    0.283972 0.301809 0.131349 0.360740
H31   H     H_    0.808177 0.109033 0.100655 0.345786
H32   H     H_    0.345950 0.723855 0.410892 0.359411
O1    O     O_R   0.939380 0.392670 0.000020 -0.617632
O2    O     O_R   0.892670 0.560620 0.500020 -0.623064
O3    O     O_2   0.923255 0.735885 0.192478 -0.255397
O4    O     O_3   0.020015 0.654461 0.137375 -0.607151
O5    O     O_2   0.307782 0.917833 0.103046 -0.273958
O6    O     O_2   0.246595 0.978939 0.188701 -0.260642
O7    O     O_3   0.350209 0.049621 0.132282 -0.581902
O8    O     O_2   0.601816 0.181804 0.398465 -0.258379
O9    O     O_2   0.558098 0.245178 0.308127 -0.246898
O10   O     O_3   0.468598 0.155830 0.363283 -0.607109
O11   O     O_2   0.199088 0.571366 0.387706 -0.276457
O12   O     O_2   0.219902 0.607864 0.281759 -0.231241
O13   O     O_R   0.560620 0.107330 0.500020 -0.580655
O14   O     O_3   0.093564 0.637740 0.331978 -0.497949
O15   O     O_2   0.511425 0.754178 0.366198 -0.319756
O16   O     O_2   0.563989 0.795347 0.268787 -0.199310
O17   O     O_3   0.594879 0.868741 0.364876 -0.543114
O18   O     O_2   0.786210 0.427822 0.387843 -0.274116
O19   O     O_2   0.783109 0.398307 0.280107 -0.269794
O20   O     O_3   0.900874 0.365357 0.338289 -0.494639
O21   O     O_2   0.487196 0.754999 0.635209 -0.265113
O22   O     O_2   0.432490 0.796103 0.731229 -0.244574
O23   O     O_3   0.403358 0.869381 0.633433 -0.525398
O24   O     O_R   0.107330 0.439380 0.500020 -0.617804
O25   O     O_2   0.249836 0.476590 0.637807 -0.313661
O26   O     O_2   0.193815 0.423388 0.729903 -0.199229
O27   O     O_3   0.130673 0.401473 0.627772 -0.545296
O28   O     O_2   0.408117 0.189534 0.600820 -0.286581
O29   O     O_2   0.465690 0.252196 0.684742 -0.265808
O30   O     O_3   0.541701 0.151589 0.630132 -0.591258
O31   O     O_2   0.811311 0.412328 0.603339 -0.262925
O32   O     O_2   0.749530 0.468687 0.690994 -0.256130
O33   O     O_3   0.849145 0.544808 0.634476 -0.585819
O34   O     O_R   0.439380 0.107330 0.499980 -0.597190
O35   O     O_R   0.892670 0.439380 0.499980 -0.558691
O36   O     O_R   0.560620 0.892670 0.499980 -0.605342
O37   O     O_R   0.107330 0.560620 0.499980 -0.576660
O38   O     O_R   0.939380 0.500000 0.908420 -0.625069
O39   O     O_R   0.500000 0.060620 0.908420 -0.611769
O40   O     O_R   0.060620 0.500000 0.908420 -0.570026
O41   O     O_R   0.392670 0.060620 0.000020 -0.608133
O42   O     O_R   0.500000 0.939380 0.908420 -0.594543
O43   O     O_R   0.939380 0.500000 0.091580 -0.603488
O44   O     O_R   0.500000 0.939380 0.091580 -0.569973
O45   O     O_R   0.060620 0.500000 0.091580 -0.605389
O46   O     O_R   0.500000 0.060620 0.091580 -0.620708
O47   O     O_R   0.439380 0.000000 0.408420 -0.628212
O48   O     O_R   1.000000 0.560620 0.408420 -0.579215
O49   O     O_R   0.560620 0.000000 0.408420 -0.570747
O50   O     O_R   0.000000 0.439380 0.408420 -0.586257
O51   O     O_R   0.439380 1.000000 0.591580 -0.590111
O52   O     O_R   0.060620 0.607330 0.000020 -0.597805
O53   O     O_R   1.000000 0.439380 0.591580 -0.564411
O54   O     O_R   0.560620 1.000000 0.591580 -0.611348
O55   O     O_R   1.000000 0.560620 0.591580 -0.620783
O56   O     O_R   0.107300 0.999970 0.948290 -0.581701
O57   O     O_R   0.999970 0.892700 0.948290 -0.577826
O58   O     O_R   0.892700 0.000030 0.948290 -0.584360
O59   O     O_R   0.000030 0.107300 0.948290 -0.587395
O60   O     O_R   0.107300 0.000030 0.051710 -0.580754
O61   O     O_R   0.999970 0.107300 0.051710 -0.596308
O62   O     O_R   0.892700 0.999970 0.051710 -0.599756
O63   O     O_R   0.607330 0.939380 0.000020 -0.580593
O64   O     O_R   0.000030 0.892700 0.051710 -0.587843
O65   O     O_R   0.607300 0.499970 0.448290 -0.600291
O66   O     O_R   0.499970 0.392700 0.448290 -0.590531
O67   O     O_R   0.392700 0.500030 0.448290 -0.616330
O68   O     O_R   0.500030 0.607300 0.448290 -0.586603
O69   O     O_R   0.607300 0.500030 0.551710 -0.582786
O70   O     O_R   0.499970 0.607300 0.551710 -0.584135
O71   O     O_R   0.392700 0.499970 0.551710 -0.577453
O72   O     O_R   0.500030 0.392700 0.551710 -0.577666
O73   O     O_2   0.865392 0.207666 0.798820 -0.565894
O74   O     O_R   0.939380 0.607330 0.999980 -0.579475
O75   O     O_R   0.877552 0.264157 0.890323 -0.782141
O76   O     O_2   0.209394 0.145175 0.805589 -0.545253
O77   O     O_R   0.268133 0.127185 0.894927 -0.795039
O78   O     O_2   0.208453 0.719676 0.823326 -0.500096
O79   O     O_R   0.189031 0.767886 0.728934 -0.749964
O80   O     O_2   0.767874 0.822830 0.737015 -0.578010
O81   O     O_R   0.724576 0.792337 0.832131 -0.713187
O82   O     O_2   0.750788 0.708306 0.247518 -0.548870
O83   O     O_R   0.750642 0.662202 0.151252 -0.718292
O84   O     O_2   0.273815 0.800050 0.174936 -0.521138
O85   O     O_R   0.392670 0.939380 0.999980 -0.562821
O86   O     O_R   0.224644 0.819432 0.269989 -0.748345
O87   O     O_2   0.249018 0.297167 0.237971 -0.584694
O88   O     O_R   0.247704 0.342713 0.140993 -0.722487
O89   O     O_2   0.809119 0.082604 0.208405 -0.567472
O90   O     O_R   0.756186 0.100268 0.116380 -0.794780
O91   O     O_2   0.347055 0.715046 0.301252 -0.527259
O92   O     O_R   0.362837 0.772068 0.392068 -0.768617
O93   O     O_2   0.681292 0.560661 0.288933 -0.551561
O94   O     O_R   0.734749 0.590568 0.378193 -0.803634
O95   O     O_2   0.729347 0.185339 0.333868 -0.501012
O96   O     O_R   0.060620 0.392670 0.999980 -0.573123
O97   O     O_R   0.738784 0.229056 0.236528 -0.756665
O98   O     O_2   0.318042 0.444614 0.268473 -0.563114
O99   O     O_R   0.269714 0.429596 0.364513 -0.781632
O100  O     O_2   0.311303 0.262901 0.761771 -0.557426
O101  O     O_R   0.283418 0.219393 0.668065 -0.711721
O102  O     O_2   0.784996 0.291275 0.674157 -0.523293
O103  O     O_R   0.736504 0.305944 0.770050 -0.767734
O104  O     O_2   0.652955 0.715610 0.699078 -0.569380
O105  O     O_R   0.634747 0.774049 0.608514 -0.777501
O106  O     O_2   0.289918 0.644063 0.694310 -0.538463
O107  O     O_R   0.607330 0.060620 0.999980 -0.611511
O108  O     O_R   0.232219 0.625370 0.604863 -0.779368
O109  O     O_2   0.089325 0.689316 0.897683 -0.275358
O110  O     O_2   0.031391 0.751808 0.812855 -0.258490
O111  O     O_3   0.956372 0.651235 0.868691 -0.599189
O112  O     O_2   0.691569 0.916404 0.896861 -0.275548
O113  O     O_2   0.751863 0.976803 0.810057 -0.253908
O114  O     O_3   0.649039 0.048625 0.866395 -0.578270
O115  O     O_2   0.027894 0.258860 0.867817 -0.314306
O116  O     O_2   0.073265 0.296015 0.766824 -0.196275
O117  O     O_3   0.106513 0.376523 0.858299 -0.529644
O118  O     O_R   0.439380 0.892670 0.500020 -0.582793
O119  O     O_2   0.251491 0.977717 0.864505 -0.266713
O120  O     O_2   0.303104 0.927226 0.770622 -0.292366
O121  O     O_3   0.369873 0.899835 0.870922 -0.519763
O122  O     O_2   0.110796 0.322524 0.097662 -0.252759
O123  O     O_2   0.073905 0.265659 0.194314 -0.260151
O124  O     O_3   0.977778 0.345499 0.139691 -0.591996
O125  O     O_2   0.726978 0.942182 0.122689 -0.329857
O126  O     O_2   0.704754 0.908783 0.229327 -0.193963
O127  O     O_3   0.605668 0.875719 0.152385 -0.513208
O128  O     O_2   0.887123 0.676069 0.099042 -0.258365
S1    S     S_3+6 0.040010 0.678969 0.844638 0.009748
S2    S     S_3+6 0.163899 0.577871 0.326806 0.063685
S3    S     S_3+6 0.530975 0.820750 0.328675 0.054553
S4    S     S_3+6 0.831361 0.425283 0.329856 0.051986
S5    S     S_3+6 0.466776 0.821775 0.671664 0.058319
S6    S     S_3+6 0.178001 0.460366 0.669969 0.042957
S7    S     S_3+6 0.457777 0.179325 0.653826 0.003701
S8    S     S_3+6 0.822075 0.460835 0.657401 0.020093
S9    S     S_3+6 0.679388 0.966003 0.843120 0.018958
S10   S     S_3+6 0.042628 0.323709 0.826857 0.062283
S11   S     S_3+6 0.322088 0.961456 0.830490 0.043210
S12   S     S_3+6 0.066831 0.333788 0.155716 0.025689
S13   S     S_3+6 0.669171 0.936848 0.172391 0.062154
S14   S     S_3+6 0.930732 0.666638 0.155822 0.016577
S15   S     S_3+6 0.319381 0.967389 0.156272 0.016258
S16   S     S_3+6 0.556218 0.173692 0.342830 0.020290
Zn1   Zn    Zn3+2 0.919060 0.500000 0.000000 1.133481
Zn2   Zn    Zn3+2 0.000000 0.000000 0.069040 1.153872
Zn3   Zn    Zn3+2 0.500000 0.500000 0.430960 1.143077
Zn4   Zn    Zn3+2 0.500000 0.500000 0.569040 1.170202
Zn5   Zn    Zn3+2 0.500000 0.080940 0.000000 1.101253
Zn6   Zn    Zn3+2 0.080940 0.500000 0.000000 1.167478
Zn7   Zn    Zn3+2 0.500000 0.919060 0.000000 1.168203
Zn8   Zn    Zn3+2 0.419060 0.000000 0.500000 1.138404
Zn9   Zn    Zn3+2 1.000000 0.580940 0.500000 1.137965
Zn10  Zn    Zn3+2 0.580940 0.000000 0.500000 1.146653
Zn11  Zn    Zn3+2 0.000000 0.419060 0.500000 1.163973
Zn12  Zn    Zn3+2 1.000000 0.000000 0.930960 1.170386

loop_
_geom_bond_atom_site_label_1
_geom_bond_atom_site_label_2
_ccdc_geom_bond_type
O51   Zn8   S    
C38   C87   A    
C23   C99   S    
C7    O89   D    
C77   C92   A    
C101  C102  T    
C49   C63   A    
C6    O88   S    
C35   C53   A    
C11   O99   S    
C5    C56   S    
C1    O1    A    
C67   O57   A    
C74   O70   A    
O21   S5    D    
O29   S7    D    
C34   C90   A    
C53   C59   A    
C70   C101  S    
C18   C106  T    
C11   O98   D    
C78   C90   A    
C70   O61   A    
C79   C95   A    
C25   O85   A    
C3    O80   D    
O112  S9    D    
O124  S12   S    
C24   O43   A    
C9    C61   S    
C84   C97   A    
C2    C103  T    
H31   O90   S    
O125  S13   D    
H11   O117  S    
H17   O7    S    
C30   C93   S    
C71   C107  S    
H7    O105  S    
C51   C65   A    
C29   C94   S    
C12   C64   S    
O70   Zn4   S    
O46   Zn5   S    
O128  S14   D    
C82   C87   A    
C32   C88   A    
C70   O59   A    
O119  S11   D    
C35   S12   S    
C110  O73   D    
C44   C76   A    
C111  O77   S    
C4    O83   S    
C77   C93   A    
O61   Zn2   S    
O85   Zn7   S    
C86   C97   A    
O67   Zn3   S    
H20   O17   S    
C22   O40   A    
C85   C98   A    
O17   S3    S    
O33   S8    S    
C76   C94   A    
C67   O64   A    
H3    O97   S    
O3    S14   D    
C26   O44   A    
C3    C50   S    
C72   O66   A    
C38   C55   A    
C72   C108  S    
C31   C89   A    
C67   C104  S    
C28   O50   A    
O55   Zn9   S    
C37   C84   A    
O10   S16   S    
C24   O45   A    
C27   O49   A    
C16   C63   S    
C4    O82   D    
O13   Zn10  S    
C2    C25   S    
O36   Zn10  S    
C3    O81   S    
O22   S5    D    
C47   O107  A    
O49   Zn10  S    
H2    O94   S    
C87   C98   A    
C66   O60   A    
O71   Zn4   S    
O54   Zn10  S    
C7    O90   S    
C10   O95   D    
H15   O127  S    
C34   S11   S    
C58   O118  A    
O113  S9    D    
C69   O2    A    
O65   Zn3   S    
H14   O124  S    
C27   C96   S    
O45   Zn6   S    
C10   O97   S    
C27   O47   A    
C31   C49   A    
O11   S2    D    
C11   C59   S    
C88   C99   A    
C28   O48   A    
O110  S1    D    
C73   O67   A    
O60   Zn2   S    
H9    O111  S    
O19   S4    D    
C48   S8    S    
C1    O96   A    
C26   O46   A    
C47   O63   A    
H10   O114  S    
C22   C100  S    
C20   C80   S    
C89   C100  A    
C68   O58   A    
O107  Zn5   S    
C5    O84   D    
H8    O108  S    
C91   O24   A    
C7    C54   S    
C10   C57   S    
O31   S8    D    
C41   C59   A    
C13   C36   S    
C52   C64   A    
C33   C92   A    
O40   Zn6   S    
C46   C78   A    
C92   C100  A    
C37   S13   S    
H6    O103  S    
H16   O4    S    
C43   S4    S    
C15   O105  S    
C52   C111  S    
C44   C62   A    
H29   O86   S    
O72   Zn4   S    
C69   O35   A    
O109  S1    D    
C45   C63   A    
O24   Zn11  S    
C14   O102  D    
C56   C60   A    
C74   O68   A    
O57   Zn12  S    
C71   O65   A    
C48   C77   A    
H19   O14   S    
C36   O52   A    
C23   O39   A    
O43   Zn1   S    
O53   Zn11  S    
C17   C105  T    
C74   C106  S    
C21   C109  T    
H30   O88   S    
C39   C56   A    
H24   O27   S    
O96   Zn6   S    
C30   O53   A    
O9    S16   D    
C46   S7    S    
H18   O10   S    
O16   S3    D    
C15   O104  D    
H32   O92   S    
C71   O69   A    
O42   Zn7   S    
O27   S6    S    
O64   Zn2   S    
C45   C75   A    
O68   Zn3   S    
C25   O41   A    
C49   C112  S    
C42   S3    S    
C8    O92   S    
O47   Zn8   S    
C72   O72   A    
O111  S1    S    
C26   C97   S    
C45   S6    S    
C51   C110  S    
C40   S16   S    
C28   C95   S    
C4    C55   S    
C9    O93   D    
C48   C65   A    
C112  O79   S    
C24   C98   S    
C19   C69   S    
C50   C62   A    
O41   Zn5   S    
O6    S15   D    
C37   C54   A    
C6    C53   S    
C36   O74   A    
C32   S9    S    
C31   S1    S    
H21   O20   S    
O56   Zn12  S    
C90   C99   A    
C79   C85   A    
C81   C84   A    
C9    O94   S    
O121  S11   S    
C14   O103  S    
C21   C91   S    
O2    Zn9   S    
O122  S12   D    
O48   Zn9   S    
O69   Zn4   S    
C76   C88   A    
C33   S10   S    
O1    Zn1   S    
H28   O83   S    
C16   O106  D    
C82   C95   A    
H13   O121  S    
C5    O86   S    
O12   S2    D    
C66   C103  S    
O20   S4    S    
O115  S10   D    
C32   C50   A    
C42   C83   A    
C17   C47   S    
C112  O78   D    
C18   C58   S    
C40   C57   A    
O7    S15   S    
C41   C79   A    
C23   O42   A    
O116  S10   D    
O34   Zn8   S    
O8    S16   D    
O62   Zn2   S    
C42   C60   A    
H5    O101  S    
C33   C51   A    
C111  O76   D    
H23   O79   S    
O74   Zn1   S    
O5    S15   D    
C34   C52   A    
C110  O75   S    
O23   S5    S    
C44   S5    S    
O37   Zn9   S    
O18   S4    D    
C40   C81   A    
O15   S3    D    
C81   C96   A    
O32   S8    D    
H27   O81   S    
O14   S2    S    
H25   O30   S    
C22   O38   A    
C29   O51   A    
C8    C60   S    
C12   O101  S    
C38   S14   S    
O58   Zn12  S    
C35   C85   A    
C43   C61   A    
C80   O13   A    
C68   O62   A    
O123  S12   D    
C78   C94   A    
C75   C93   A    
O28   S7    D    
C83   C96   A    
C55   C61   A    
O35   Zn11  S    
O127  S13   S    
C15   C62   S    
C12   O100  D    
C30   O55   A    
O114  S9    S    
O118  Zn8   S    
C73   C109  S    
O38   Zn1   S    
O26   S6    D    
C16   O108  S    
H4    O99   S    
O44   Zn7   S    
C39   S15   S    
O66   Zn3   S    
C75   C89   A    
C91   O37   A    
O117  S10   S    
C8    O91   D    
O50   Zn11  S    
C83   C86   A    
O30   S7    S    
H12   O77   S    
C58   O36   A    
C29   O54   A    
C68   C105  S    
C46   C64   A    
O59   Zn12  S    
C13   C104  T    
O120  S11   D    
O39   Zn5   S    
H22   O23   S    
C73   O71   A    
O4    S14   S    
O25   S6    D    
O126  S13   D    
C39   C86   A    
O63   Zn7   S    
O52   Zn6   S    
C6    O87   D    
H26   O33   S    
C1    C102  S    
H1    O75   S    
C66   O56   A    
C41   S2    S    
C43   C82   A    
C80   O34   A    
C14   C65   S    
C20   C108  T    
C54   C57   A    
C19   C107  T    
