data_mof_unit_4734.cif
_audit_creation_date              2012-12-11T15:54:35-0500
_audit_creation_method            fapswitch 2.2
_symmetry_space_group_name_H-M    P1
_symmetry_Int_Tables_number       1
_space_group_crystal_system       triclinic
_cell_length_a                    6.931065
_cell_length_b                    14.715215
_cell_length_c                    15.94616
_cell_angle_alpha                 90.125408
_cell_angle_beta                  89.631296
_cell_angle_gamma                 90.37071
_cell_volume                      1626.31106622

loop_
_atom_site_label
_atom_site_type_symbol
_atom_type_description
_atom_site_fract_x
_atom_site_fract_y
_atom_site_fract_z
_atom_type_partial_charge
O1    O     O_R   0.638180 0.333920 0.163320 -0.544206
O2    O     O_R   0.361820 0.666080 0.836680 -0.548475
O3    O     O_R   0.308470 0.344960 0.336080 -0.529560
O4    O     O_R   0.691530 0.655040 0.663920 -0.530491
O5    O     O_R   0.138140 0.166110 0.336680 -0.527395
O6    O     O_R   0.861860 0.833890 0.663320 -0.524517
C1    C     C_R   0.477551 0.368053 0.364313 0.672414
C2    C     C_R   0.522481 0.632074 0.635584 0.669138
O7    O     O_R   0.308460 0.344950 0.163930 -0.512701
O8    O     O_R   0.691540 0.655050 0.836070 -0.515892
O9    O     O_R   0.138140 0.166100 0.163310 -0.508063
O10   O     O_R   0.861860 0.833900 0.836690 -0.519437
C3    C     C_R   0.477664 0.367765 0.135483 0.744341
C4    C     C_R   0.522027 0.630947 0.863304 0.744182
O11   O     O_R   0.638180 0.333930 0.336700 -0.555798
O12   O     O_R   0.361820 0.666070 0.663300 -0.554721
O13   O     O_3   0.471670 0.191340 0.250000 -0.368441
O14   O     O_3   0.528330 0.808660 0.750000 -0.364380
V1    V     V_3+5 0.196830 0.260900 0.250000 1.504514
V2    V     V_3+5 0.803170 0.739100 0.750000 1.496458
O15   O     O_R   0.808420 0.155070 0.163920 -0.547725
O16   O     O_R   0.191580 0.844930 0.836080 -0.545369
C5    C     C_R   0.978022 0.130499 0.136967 0.733598
C6    C     C_R   0.022859 0.863759 0.867751 0.712226
O17   O     O_R   0.808420 0.155080 0.336070 -0.556932
O18   O     O_R   0.191580 0.844920 0.663930 -0.554188
C7    C     C_R   0.975936 0.133442 0.365166 0.747173
C8    C     C_R   0.024111 0.866281 0.634556 0.760499
V3    V     V_3+5 0.696830 0.239130 0.250000 1.420405
V4    V     V_3+5 0.303170 0.760870 0.750000 1.420342
O19   O     O_3   0.971850 0.308690 0.250010 -0.370441
O20   O     O_3   0.028150 0.691310 0.749990 -0.373873
H1    H     H_    0.643189 0.851995 0.282575 0.129286
H2    H     H_    0.362929 0.146403 0.715867 0.138839
C9    C     C_R   0.131357 0.180452 0.532190 0.448230
C10   C     C_R   0.873421 0.818890 0.466690 0.445825
C11   C     C_R   0.247173 0.198245 0.601688 -0.179205
C12   C     C_R   0.759218 0.800550 0.396778 -0.173983
C13   C     C_R   0.281512 0.130822 0.659865 -0.213765
C14   C     C_R   0.722712 0.868067 0.338950 -0.221083
C15   C     C_R   0.200769 0.044990 0.649175 -0.151981
C16   C     C_R   0.799426 0.954596 0.350410 -0.165509
C17   C     C_R   0.098748 0.021550 0.575217 0.021656
C18   C     C_R   0.901535 0.978146 0.424351 0.029289
C19   C     C_R   0.072875 0.089498 0.512715 -0.034956
C20   C     C_R   0.928601 0.910103 0.486655 -0.034006
C21   C     C_R   0.019176 0.933060 0.564054 -0.179091
C22   C     C_R   0.981047 0.066665 0.435554 -0.175476
H3    H     H_    0.297970 0.266767 0.613875 0.136215
H4    H     H_    0.711581 0.731666 0.383984 0.134876
H5    H     H_    0.221069 0.998176 0.700180 0.136452
H6    H     H_    0.776893 0.001702 0.299811 0.129167
C23   C     C_R   0.180582 0.964096 0.976051 -0.319956
C24   C     C_R   0.823272 0.016701 0.040127 -0.311301
H7    H     H_    0.320865 0.943294 0.953229 0.207505
H8    H     H_    0.684310 0.035858 0.064646 0.205136
C25   C     C_R   0.170135 0.021242 0.046852 0.467287
C26   C     C_R   0.834792 0.944338 0.982950 0.440570
C27   C     C_R   0.990816 0.057345 0.072222 -0.204068
C28   C     C_R   0.012000 0.926685 0.941239 -0.224532
C29   C     C_R   0.663043 0.481791 0.450963 -0.187667
C30   C     C_R   0.336840 0.518837 0.548544 -0.186238
H9    H     H_    0.791475 0.468740 0.413917 0.120908
H10   H     H_    0.208242 0.532148 0.585398 0.122827
C31   C     C_R   0.675181 0.543408 0.517800 -0.140468
C32   C     C_R   0.324759 0.457186 0.481738 -0.139786
H11   H     H_    0.812414 0.575858 0.530521 0.160543
H12   H     H_    0.187432 0.424936 0.468855 0.159698
C33   C     C_R   0.511907 0.563353 0.567055 -0.052707
C34   C     C_R   0.488128 0.437031 0.432637 -0.051499
C35   C     C_R   0.327533 0.490935 0.045688 0.440616
C36   C     C_R   0.671280 0.506348 0.951703 0.428909
C37   C     C_R   0.339835 0.550816 0.977378 -0.302613
C38   C     C_R   0.658233 0.445550 0.019299 -0.295052
H13   H     H_    0.214691 0.591240 0.962347 0.188893
H14   H     H_    0.783419 0.405131 0.034284 0.192566
C39   C     C_R   0.511338 0.561126 0.930859 -0.222877
C40   C     C_R   0.487297 0.435906 0.066380 -0.223203
O21   O     O_3   0.061250 0.254561 0.489489 -0.576016
C41   C     C_3   0.871413 0.272762 0.518321 0.077077
H15   H     H_    0.781801 0.210387 0.528149 0.110240
H16   H     H_    0.799257 0.311388 0.468938 0.166448
C42   C     C_3   0.870738 0.331074 0.597691 -0.794682
H17   H     H_    0.721831 0.354828 0.610958 0.202054
H18   H     H_    0.919441 0.290663 0.652137 0.215363
H19   H     H_    0.966379 0.391205 0.589560 0.224770
O22   O     O_3   0.947543 0.745252 0.508802 -0.577074
C43   C     C_3   0.137101 0.728694 0.478654 0.076241
H20   H     H_    0.213897 0.691976 0.527981 0.166183
H21   H     H_    0.223127 0.791832 0.466987 0.108987
C44   C     C_3   0.136906 0.668929 0.400207 -0.791520
H22   H     H_    0.286040 0.645819 0.386420 0.201246
H23   H     H_    0.043020 0.608423 0.409830 0.226439
H24   H     H_    0.085469 0.708052 0.345445 0.211931
O23   O     O_3   0.331438 0.033285 0.096364 -0.549938
C45   C     C_3   0.353026 0.955742 0.148594 0.090307
H25   H     H_    0.508733 0.939566 0.152622 0.137697
H26   H     H_    0.278723 0.893452 0.124751 0.103773
C46   C     C_3   0.279342 0.973672 0.237294 -0.708932
H27   H     H_    0.124454 0.991635 0.236332 0.189588
H28   H     H_    0.295307 0.911436 0.275826 0.169419
H29   H     H_    0.363724 0.029000 0.266955 0.243609
O24   O     O_3   0.679649 0.884754 0.978155 -0.552982
C47   C     C_3   0.728312 0.803935 0.021805 0.122284
H30   H     H_    0.814986 0.817317 0.079480 0.089760
H31   H     H_    0.812889 0.758349 0.980117 0.131587
C48   C     C_3   0.547230 0.752833 0.049143 -0.764617
H32   H     H_    0.435455 0.755152 0.999655 0.228672
H33   H     H_    0.584196 0.681154 0.062787 0.182445
H34   H     H_    0.489481 0.781862 0.108000 0.181326
O25   O     O_3   0.155305 0.484192 0.089649 -0.537790
C49   C     C_3   0.142406 0.558071 0.146139 0.121278
H35   H     H_    0.155188 0.624539 0.113095 0.100580
H36   H     H_    0.257221 0.553575 0.194525 0.098677
C50   C     C_3   0.946953 0.555390 0.190130 -0.704883
H37   H     H_    0.929076 0.490713 0.225077 0.232604
H38   H     H_    0.935552 0.612927 0.234926 0.162382
H39   H     H_    0.829707 0.561398 0.143433 0.216591
O26   O     O_3   0.845095 0.514655 0.909264 -0.541326
C51   C     C_3   0.855277 0.445875 0.847500 0.126856
H40   H     H_    0.745637 0.457625 0.797962 0.098847
H41   H     H_    0.832454 0.377052 0.875092 0.103949
C52   C     C_3   0.054554 0.447641 0.806870 -0.703321
H42   H     H_    0.166415 0.433738 0.854570 0.219124
H43   H     H_    0.063524 0.394718 0.757394 0.163993
H44   H     H_    0.083223 0.514972 0.778064 0.233797

loop_
_geom_bond_atom_site_label_1
_geom_bond_atom_site_label_2
_ccdc_geom_bond_type
C7    C22   S    
C29   C34   A    
C32   H12   S    
O22   C43   S    
C8    C21   S    
O13   V3    S    
O23   C45   S    
O4    C2    A    
V1    O19   S    
C1    C34   S    
C47   H31   S    
C52   H42   S    
C13   C15   A    
C32   C34   A    
C5    C27   S    
O9    V1    S    
C2    C33   S    
C38   H14   S    
C9    C11   A    
O3    C1    A    
V2    O20   S    
C25   C27   A    
O12   V4    S    
C50   H37   S    
C45   C46   S    
C20   C21   A    
C4    C39   S    
C9    O21   S    
C29   H9    S    
O7    C3    A    
C47   H30   S    
C30   H10   S    
O5    C7    A    
O7    V1    S    
O6    C8    A    
C42   H17   S    
O8    V2    S    
C31   H11   S    
C35   O25   S    
C46   H29   S    
C48   H32   S    
O3    V1    S    
O14   V4    S    
V4    O20   S    
C51   C52   S    
C1    O11   A    
C2    O12   A    
C15   C17   A    
C16   C18   A    
C41   C42   S    
C49   H36   S    
C49   H35   S    
C23   C28   A    
C18   C20   A    
O11   V3    S    
C24   C27   A    
C23   H7    S    
C10   O22   S    
O17   V3    S    
C24   H8    S    
H1    C14   S    
C30   C32   A    
H2    C13   S    
C49   C50   S    
C36   C38   A    
O8    C4    A    
C44   H22   S    
C35   C37   A    
C23   C25   A    
C41   H15   S    
C52   H44   S    
C50   H38   S    
O15   V3    S    
C30   C33   A    
C45   H26   S    
C36   C39   A    
C44   H23   S    
C11   H3    S    
C46   H27   S    
C43   C44   S    
C6    C28   S    
C50   H39   S    
C45   H25   S    
O10   V2    S    
O1    V3    S    
C10   C20   A    
C17   C19   A    
O5    V1    S    
C41   H16   S    
C42   H18   S    
C43   H21   S    
O18   V4    S    
O15   C5    A    
C38   C40   A    
C48   H34   S    
O16   C6    A    
O1    C3    A    
C37   H13   S    
C9    C19   A    
C51   H40   S    
C51   H41   S    
C24   C26   A    
C19   C22   A    
C3    C40   S    
O16   V4    S    
O25   C49   S    
C46   H28   S    
C14   C16   A    
O26   C51   S    
C12   H4    S    
O17   C7    A    
O6    V2    S    
O10   C6    A    
O18   C8    A    
O2    V4    S    
C10   C12   A    
C11   C13   A    
C44   H24   S    
C12   C14   A    
C48   H33   S    
C17   C21   A    
C31   C33   A    
C36   O26   S    
O9    C5    A    
O13   V1    S    
O14   V2    S    
C47   C48   S    
O2    C4    A    
C52   H43   S    
O21   C41   S    
O4    V2    S    
C29   C31   A    
C42   H19   S    
C43   H20   S    
V3    O19   S    
C25   O23   S    
O24   C47   S    
C37   C39   A    
C26   O24   S    
C26   C28   A    
C15   H5    S    
C35   C40   A    
C18   C22   A    
C16   H6    S    
