data_mof_unit_1479.cif
_audit_creation_date              2012-12-11T15:53:41-0500
_audit_creation_method            fapswitch 2.2
_symmetry_space_group_name_H-M    P1
_symmetry_Int_Tables_number       1
_space_group_crystal_system       triclinic
_cell_length_a                    10.717669
_cell_length_b                    10.71156
_cell_length_c                    17.066811
_cell_angle_alpha                 80.554334
_cell_angle_beta                  99.548378
_cell_angle_gamma                 118.823816
_cell_volume                      1684.74505117

loop_
_atom_site_label
_atom_site_type_symbol
_atom_type_description
_atom_site_fract_x
_atom_site_fract_y
_atom_site_fract_z
_atom_type_partial_charge
C1    C     C_R   0.361262 0.229250 0.627438 0.548784
C2    C     C_1   0.320137 0.159061 0.778006 -0.056065
C3    C     C_1   0.338536 0.663553 0.277369 -0.073574
C4    C     C_R   0.370174 0.654572 0.586269 0.547773
C5    C     C_1   0.326240 0.672846 0.206644 -0.079671
C6    C     C_R   0.838787 0.669708 0.161524 -0.017917
C7    C     C_R   0.840466 0.556692 0.215447 0.011706
C8    C     C_R   0.844362 0.559670 0.295685 -0.011445
C9    C     C_R   0.832849 0.782912 0.272392 0.126376
C10   C     C_R   0.831623 0.781115 0.190327 -0.120365
C11   C     C_3   0.949101 0.502675 0.229771 -0.247295
C12   C     C_R   0.392383 0.828679 0.674726 -0.143994
C13   C     C_3   0.956962 0.512903 0.317448 -0.279554
C14   C     C_R   0.837891 0.668601 0.325906 0.016363
C15   C     C_R   0.306861 0.133262 0.168020 -0.010812
C16   C     C_R   0.780952 0.620974 0.626262 0.549605
C17   C     C_R   0.200611 0.147247 0.196367 0.028426
C18   C     C_R   0.204524 0.157723 0.274966 0.007784
C19   C     C_R   0.408263 0.112112 0.304930 0.089969
C20   C     C_R   0.402565 0.100823 0.223530 -0.148658
C21   C     C_3   0.142257 0.249794 0.168280 -0.263356
C22   C     C_3   0.147887 0.264494 0.255513 -0.253724
C23   C     C_R   0.375803 0.850224 0.750290 -0.157898
C24   C     C_R   0.316707 0.155103 0.329289 0.041561
C25   C     C_R   0.946879 0.724719 0.851652 0.537888
C26   C     C_R   0.282681 0.749883 0.882753 0.547811
C27   C     C_R   0.283937 0.113755 0.857582 0.535505
C28   C     C_R   0.349641 0.223938 0.401048 0.565342
C29   C     C_R   0.889190 0.691682 0.084612 0.558741
C30   C     C_R   0.313758 0.700268 0.123561 0.550016
C31   C     C_R   0.283358 0.103348 0.086523 0.552698
C32   C     C_R   0.366238 0.653743 0.360489 0.538060
C33   C     C_R   0.776587 0.625756 0.401442 0.541153
C34   C     C_3   0.143936 0.455412 0.796553 -0.245753
C35   C     C_R   0.282370 0.734719 0.799202 0.002244
C36   C     C_R   0.187182 0.607678 0.764765 0.011865
C37   C     C_R   0.204574 0.585719 0.690548 0.011081
C38   C     C_3   0.653459 0.182815 0.355893 -0.290486
C39   C     C_3   0.737390 0.952106 0.266774 -0.288632
C40   C     C_3   0.163680 0.431536 0.715230 -0.247957
C41   C     C_R   0.316619 0.690811 0.647955 0.013835
C42   C     C_1   0.850128 0.669146 0.702737 -0.034519
C43   C     C_1   0.897038 0.703465 0.769375 -0.037473
C44   C     C_1   0.345021 0.187035 0.709713 -0.053549
Cr1   Cr    Cr6+3 0.608440 0.389080 0.519680 1.024562
Cr2   Cr    Cr6+3 0.288640 0.400090 0.490760 1.003085
Cr3   Cr    Cr6+3 0.602940 0.710800 0.489510 1.012688
Cr4   Cr    Cr6+3 0.052530 0.947560 0.964210 1.020582
Cr5   Cr    Cr6+3 0.059970 0.626800 0.992920 1.005283
Cr6   Cr    Cr6+3 0.373320 0.938440 0.995370 1.008779
H1    H     H_    0.474841 0.915894 0.641415 0.147178
H2    H     H_    0.443923 0.953623 0.772722 0.141191
H3    H     H_    0.030564 0.397062 0.810254 0.151484
H4    H     H_    0.222239 0.444030 0.844963 0.159657
H5    H     H_    0.253885 0.407250 0.716778 0.156838
H6    H     H_    0.061856 0.358885 0.682195 0.149972
H7    H     H_    0.837647 0.873012 0.150162 0.147279
H8    H     H_    0.050114 0.579366 0.204366 0.172821
H9    H     H_    0.486678 0.977578 0.360914 0.269626
H10   H     H_    0.687227 0.183616 0.297685 0.105631
H11   H     H_    0.720736 0.155224 0.404969 0.128867
H12   H     H_    0.903054 0.390919 0.214327 0.129451
H13   H     H_    0.669911 0.290939 0.361317 0.215308
H14   H     H_    0.887912 0.929007 0.357805 0.261751
H15   H     H_    0.790557 0.060909 0.235146 0.117754
H16   H     H_    0.683045 0.955132 0.315538 0.167420
H17   H     H_    0.654613 0.878451 0.224253 0.169167
H18   H     H_    0.921101 0.408117 0.353801 0.132117
H19   H     H_    0.060367 0.599353 0.341345 0.143115
H20   H     H_    0.473236 0.068592 0.204206 0.142399
H21   H     H_    0.031267 0.196637 0.138711 0.146330
H22   H     H_    0.218113 0.349202 0.135010 0.142620
H23   H     H_    0.227607 0.372724 0.272270 0.162898
H24   H     H_    0.040702 0.223118 0.276222 0.146256
N1    N     N_2   0.504773 0.080721 0.361371 -0.505605
N2    N     N_2   0.843762 0.906406 0.300184 -0.512534
O1    O     O_R   0.754020 0.497590 0.609930 -0.507127
O2    O     O_R   0.406180 0.826930 0.920660 -0.501637
O3    O     O_R   0.358620 0.062870 0.901950 -0.515771
O4    O     O_R   0.481420 0.271390 0.600630 -0.493936
O5    O     O_R   0.163910 0.085460 0.050210 -0.512935
O6    O     O_R   0.935200 0.815170 0.045770 -0.498529
O7    O     O_R   0.916120 0.596690 0.069430 -0.513727
O8    O     O_R   0.192310 0.631200 0.086170 -0.508556
O9    O     O_R   0.406770 0.819480 0.096420 -0.514787
O10   O     O_R   0.359170 0.055960 0.064880 -0.506008
O11   O     O_3   0.161940 0.837600 0.984160 -0.291640
O12   O     O_R   0.295080 0.533620 0.397890 -0.507746
O13   O     O_R   0.263810 0.254550 0.589590 -0.518304
O14   O     O_R   0.300820 0.531200 0.560890 -0.501271
O15   O     O_R   0.491480 0.744020 0.564270 -0.515474
O16   O     O_R   0.726290 0.693800 0.583010 -0.496192
O17   O     O_R   0.747830 0.500190 0.434090 -0.533093
O18   O     O_R   0.475680 0.273800 0.437630 -0.476308
O19   O     O_R   0.257620 0.257160 0.413750 -0.534555
O20   O     O_R   0.485280 0.746620 0.388440 -0.533586
O21   O     O_R   0.720550 0.696220 0.420010 -0.494740
O22   O     O_3   0.500010 0.499990 0.499980 -0.248658
O23   O     O_R   0.163320 0.092900 0.874450 -0.513938
O24   O     O_R   0.934650 0.822080 0.882840 -0.480326
O25   O     O_R   0.915520 0.604140 0.893670 -0.506336
O26   O     O_R   0.191760 0.638110 0.923230 -0.510680

loop_
_geom_bond_atom_site_label_1
_geom_bond_atom_site_label_2
_ccdc_geom_bond_type
C8    C13   S    
C16   C42   S    
Cr3   O16   S    
Cr5   O11   S    
C19   C20   A    
C11   H12   S    
Cr1   O17   S    
Cr6   O3    S    
C25   C43   S    
C14   C33   S    
C7    C8    A    
Cr2   O13   S    
C7    C11   S    
C12   C23   A    
C27   O23   A    
C26   O2    A    
Cr3   O22   S    
C21   H21   S    
C28   O19   A    
C18   C24   A    
Cr5   O8    S    
C36   C37   A    
C29   O7    A    
C37   C40   S    
C27   O3    A    
Cr1   O22   S    
Cr5   O25   S    
C4    C41   S    
C32   O12   A    
Cr4   O5    S    
C28   O18   A    
C16   O1    A    
C25   O24   A    
Cr6   O9    S    
Cr2   O19   S    
C35   C36   A    
C2    C44   T    
C40   H6    S    
C1    O13   A    
Cr3   O20   S    
C2    C27   S    
C9    N2    S    
C11   H8    S    
C9    C10   A    
Cr2   O12   S    
C38   H11   S    
Cr2   O22   S    
C31   O10   A    
C21   C22   S    
C37   C41   A    
C39   H15   S    
C20   H20   S    
C39   H17   S    
C25   O25   A    
Cr1   O18   S    
Cr6   O2    S    
C4    O14   A    
C38   N1    S    
C15   C20   A    
Cr4   O24   S    
C21   H22   S    
C10   H7    S    
Cr5   O26   S    
C17   C21   S    
C9    C14   A    
C12   C41   A    
C1    C44   S    
C40   H5    S    
C17   C18   A    
H14   N2    S    
Cr4   O11   S    
C39   N2    S    
C30   O9    A    
Cr6   O11   S    
C38   H10   S    
C32   O20   A    
C16   O16   A    
C23   C35   A    
C39   H16   S    
C34   C40   S    
C42   C43   T    
C22   H24   S    
H9    N1    S    
C12   H1    S    
C38   H13   S    
C15   C17   A    
Cr4   O23   S    
C8    C14   A    
C18   C22   S    
Cr3   O15   S    
C24   C28   S    
C3    C5    T    
C33   O17   A    
C6    C10   A    
C15   C31   S    
C6    C7    A    
Cr2   O14   S    
C31   O5    A    
Cr3   O21   S    
C4    O15   A    
C19   N1    S    
C19   C24   A    
C29   O6    A    
C26   O26   A    
C11   C13   S    
C34   H4    S    
Cr5   O7    S    
C23   H2    S    
C13   H19   S    
Cr4   O6    S    
Cr1   O4    S    
C34   C36   S    
C30   O8    A    
C3    C32   S    
Cr6   O10   S    
C26   C35   S    
C6    C29   S    
C34   H3    S    
C5    C30   S    
C1    O4    A    
Cr1   O1    S    
C22   H23   S    
C33   O21   A    
C13   H18   S    
