data_mof_unit_4298.cif
_audit_creation_date              2012-12-11T17:17:00-0500
_audit_creation_method            fapswitch 2.2
_symmetry_space_group_name_H-M    P1
_symmetry_Int_Tables_number       1
_space_group_crystal_system       triclinic
_cell_length_a                    6.941922
_cell_length_b                    13.37211
_cell_length_c                    14.677014
_cell_angle_alpha                 98.861548
_cell_angle_beta                  89.963755
_cell_angle_gamma                 90.140234
_cell_volume                      1346.17309716

loop_
_atom_site_label
_atom_site_type_symbol
_atom_type_description
_atom_site_fract_x
_atom_site_fract_y
_atom_site_fract_z
_atom_type_partial_charge
O1    O     O_R   0.354890 0.151580 0.148210 -0.527740
O2    O     O_R   0.645110 0.848420 0.851790 -0.527740
O3    O     O_R   0.682370 0.152980 0.336770 -0.545798
O4    O     O_R   0.317630 0.847020 0.663230 -0.545797
O5    O     O_R   0.854980 0.348430 0.351800 -0.538884
O6    O     O_R   0.145020 0.651570 0.648200 -0.538884
C1    C     C_R   0.513830 0.131263 0.366435 0.672345
C2    C     C_R   0.486170 0.868737 0.633565 0.672344
O7    O     O_R   0.684450 0.139580 0.148000 -0.537074
O8    O     O_R   0.315550 0.860420 0.852000 -0.537074
O9    O     O_R   0.857080 0.334940 0.161680 -0.541022
O10   O     O_R   0.142920 0.665060 0.838320 -0.541022
C3    C     C_R   0.515495 0.112702 0.114000 0.767124
C4    C     C_R   0.484504 0.887297 0.886000 0.767124
O11   O     O_R   0.352790 0.165070 0.338330 -0.544291
O12   O     O_R   0.647210 0.834930 0.661670 -0.544291
O13   O     O_3   0.522170 0.314120 0.254710 -0.369460
O14   O     O_3   0.477830 0.685880 0.745290 -0.369459
V1    V     V_3+5 0.796120 0.238110 0.249130 1.463807
V2    V     V_3+5 0.203880 0.761890 0.750870 1.463807
O15   O     O_R   0.186930 0.347040 0.163240 -0.527056
O16   O     O_R   0.813070 0.652960 0.836760 -0.527056
C5    C     C_R   0.018111 0.368649 0.133637 0.768396
C6    C     C_R   0.981889 0.631351 0.866362 0.768396
O17   O     O_R   0.184850 0.360440 0.352010 -0.543088
O18   O     O_R   0.815150 0.639560 0.647990 -0.543088
C7    C     C_R   0.015864 0.387330 0.385982 0.719161
C8    C     C_R   0.984136 0.612670 0.614018 0.719161
V3    V     V_3+5 0.296410 0.261900 0.250880 1.477064
V4    V     V_3+5 0.703590 0.738100 0.749120 1.477064
O19   O     O_3   0.020490 0.185890 0.245290 -0.372593
O20   O     O_3   0.979510 0.814110 0.754710 -0.372593
C9    C     C_1   0.005186 0.466911 0.466343 -0.180262
C10   C     C_1   0.994814 0.533089 0.533657 -0.180262
C11   C     C_3   0.179247 0.531385 0.982939 -0.184291
C12   C     C_3   0.820753 0.468615 0.017061 -0.184291
C13   C     C_3   0.077454 0.549702 0.078437 -0.216986
C14   C     C_3   0.922546 0.450298 0.921563 -0.216986
H1    H     H_    0.139645 0.590734 0.143290 0.157806
H2    H     H_    0.860355 0.409265 0.856710 0.157806
H3    H     H_    0.327295 0.556384 0.968471 0.176996
H4    H     H_    0.672705 0.443616 0.031529 0.176996
C15   C     C_3   0.007972 0.438671 0.062990 -0.143707
C16   C     C_3   0.992028 0.561329 0.937010 -0.143707
C17   C     C_3   0.108308 0.420563 0.968681 0.438474
C18   C     C_3   0.891692 0.579437 0.031319 0.438474
C19   C     C_3   0.403021 0.958011 0.424488 -0.135743
C20   C     C_3   0.596979 0.041989 0.575512 -0.135743
C21   C     C_3   0.580735 0.911019 0.465649 -0.134364
C22   C     C_3   0.419265 0.088981 0.534351 -0.134364
H5    H     H_    0.322910 0.923907 0.361888 0.120665
H6    H     H_    0.677090 0.076093 0.638112 0.120666
C23   C     C_3   0.493966 0.938803 0.562721 -0.011679
C24   C     C_3   0.506034 0.061197 0.437279 -0.011679
C25   C     C_3   0.315929 0.984987 0.522358 -0.116572
C26   C     C_3   0.684071 0.015013 0.477642 -0.116572
C27   C     C_1   0.504892 0.033110 0.033652 -0.132267
C28   C     C_1   0.495108 0.966890 0.966348 -0.132267
Cl1   Cl    Cl    0.254771 0.314240 0.926681 -0.687830
Cl2   Cl    Cl    0.745229 0.685760 0.073319 -0.687831
H7    H     H_    0.647700 0.837301 0.437852 0.116110
H8    H     H_    0.352300 0.162699 0.562148 0.116110
H9    H     H_    0.163764 0.972426 0.541092 0.112761
H10   H     H_    0.836236 0.027574 0.458908 0.112761

loop_
_geom_bond_atom_site_label_1
_geom_bond_atom_site_label_2
_ccdc_geom_bond_type
V4    O20   S    
O13   V3    S    
C12   H4    S    
O4    C2    A    
V1    O19   S    
C19   C21   S    
C7    C9    S    
O9    V1    S    
C22   C24   S    
C11   C13   S    
O3    C1    A    
C3    C27   S    
O12   V4    S    
C5    C15   S    
O9    C5    A    
O7    C3    A    
C14   C17   S    
O5    C7    A    
O7    V1    S    
O6    C8    A    
O8    V2    S    
C25   H9    S    
C26   H10   S    
O3    V1    S    
O14   V4    S    
C20   C22   S    
C8    C10   S    
C2    O12   A    
O2    C4    A    
C16   C18   S    
O11   V3    S    
C23   C25   S    
O17   V3    S    
C20   C23   S    
C4    C28   S    
C24   C26   S    
C21   H7    S    
O8    C4    A    
C19   H5    S    
O15   V3    S    
C13   C15   S    
C14   C16   S    
O10   V2    S    
O1    V3    S    
C9    C10   T    
C12   C18   S    
C11   C16   S    
C15   C17   S    
C19   C24   S    
O18   V4    S    
O15   C5    A    
C6    C16   S    
O16   C6    A    
C22   H8    S    
O1    C3    A    
C11   C17   S    
C19   C25   S    
V2    O20   S    
C20   C26   S    
C17   Cl1   S    
O16   V4    S    
C18   Cl2   S    
C2    C23   S    
O5    V1    S    
O17   C7    A    
C21   C26   S    
O6    V2    S    
O10   C6    A    
O18   C8    A    
C22   C25   S    
O2    V4    S    
C12   C14   S    
V3    O19   S    
C14   H2    S    
C27   C28   T    
C21   C23   S    
C1    O11   A    
O13   V1    S    
O14   V2    S    
C11   H3    S    
O4    V2    S    
C20   H6    S    
C13   H1    S    
C12   C15   S    
C1    C24   S    
C13   C18   S    
