data_mof_unit_2218.cif
_audit_creation_date              2012-12-11T14:52:42-0500
_audit_creation_method            fapswitch 2.2
_symmetry_space_group_name_H-M    P1
_symmetry_Int_Tables_number       1
_space_group_crystal_system       triclinic
_cell_length_a                    19.032193
_cell_length_b                    11.01022
_cell_length_c                    18.843743
_cell_angle_alpha                 89.895453
_cell_angle_beta                  90.013999
_cell_angle_gamma                 90.505624
_cell_volume                      3948.5201365

loop_
_atom_site_label
_atom_site_type_symbol
_atom_type_description
_atom_site_fract_x
_atom_site_fract_y
_atom_site_fract_z
_atom_type_partial_charge
C1    C     C_R   0.271714 0.043531 0.853318 0.549157
C2    C     C_R   0.697795 0.531864 0.037801 -0.142724
C3    C     C_3   0.009505 0.328245 0.068941 0.051147
C4    C     C_3   0.141718 0.749449 0.558822 -0.239381
C5    C     C_3   0.076832 0.764564 0.515595 -0.379364
C6    C     C_3   0.021808 0.837439 0.555466 -0.394506
C7    C     C_3   0.879009 0.619662 0.411361 -0.244471
C8    C     C_3   0.950262 0.607887 0.441540 -0.364848
C9    C     C_3   0.003932 0.645377 0.384253 -0.416993
C10   C     C_3   0.641724 0.249460 0.558816 -0.239412
C11   C     C_3   0.576838 0.264569 0.515591 -0.379324
C12   C     C_3   0.521814 0.337449 0.555461 -0.394429
C13   C     C_R   0.802336 0.033912 0.962391 -0.147218
C14   C     C_3   0.379002 0.119706 0.411376 -0.244215
C15   C     C_3   0.450256 0.107900 0.441552 -0.364946
C16   C     C_3   0.503925 0.145374 0.384261 -0.417137
C17   C     C_2   0.349192 0.455297 0.573792 0.557620
C18   C     C_2   0.614141 0.543189 0.443329 0.579338
C19   C     C_2   0.849199 0.955309 0.573783 0.557625
C20   C     C_2   0.114133 0.043208 0.443339 0.578715
C21   C     C_R   0.187996 0.065648 0.033529 -0.137420
C22   C     C_R   0.302476 0.537476 0.037094 -0.159242
C23   C     C_R   0.701862 0.516693 0.964417 -0.149039
C24   C     C_R   0.798464 0.019378 0.035849 -0.148089
C25   C     C_R   0.197197 0.034697 0.962330 -0.152125
C26   C     C_R   0.239296 0.567018 0.070552 0.030474
C27   C     C_R   0.753674 0.579360 0.925394 0.027209
C28   C     C_R   0.746118 0.079517 0.074468 0.025978
C29   C     C_R   0.727819 0.041797 0.146317 0.543661
C30   C     C_R   0.249306 0.093258 0.921856 0.023899
C31   C     C_R   0.181974 0.606716 0.029770 -0.139550
C32   C     C_R   0.799068 0.660568 0.959931 -0.137134
C33   C     C_R   0.700003 0.157740 0.039426 -0.140094
C34   C     C_R   0.288893 0.188038 0.952378 -0.128924
C35   C     C_R   0.187362 0.616893 0.957347 -0.144775
C36   C     C_R   0.796793 0.671989 0.032495 -0.141908
C37   C     C_R   0.702042 0.168278 0.966847 -0.142325
C38   C     C_R   0.280826 0.216697 0.023507 -0.142549
C39   C     C_R   0.250940 0.592287 0.923758 0.030039
C40   C     C_R   0.772143 0.541861 0.853704 0.549780
C41   C     C_R   0.746454 0.607790 0.072362 0.028780
C42   C     C_R   0.753061 0.106846 0.927396 0.026197
C43   C     C_R   0.231896 0.153636 0.065233 0.020838
C44   C     C_R   0.438498 0.779350 0.524754 -0.074298
C45   C     C_R   0.452862 0.777206 0.452766 -0.104549
C46   C     C_R   0.938492 0.279375 0.524753 -0.074187
C47   C     C_R   0.952856 0.277227 0.452765 -0.104850
C48   C     C_R   0.515470 0.828725 0.428312 0.056195
C49   C     C_R   0.487240 0.829934 0.572546 0.045794
C50   C     C_R   0.015471 0.328723 0.428312 0.055938
C51   C     C_R   0.226300 0.538775 0.144975 0.539826
C52   C     C_R   0.987242 0.329935 0.572546 0.045819
C53   C     C_R   0.564844 0.878738 0.476041 -0.115103
C54   C     C_R   0.550289 0.880575 0.548445 -0.148252
C55   C     C_R   0.064850 0.378714 0.476041 -0.115016
C56   C     C_R   0.050297 0.380551 0.548445 -0.148232
C57   C     C_R   0.470076 0.821973 0.855535 0.541895
C58   C     C_R   0.530848 0.821399 0.143901 0.545066
C59   C     C_R   0.969452 0.321857 0.855882 0.541940
C60   C     C_R   0.030374 0.321394 0.144172 0.535188
C61   C     C_R   0.201218 0.675036 0.526189 -0.030169
C62   C     C_3   0.538292 0.739946 0.969538 -0.120633
C63   C     C_R   0.815523 0.586908 0.456553 -0.032445
C64   C     C_R   0.701227 0.175055 0.526183 -0.030126
C65   C     C_R   0.315516 0.086939 0.456563 -0.032991
C66   C     C_R   0.209197 0.675349 0.453370 -0.136100
C67   C     C_R   0.821950 0.573155 0.528748 -0.088075
C68   C     C_R   0.709206 0.175369 0.453363 -0.136347
C69   C     C_R   0.321943 0.073181 0.528756 -0.087876
C70   C     C_R   0.251123 0.589700 0.421325 -0.024931
C71   C     C_R   0.762436 0.568183 0.571807 0.030319
C72   C     C_R   0.751131 0.089719 0.421318 -0.024653
C73   C     C_3   0.480595 0.721156 0.026228 -0.114825
C74   C     C_R   0.262430 0.068200 0.571815 0.030578
C75   C     C_R   0.298032 0.520195 0.461183 -0.146659
C76   C     C_R   0.695588 0.563630 0.543228 -0.156631
C77   C     C_R   0.798043 0.020220 0.461176 -0.146136
C78   C     C_R   0.195581 0.063645 0.543236 -0.156502
C79   C     C_R   0.299145 0.530422 0.534209 0.030829
C80   C     C_R   0.686928 0.563087 0.470245 0.022508
C81   C     C_R   0.799156 0.030445 0.534202 0.030760
C82   C     C_R   0.186921 0.063109 0.470253 0.021733
C83   C     C_R   0.250883 0.607977 0.567785 -0.004619
C84   C     C_3   0.036220 0.239134 0.970078 -0.119736
C85   C     C_R   0.747248 0.584581 0.426718 0.008804
C86   C     C_R   0.750891 0.107995 0.567778 -0.004920
C87   C     C_R   0.247241 0.084606 0.426726 0.007919
C88   C     C_R   0.260818 0.637395 0.851832 0.544679
C89   C     C_R   0.738448 0.640703 0.146789 0.543496
C90   C     C_R   0.761400 0.140684 0.853075 0.544888
C91   C     C_R   0.226647 0.183455 0.140913 0.554096
C92   C     C_R   0.273216 0.043173 0.645164 0.561711
C93   C     C_R   0.729461 0.047263 0.352570 0.548254
C94   C     C_R   0.773220 0.543165 0.645160 0.562428
C95   C     C_3   0.978623 0.221061 0.026934 -0.112877
C96   C     C_R   0.229459 0.547257 0.352572 0.552537
C97   C     C_R   0.469755 0.823638 0.646960 0.532731
C98   C     C_R   0.533076 0.822561 0.354314 0.543308
C99   C     C_R   0.969757 0.323639 0.646960 0.532757
C100  C     C_R   0.033075 0.322561 0.354314 0.543504
C101  C     C_R   0.260466 0.640632 0.642117 0.542277
C102  C     C_R   0.738762 0.636749 0.356594 0.550813
C103  C     C_R   0.760469 0.140638 0.642114 0.543283
C104  C     C_R   0.238759 0.136759 0.356598 0.558501
C105  C     C_3   0.463263 0.918729 0.029950 -0.123497
C106  C     C_R   0.308394 0.550230 0.963709 -0.150398
C107  C     C_3   0.520846 0.937600 0.972607 -0.117333
C108  C     C_3   0.961997 0.418794 0.030507 -0.125424
C109  C     C_3   0.019496 0.436903 0.973021 -0.119489
C110  C     C_3   0.432545 0.811159 0.986868 -0.109302
C111  C     C_3   0.569039 0.847573 0.012404 -0.107289
C112  C     C_3   0.930766 0.311424 0.987536 -0.105707
C113  C     C_3   0.067486 0.346474 0.012677 -0.112932
C114  C     C_3   0.490659 0.829682 0.930768 0.052135
C115  C     C_3   0.510895 0.828505 0.068433 0.053533
C116  C     C_3   0.988890 0.329285 0.931381 0.055869
Cr1   Cr    Cr6+3 0.229630 0.835900 0.747350 1.000395
Cr2   Cr    Cr6+3 0.614200 0.677120 0.250660 1.050326
Cr3   Cr    Cr6+3 0.885800 0.177120 0.749340 1.062518
Cr4   Cr    Cr6+3 0.114200 0.177120 0.250660 1.048021
Cr5   Cr    Cr6+3 0.770370 0.835900 0.252650 0.997055
Cr6   Cr    Cr6+3 0.729630 0.335900 0.747350 0.998691
Cr7   Cr    Cr6+3 0.270370 0.335900 0.252650 0.995258
Cr8   Cr    Cr6+3 0.387410 0.989850 0.750850 1.010090
Cr9   Cr    Cr6+3 0.612590 0.989850 0.249150 0.995824
Cr10  Cr    Cr6+3 0.887410 0.489850 0.750850 1.008175
Cr11  Cr    Cr6+3 0.112590 0.489850 0.249150 0.988902
Cr12  Cr    Cr6+3 0.385800 0.677120 0.749340 1.060884
H1    H     H_    0.375931 0.796490 0.975065 0.126266
H2    H     H_    0.650585 0.554140 0.578148 0.140216
H3    H     H_    0.831307 0.953368 0.436015 0.140702
H4    H     H_    0.150579 0.054145 0.578157 0.140238
H5    H     H_    0.432005 0.990982 0.055713 0.125271
H6    H     H_    0.538142 0.025687 0.949445 0.118852
H7    H     H_    0.931111 0.491485 0.056309 0.118099
H8    H     H_    0.036156 0.524887 0.949453 0.107555
H9    H     H_    0.569500 0.667568 0.943860 0.122699
H10   H     H_    0.463353 0.632734 0.048963 0.116257
H11   H     H_    0.066746 0.166404 0.943989 0.124506
H12   H     H_    0.625627 0.862733 0.024267 0.127283
H13   H     H_    0.960996 0.132908 0.049779 0.120787
H14   H     H_    0.358569 0.532419 0.938890 0.133522
H15   H     H_    0.657154 0.484398 0.067330 0.123966
H16   H     H_    0.843500 0.988655 0.933188 0.125788
H17   H     H_    0.148493 0.017477 0.064185 0.138644
H18   H     H_    0.346794 0.504793 0.067455 0.114189
H19   H     H_    0.666296 0.453358 0.938738 0.121424
H20   H     H_    0.834647 0.958512 0.061915 0.121069
H21   H     H_    0.166038 0.961256 0.940131 0.129839
H22   H     H_    0.131527 0.627250 0.053275 0.142153
H23   H     H_    0.874101 0.297012 0.975815 0.126628
H24   H     H_    0.839280 0.710985 0.931408 0.133209
H25   H     H_    0.659360 0.206359 0.067549 0.135285
H26   H     H_    0.329054 0.235858 0.922353 0.135924
H27   H     H_    0.142384 0.649960 0.928110 0.126776
H28   H     H_    0.833971 0.734000 0.056968 0.130168
H29   H     H_    0.664256 0.227847 0.942084 0.131254
H30   H     H_    0.314302 0.286096 0.046473 0.129440
H31   H     H_    0.389217 0.741432 0.543509 0.137826
H32   H     H_    0.415323 0.736834 0.416348 0.111875
H33   H     H_    0.889206 0.241476 0.543508 0.137655
H34   H     H_    0.124197 0.360147 0.024290 0.119619
H35   H     H_    0.915311 0.236875 0.416345 0.110982
H36   H     H_    0.614318 0.915948 0.457115 0.130556
H37   H     H_    0.588081 0.919134 0.585230 0.114502
H38   H     H_    0.114328 0.415907 0.457115 0.130334
H39   H     H_    0.088094 0.419090 0.585231 0.114266
H40   H     H_    0.998850 0.782309 0.599245 0.140466
H41   H     H_    0.044908 0.921829 0.577992 0.213511
H42   H     H_    0.979796 0.863119 0.517674 0.199579
H43   H     H_    0.087298 0.809399 0.464918 0.208893
H44   H     H_    0.058993 0.670536 0.508028 0.169227
H45   H     H_    0.177413 0.732706 0.420137 0.160272
H46   H     H_    0.118978 0.697470 0.604200 0.189296
H47   H     H_    0.162235 0.838918 0.575736 0.189854
H48   H     H_    0.056790 0.612100 0.397896 0.191382
H49   H     H_    0.989673 0.608632 0.331335 0.178176
H50   H     H_    0.005615 0.745757 0.379032 0.133897
H51   H     H_    0.952095 0.668937 0.487511 0.163444
H52   H     H_    0.956945 0.515989 0.460827 0.179249
H53   H     H_    0.876534 0.564913 0.361703 0.165983
H54   H     H_    0.877704 0.719374 0.401770 0.201749
H55   H     H_    0.498852 0.282317 0.599239 0.140569
H56   H     H_    0.873605 0.568433 0.552335 0.140657
H57   H     H_    0.544916 0.421838 0.577992 0.213506
H58   H     H_    0.479805 0.363134 0.517668 0.199600
H59   H     H_    0.587301 0.309394 0.464911 0.208847
H60   H     H_    0.558999 0.170538 0.508029 0.169283
H61   H     H_    0.618985 0.197477 0.604193 0.189512
H62   H     H_    0.662239 0.338927 0.575734 0.189735
H63   H     H_    0.556785 0.112107 0.397903 0.191195
H64   H     H_    0.489665 0.108605 0.331351 0.179020
H65   H     H_    0.505606 0.245752 0.379024 0.133687
H66   H     H_    0.452098 0.168948 0.487526 0.163446
H67   H     H_    0.677422 0.232723 0.420130 0.159541
H68   H     H_    0.456928 0.015988 0.460833 0.179268
H69   H     H_    0.376524 0.064971 0.361712 0.169011
H70   H     H_    0.377694 0.219425 0.401795 0.201368
H71   H     H_    0.369544 0.294570 0.619707 0.335828
H72   H     H_    0.549945 0.464593 0.371127 0.323807
H73   H     H_    0.869553 0.794557 0.619666 0.335842
H74   H     H_    0.049934 0.964608 0.371138 0.323916
H75   H     H_    0.373598 0.068460 0.552342 0.140711
H76   H     H_    0.331295 0.453341 0.436022 0.140586
O1    O     O_R   0.214270 0.709000 0.827470 -0.525380
O2    O     O_R   0.543270 0.717630 0.330160 -0.488560
O3    O     O_R   0.956730 0.217630 0.669840 -0.466241
O4    O     O_R   0.043270 0.217630 0.330160 -0.488025
O5    O     O_R   0.320620 0.625640 0.672920 -0.461088
O6    O     O_R   0.679380 0.625640 0.327080 -0.450665
O7    O     O_R   0.820620 0.125640 0.672920 -0.460699
O8    O     O_R   0.179380 0.125640 0.327080 -0.445787
O9    O     O_3   0.334280 0.834290 0.749180 -0.263112
O10   O     O_3   0.665720 0.834290 0.250820 -0.258086
O11   O     O_3   0.834280 0.334290 0.749180 -0.264268
O12   O     O_R   0.785730 0.709000 0.172530 -0.532996
O13   O     O_3   0.165720 0.334290 0.250820 -0.276344
O14   O     O_R   0.236160 0.958490 0.823130 -0.502887
O15   O     O_R   0.763840 0.958490 0.176870 -0.509050
O16   O     O_R   0.736160 0.458490 0.823130 -0.506541
O17   O     O_R   0.263840 0.458490 0.176870 -0.522332
O18   O     O_R   0.332080 0.075470 0.831280 -0.519962
O19   O     O_R   0.667920 0.075470 0.168720 -0.521668
O20   O     O_R   0.832080 0.575470 0.831280 -0.521304
O21   O     O_R   0.167920 0.575470 0.168720 -0.520860
O22   O     O_R   0.446300 0.918110 0.826620 -0.503360
O23   O     O_R   0.714270 0.209000 0.827470 -0.528357
O24   O     O_R   0.553700 0.918110 0.173380 -0.503666
O25   O     O_R   0.946300 0.418110 0.826620 -0.505344
O26   O     O_R   0.053700 0.418110 0.173380 -0.509695
O27   O     O_R   0.457110 0.716200 0.831760 -0.524013
O28   O     O_R   0.542890 0.716200 0.168240 -0.524701
O29   O     O_R   0.957110 0.216200 0.831760 -0.522097
O30   O     O_R   0.042890 0.216200 0.168240 -0.531150
O31   O     O_R   0.320980 0.624310 0.823030 -0.507312
O32   O     O_R   0.679020 0.624310 0.176970 -0.502418
O33   O     O_R   0.820980 0.124310 0.823030 -0.504078
O34   O     O_R   0.285730 0.209000 0.172530 -0.519740
O35   O     O_R   0.179020 0.124310 0.176970 -0.501366
O36   O     O_R   0.213890 0.710430 0.665540 -0.555212
O37   O     O_R   0.786110 0.710430 0.334460 -0.554477
O38   O     O_R   0.713890 0.210430 0.665540 -0.554229
O39   O     O_R   0.286110 0.210430 0.334460 -0.551866
O40   O     O_R   0.235810 0.959820 0.673020 -0.523503
O41   O     O_R   0.764190 0.959820 0.326980 -0.508026
O42   O     O_R   0.735810 0.459820 0.673020 -0.523097
O43   O     O_R   0.264190 0.459820 0.326980 -0.506864
O44   O     O_R   0.331700 0.076900 0.669350 -0.526650
O45   O     O_R   0.445950 0.919440 0.676520 -0.524467
O46   O     O_R   0.668300 0.076900 0.330650 -0.535695
O47   O     O_R   0.831700 0.576900 0.669350 -0.526124
O48   O     O_R   0.168300 0.576900 0.330650 -0.532423
O49   O     O_2   0.405937 0.498345 0.591293 -0.510502
O50   O     O_R   0.331153 0.336140 0.591731 -0.708882
O51   O     O_2   0.564345 0.583626 0.476367 -0.526443
O52   O     O_R   0.601737 0.471580 0.383228 -0.702294
O53   O     O_2   0.905939 0.998352 0.591301 -0.510597
O54   O     O_R   0.831165 0.836139 0.591694 -0.708627
O55   O     O_2   0.064337 0.083641 0.476378 -0.526577
O56   O     O_R   0.554050 0.919440 0.323480 -0.531834
O57   O     O_R   0.101728 0.971598 0.383238 -0.700186
O58   O     O_R   0.945950 0.419440 0.676520 -0.524397
O59   O     O_R   0.054050 0.419440 0.323480 -0.530441
O60   O     O_R   0.456730 0.717630 0.669840 -0.466230

loop_
_geom_bond_atom_site_label_1
_geom_bond_atom_site_label_2
_ccdc_geom_bond_type
C44   C49   A    
Cr4   O8    S    
C39   C106  A    
C41   C89   S    
C55   C56   A    
C72   C93   S    
Cr3   O11   S    
C84   C113  S    
C20   C82   S    
C35   C39   A    
C88   O1    A    
C105  C110  S    
C94   O47   A    
C19   O54   S    
Cr7   O39   S    
C100  O4    A    
C9    H49   S    
C73   C110  S    
Cr6   O38   S    
C71   C94   S    
C53   C54   A    
C108  C109  S    
Cr5   O37   S    
C105  C107  S    
Cr9   O56   S    
C17   O49   D    
C80   C85   A    
Cr6   O16   S    
C110  H1    S    
C60   O26   A    
C64   C68   A    
C89   O32   A    
C28   C29   S    
Cr2   O2    S    
C35   H27   S    
C62   C114  S    
C107  H6    S    
Cr1   O1    S    
C95   C112  S    
C5    C6    S    
C57   O27   A    
Cr10  O20   S    
C12   H55   S    
C73   H10   S    
Cr6   O23   S    
C2    C41   A    
C74   C92   S    
C15   C16   S    
C46   C52   A    
C17   C79   S    
C103  O38   A    
Cr6   O11   S    
Cr10  O58   S    
C9    H48   S    
C25   H21   S    
Cr11  O48   S    
C77   H3    S    
C13   H16   S    
C37   H29   S    
C37   C42   A    
C78   C82   A    
H73   O54   S    
C78   H4    S    
C16   H65   S    
C16   H64   S    
C109  C116  S    
Cr4   O30   S    
C113  H34   S    
C21   C43   A    
C15   H66   S    
C76   H2    S    
C61   C66   A    
Cr3   O29   S    
C62   C111  S    
C22   H18   S    
Cr1   O36   S    
Cr2   O28   S    
C8    C9    S    
C79   C83   A    
C4    H47   S    
C51   O21   A    
C98   O2    A    
C9    H50   S    
C66   H45   S    
C106  H14   S    
C1    O14   A    
C23   C27   A    
Cr9   O24   S    
C84   H11   S    
C110  C114  S    
C96   O43   A    
C67   C71   A    
C81   C86   A    
C97   O60   A    
C109  C113  S    
Cr12  O9    S    
Cr6   O42   S    
Cr7   O34   S    
C47   H35   S    
C3    C60   S    
Cr12  O31   S    
Cr5   O41   S    
Cr7   O13   S    
C26   C31   A    
C84   C116  S    
C53   H36   S    
C4    H46   S    
C63   C85   A    
C109  H8    S    
C2    H15   S    
Cr5   O15   S    
C96   O48   A    
C36   C41   A    
C59   O29   A    
C45   H32   S    
C39   C88   S    
C86   C103  S    
C64   C86   A    
C13   C42   A    
C111  H12   S    
C65   C87   A    
C47   C50   A    
C63   C67   A    
Cr8   O9    S    
Cr9   O19   S    
C92   O44   A    
C48   C53   A    
C14   H69   S    
C6    H40   S    
C17   O50   S    
C10   H61   S    
C7    H53   S    
C11   H60   S    
Cr4   O4    S    
Cr5   O12   S    
C24   C28   A    
C90   O23   A    
C7    C8    S    
Cr10  O25   S    
C60   O30   A    
C99   O58   A    
C108  H7    S    
C3    C113  S    
C103  O7    A    
C67   H56   S    
C31   H22   S    
C30   C34   A    
Cr3   O33   S    
C97   O45   A    
C59   C116  S    
C101  O5    A    
C22   C106  A    
C23   H19   S    
C4    C61   S    
C46   H33   S    
Cr11  O26   S    
C33   C37   A    
C108  C112  S    
C13   C24   A    
C99   O3    A    
C1    O18   A    
C42   C90   S    
C84   C95   S    
C21   H17   S    
C20   O55   D    
Cr8   O44   S    
C70   C96   S    
C107  C114  S    
C72   C77   A    
C16   H63   S    
Cr2   O32   S    
C20   O57   S    
C62   C73   S    
C14   H70   S    
Cr9   O10   S    
C8    H52   S    
C38   H30   S    
C32   H24   S    
C100  O59   A    
C77   C81   A    
C27   C40   S    
C68   C72   A    
C12   H58   S    
C14   C15   S    
C82   C87   A    
C5    H43   S    
C112  H23   S    
Cr1   O14   S    
Cr2   O10   S    
C102  O37   A    
C10   H62   S    
Cr1   O9    S    
C94   O42   A    
Cr8   O45   S    
C7    C63   S    
Cr11  O13   S    
C93   O41   A    
H72   O52   S    
C89   O12   A    
C57   O22   A    
C40   O20   A    
C28   C33   A    
C69   H75   S    
C34   H26   S    
C10   C11   S    
C24   H20   S    
C58   C115  S    
C3    C108  S    
C31   C35   A    
Cr3   O3    S    
C15   H68   S    
C54   H37   S    
C59   O25   A    
H74   O57   S    
C32   C36   A    
C71   C76   A    
C112  C116  S    
C3    C95   S    
C58   O24   A    
C44   C45   A    
C36   H28   S    
C105  H5    S    
C6    H42   S    
C45   C48   A    
C98   O56   A    
C25   C30   A    
C29   O19   A    
C88   O31   A    
C21   C25   A    
C93   O46   A    
Cr9   O46   S    
C83   C101  S    
C7    H54   S    
C27   C32   A    
C34   C38   A    
C107  C111  S    
C105  C115  S    
Cr12  O5    S    
C10   C64   S    
C76   C80   A    
C75   H76   S    
Cr8   O18   S    
C4    C5    S    
C19   O53   D    
Cr8   O22   S    
C11   C12   S    
H71   O50   S    
C95   H13   S    
C57   C114  S    
C61   C83   A    
C18   O51   D    
Cr12  O27   S    
C104  O39   A    
C48   C98   S    
C74   C78   A    
C52   C99   S    
Cr3   O7    S    
C50   C55   A    
C73   C115  S    
Cr2   O6    S    
C18   O52   S    
C90   O33   A    
Cr7   O17   S    
C11   H59   S    
C102  O6    A    
C38   C43   A    
C26   C51   S    
Cr5   O10   S    
Cr7   O43   S    
C92   O40   A    
C8    H51   S    
C66   C70   A    
C51   O17   A    
C65   C69   A    
C12   H57   S    
C56   H39   S    
C1    C30   S    
C5    H44   S    
Cr11  O59   S    
C68   H67   S    
C33   H25   S    
Cr12  O60   S    
C62   H9    S    
C43   C91   S    
C50   C100  S    
C46   C47   A    
C58   O28   A    
Cr10  O11   S    
Cr4   O13   S    
Cr4   O35   S    
C49   C97   S    
C87   C104  S    
Cr1   O40   S    
C52   C56   A    
C29   O15   A    
C70   C75   A    
C18   C80   S    
C22   C26   A    
C91   O35   A    
C2    C23   A    
Cr11  O21   S    
C44   H31   S    
C104  O8    A    
C69   C74   A    
Cr10  O47   S    
C111  C115  S    
C55   H38   S    
C19   C81   S    
C75   C79   A    
C40   O16   A    
C85   C102  S    
C49   C54   A    
C14   C65   S    
C101  O36   A    
C6    H41   S    
C91   O34   A    
