data_mof_unit_1691.cif
_audit_creation_date              2012-12-10T17:05:15-0500
_audit_creation_method            fapswitch 2.2
_symmetry_space_group_name_H-M    P1
_symmetry_Int_Tables_number       1
_space_group_crystal_system       triclinic
_cell_length_a                    10.02886
_cell_length_b                    10.751281
_cell_length_c                    15.556959
_cell_angle_alpha                 90.084674
_cell_angle_beta                  66.993226
_cell_angle_gamma                 90.008967
_cell_volume                      1543.97496137

loop_
_atom_site_label
_atom_site_type_symbol
_atom_type_description
_atom_site_fract_x
_atom_site_fract_y
_atom_site_fract_z
_atom_type_partial_charge
C1    C     C_R   0.498982 0.737315 0.501950 0.936625
C2    C     C_R   0.715978 0.585183 0.038104 0.187174
C3    C     C_R   0.579403 0.531127 0.090251 0.095712
C4    C     C_R   0.407926 0.501263 0.676650 0.869063
C5    C     C_R   0.817222 0.602468 0.079046 -0.209478
C6    C     C_R   0.782163 0.568883 0.172000 -0.208627
C7    C     C_R   0.553987 0.486141 0.179260 -0.241910
C8    C     C_2   0.611681 0.066939 0.501377 -0.153527
C9    C     C_2   0.506811 0.131198 0.488885 -0.333000
C10   C     C_2   0.614846 0.933063 0.495898 -0.157250
C11   C     C_2   0.494063 0.868860 0.510351 -0.331442
C12   C     C_R   0.407289 0.530215 0.916736 0.099755
C13   C     C_2   0.111666 0.439362 0.439234 -0.113682
C14   C     C_2   0.959911 0.434487 0.442103 -0.139368
C15   C     C_R   0.501333 0.262690 0.497896 0.940341
C16   C     C_R   0.591185 0.500160 0.323901 0.866506
C17   C     C_R   0.347261 0.506341 0.779633 -0.160371
C18   C     C_R   0.648257 0.512997 0.222646 -0.057789
C19   C     C_R   0.163667 0.467937 0.934280 -0.196698
C20   C     C_R   0.201652 0.476402 0.837757 -0.010524
C21   C     C_R   0.445433 0.535721 0.820433 -0.249728
C22   C     C_2   0.086498 0.452897 0.802036 0.382496
C23   C     C_R   0.264858 0.492418 0.973527 0.129295
C24   C     C_R   0.509717 0.553848 0.957269 0.073224
C25   C     C_R   0.471882 0.524017 0.052562 0.070206
C26   C     C_R   0.326381 0.492429 0.108167 -0.219078
C27   C     C_R   0.224647 0.478215 0.069168 -0.230771
C28   C     C_R   0.647916 0.606753 0.906365 -0.208303
C29   C     C_R   0.748217 0.623377 0.946769 -0.186313
H1    H     H_    0.114622 0.452960 0.113942 0.147644
H2    H     H_    0.871375 0.560141 0.543508 0.163055
H3    H     H_    0.458410 0.432523 0.217920 0.143295
H4    H     H_    0.856664 0.590461 0.204915 0.157226
H5    H     H_    0.851800 0.665908 0.906102 0.137234
H6    H     H_    0.054434 0.441022 0.979361 0.182437
H7    H     H_    0.555099 0.556851 0.774851 0.165997
H8    H     H_    0.286348 0.481740 0.182934 0.143937
H9    H     H_    0.680188 0.641187 0.836123 0.138048
H10   H     H_    0.085499 0.500570 0.741156 0.090482
H11   H     H_    0.920735 0.646325 0.040412 0.140872
H12   H     H_    0.698121 0.112633 0.515013 0.177048
H13   H     H_    0.424678 0.088519 0.469440 0.151735
H14   H     H_    0.718163 0.887281 0.480888 0.172919
H15   H     H_    0.388209 0.911604 0.530941 0.152620
H16   H     H_    0.194651 0.388120 0.383863 0.152648
H17   H     H_    0.069326 0.542297 0.554202 0.152645
H18   H     H_    0.940542 0.374395 0.392102 0.154692
N1    N     N_2   0.148330 0.498670 0.499030 -0.188086
N2    N     N_2   0.852680 0.498640 0.499000 -0.188408
O1    O     O_R   0.386950 0.680940 0.500010 -0.612463
O2    O     O_R   0.613110 0.680900 0.499990 -0.614308
O3    O     O_R   0.322330 0.500030 0.632270 -0.636049
O4    O     O_R   0.548480 0.499990 0.632240 -0.602026
O5    O     O_R   0.386890 0.319100 0.500010 -0.609077
O6    O     O_R   0.613050 0.319060 0.499990 -0.606162
O7    O     O_R   0.451520 0.500010 0.367760 -0.611486
O8    O     O_R   0.677670 0.499970 0.367730 -0.614232
O9    O     O_2   0.986651 0.382032 0.843044 -0.565025
Zn1   Zn    Zn3+2 0.349000 0.500030 0.500020 0.938675
Zn2   Zn    Zn3+2 0.651000 0.499970 0.499980 0.941572

loop_
_geom_bond_atom_site_label_1
_geom_bond_atom_site_label_2
_ccdc_geom_bond_type
C22   O9    D    
C13   N1    D    
C19   C23   A    
C16   O7    A    
C26   H8    S    
C14   H18   S    
O2    Zn2   S    
O3    Zn1   S    
C23   C27   A    
C4    O4    A    
C1    O1    A    
C12   C24   A    
C19   C20   A    
C1    C11   S    
O7    Zn1   S    
C28   H9    S    
C16   O8    A    
C7    C18   A    
C2    C3    A    
C9    C15   S    
C11   H15   S    
C21   H7    S    
C19   H6    S    
C13   C14   S    
C8    H12   S    
C27   H1    S    
C13   H16   S    
C1    O2    A    
C12   C23   A    
C26   C27   A    
N2    Zn2   S    
H2    N2    S    
C2    C29   A    
C9    H13   S    
O1    Zn1   S    
C12   C21   A    
C8    C10   S    
C28   C29   A    
O4    Zn2   S    
C20   C22   S    
C4    O3    A    
C3    C7    A    
O5    Zn1   S    
C5    C6    A    
C6    C18   A    
H17   N1    S    
C14   N2    D    
C10   C11   D    
C4    C17   S    
C2    C5    A    
C15   O5    A    
C3    C25   A    
C17   C20   A    
C24   C25   A    
N1    Zn1   S    
C16   C18   S    
C5    H11   S    
O8    Zn2   S    
C7    H3    S    
C6    H4    S    
C25   C26   A    
O6    Zn2   S    
C22   H10   S    
C29   H5    S    
C17   C21   A    
C24   C28   A    
C10   H14   S    
C8    C9    D    
C15   O6    A    
