data_mof_unit_1529.cif
_audit_creation_date              2012-10-26T20:19:12-0400
_audit_creation_method            fapswitch 2.2
_symmetry_space_group_name_H-M    P1
_symmetry_Int_Tables_number       1
_space_group_crystal_system       triclinic
_cell_length_a                    15.067701
_cell_length_b                    13.008977
_cell_length_c                    11.737821
_cell_angle_alpha                 99.368371
_cell_angle_beta                  93.04445
_cell_angle_gamma                 91.788661
_cell_volume                      2265.04614525

loop_
_atom_site_label
_atom_site_type_symbol
_atom_type_description
_atom_site_fract_x
_atom_site_fract_y
_atom_site_fract_z
_atom_type_partial_charge
C1    C     C_R   0.498277 0.299392 0.478984 0.559489
C2    C     C_R   0.532979 0.874701 0.638673 -0.114341
C3    C     C_R   0.519029 0.139239 0.562148 -0.070168
C4    C     C_R   0.480357 0.860756 0.438081 -0.069744
C5    C     C_R   0.514277 0.031004 0.554106 -0.001934
C6    C     C_R   0.484618 0.969014 0.446306 -0.000647
C7    C     C_R   0.413944 0.402784 0.026193 -0.134798
C8    C     C_R   0.586089 0.597167 0.973791 -0.137833
C9    C     C_R   0.422545 0.412032 0.146827 0.045058
C10   C     C_R   0.577546 0.587854 0.853154 0.040389
C11   C     C_R   0.537656 0.542575 0.155314 0.167192
C12   C     C_R   0.501731 0.700603 0.521024 0.560446
C13   C     C_R   0.462221 0.457574 0.844698 0.168117
C14   C     C_R   0.531312 0.535589 0.032724 0.002623
C15   C     C_R   0.468646 0.464453 0.967273 0.003491
C16   C     C_R   0.328709 0.499701 0.500719 0.548581
C17   C     C_R   0.671290 0.500327 0.499281 0.550996
C18   C     C_R   0.819407 0.524356 0.603700 -0.119119
C19   C     C_R   0.180593 0.475731 0.396293 -0.122315
C20   C     C_R   0.768172 0.500808 0.498655 -0.004139
C21   C     C_R   0.231828 0.499291 0.501339 -0.004792
C22   C     C_R   0.809722 0.477144 0.394048 -0.128312
C23   C     C_R   0.036827 0.452566 0.290266 -0.119648
C24   C     C_R   0.190278 0.523053 0.605933 -0.129643
C25   C     C_R   0.902220 0.476780 0.393827 0.017642
C26   C     C_R   0.097781 0.523419 0.606153 0.017260
C27   C     C_R   0.953486 0.500329 0.499687 0.064549
C28   C     C_R   0.046514 0.499847 0.500295 0.064751
C29   C     C_R   0.911819 0.524263 0.604966 0.016404
C30   C     C_R   0.088182 0.475884 0.395019 0.015743
C31   C     C_R   0.944296 0.453005 0.289676 -0.118197
C32   C     C_R   0.055706 0.547204 0.710303 -0.119286
C33   C     C_2   0.395164 0.384603 0.776475 0.284166
C34   C     C_R   0.963174 0.547602 0.709718 -0.117787
C35   C     C_2   0.604262 0.616133 0.223604 0.284380
C36   C     C_R   0.504644 0.813874 0.533041 -0.049089
C37   C     C_R   0.495061 0.186115 0.467060 -0.049603
C38   C     C_R   0.460420 0.017106 0.349586 0.234501
C39   C     C_R   0.538365 0.982915 0.650869 0.229228
C40   C     C_R   0.466565 0.125288 0.361490 -0.114670
Cu1   Cu    Cu3+1 0.506660 0.507730 0.615930 0.987173
Cu2   Cu    Cu3+1 0.493340 0.492270 0.384070 0.988606
H1    H     H_    0.787498 0.543075 0.684753 0.131517
H2    H     H_    0.931772 0.566106 0.791093 0.120322
H3    H     H_    0.458078 0.811502 0.357992 0.234723
H4    H     H_    0.541783 0.188455 0.642073 0.232849
H5    H     H_    0.552183 0.837246 0.711540 0.165765
H6    H     H_    0.447960 0.162718 0.288390 0.167547
H7    H     H_    0.619936 0.635751 0.809640 0.135502
H8    H     H_    0.380236 0.364033 0.190327 0.127478
H9    H     H_    0.336310 0.053950 0.142399 0.342643
H10   H     H_    0.543341 0.951946 0.909556 0.378226
H11   H     H_    0.332002 0.412479 0.748703 0.090680
H12   H     H_    0.212502 0.456959 0.315247 0.128745
H13   H     H_    0.667293 0.588715 0.252488 0.093502
H14   H     H_    0.364296 0.347209 0.980167 0.139984
H15   H     H_    0.635797 0.652673 0.019798 0.144278
H16   H     H_    0.770253 0.458033 0.312961 0.122233
H17   H     H_    0.229744 0.542236 0.687011 0.120376
H18   H     H_    0.905667 0.434791 0.207893 0.122785
H19   H     H_    0.094338 0.565437 0.792084 0.121133
H20   H     H_    0.068231 0.434047 0.208893 0.118063
N1    N     N_R   0.516670 0.519360 0.790130 -0.250599
N2    N     N_R   0.483330 0.480640 0.209870 -0.249154
O1    O     O_R   0.504720 0.354460 0.582000 -0.468119
O2    O     O_2   0.341787 0.878291 0.225975 -0.296225
O3    O     O_3   0.394522 0.026923 0.119055 -0.489914
O4    O     O_2   0.658451 0.118495 0.774879 -0.245726
O5    O     O_2   0.505650 0.125056 0.835349 -0.228269
O6    O     O_3   0.601305 0.973199 0.882634 -0.481337
O7    O     O_2   0.407756 0.291379 0.757719 -0.471231
O8    O     O_2   0.591442 0.709335 0.241210 -0.470704
O9    O     O_R   0.495280 0.645540 0.418000 -0.468863
O10   O     O_R   0.493480 0.341410 0.386200 -0.512443
O11   O     O_R   0.506520 0.658590 0.613800 -0.514674
O12   O     O_R   0.375880 0.506510 0.597910 -0.528099
O13   O     O_R   0.624120 0.493490 0.402090 -0.527329
O14   O     O_R   0.364640 0.493450 0.402110 -0.511077
O15   O     O_R   0.635360 0.506550 0.597890 -0.509473
O16   O     O_2   0.494081 0.878206 0.163597 -0.198505
S1    S     S_3+6 0.421901 0.946191 0.212574 0.021210
S2    S     S_3+6 0.576371 0.053849 0.788073 0.037462

loop_
_geom_bond_atom_site_label_1
_geom_bond_atom_site_label_2
_ccdc_geom_bond_type
C25   C31   A    
C4    C36   A    
C26   C32   A    
C16   C21   S    
C27   C29   A    
C9    N2    A    
Cu1   Cu2   S    
C10   N1    A    
C1    O10   A    
C19   C21   A    
C24   C26   A    
C32   H19   S    
C37   C40   A    
C5    C6    A    
C11   C14   A    
C17   O15   A    
C17   C20   S    
C40   H6    S    
O5    S2    D    
C2    C39   A    
C23   H20   S    
C22   C25   A    
C1    O1    A    
C6    C38   A    
C12   C36   S    
C18   C20   A    
C1    C37   S    
C7    C15   A    
C12   O9    A    
C7    H14   S    
C4    H3    S    
C33   H11   S    
Cu2   O10   S    
C35   H13   S    
C23   C30   A    
C34   H2    S    
C4    C6    A    
C11   N2    A    
Cu1   O1    S    
C29   C34   A    
C23   C31   A    
C31   H18   S    
C13   C33   S    
C8    H15   S    
Cu1   O11   S    
C13   N1    A    
C17   O13   A    
C18   C29   A    
H9    O3    S    
C22   H16   S    
C19   H12   S    
C20   C22   A    
C35   O8    D    
O3    S1    S    
C13   C15   A    
C38   S1    S    
C12   O11   A    
Cu1   N1    S    
Cu2   N2    S    
C2    C36   A    
C7    C9    A    
C5    C39   A    
Cu2   O9    S    
C8    C14   A    
C16   O12   A    
C9    H8    S    
C39   S2    S    
O16   S1    D    
C3    C5    A    
Cu1   O15   S    
Cu2   O14   S    
C2    H5    S    
C25   C27   A    
C3    H4    S    
C26   C28   A    
O4    S2    D    
C28   C30   A    
C18   H1    S    
Cu1   O12   S    
C38   C40   A    
C10   H7    S    
C24   H17   S    
C11   C35   S    
C16   O14   A    
O6    S2    S    
H10   O6    S    
C33   O7    D    
C3    C37   A    
Cu2   O13   S    
C8    C10   A    
C21   C24   A    
C27   C28   A    
C14   C15   A    
C19   C30   A    
C32   C34   A    
O2    S1    D    
