data_mof_unit_3510.cif
_audit_creation_date              2012-12-11T14:49:24-0500
_audit_creation_method            fapswitch 2.2
_symmetry_space_group_name_H-M    P1
_symmetry_Int_Tables_number       1
_space_group_crystal_system       triclinic
_cell_length_a                    16.898426
_cell_length_b                    16.744164
_cell_length_c                    19.587197
_cell_angle_alpha                 117.813582
_cell_angle_beta                  63.730642
_cell_angle_gamma                 100.251228
_cell_volume                      4392.80830418

loop_
_atom_site_label
_atom_site_type_symbol
_atom_type_description
_atom_site_fract_x
_atom_site_fract_y
_atom_site_fract_z
_atom_type_partial_charge
C1    C     C_R   0.036915 0.760428 0.013919 -0.210743
C2    C     C_R   0.770845 0.441840 0.238155 -0.032515
C3    C     C_R   0.745147 0.452306 0.928641 -0.153967
C4    C     C_R   0.978654 0.762491 0.254070 0.123769
C5    C     C_R   0.261137 0.522892 0.968531 -0.133609
C6    C     C_R   0.914166 0.267181 0.836837 -0.073041
C7    C     C_R   0.167113 0.475582 0.751323 -0.142236
C8    C     C_R   0.039975 0.308327 0.062436 -0.167337
C9    C     C_R   0.969979 0.239018 0.978939 0.589606
C10   C     C_R   0.246769 0.552038 0.827589 -0.141144
C11   C     C_R   0.195949 0.442122 0.041676 -0.126476
C12   C     C_R   0.765159 0.421257 0.164112 -0.270271
C13   C     C_R   0.984675 0.344251 0.761918 -0.134492
C14   C     C_R   0.277026 0.457858 0.986142 0.092893
C15   C     C_R   0.929577 0.273264 0.763715 0.018320
C16   C     C_R   0.249413 0.504915 0.747071 0.076645
C17   C     C_R   0.016425 0.223039 0.015565 -0.143123
C18   C     C_R   0.915423 0.238049 0.632502 -0.148440
C19   C     C_R   0.889290 0.221784 0.703279 0.068353
C20   C     C_R   0.838216 0.147094 0.707036 -0.201701
C21   C     C_R   0.830527 0.079477 0.633665 0.017841
C22   C     C_R   0.879244 0.086239 0.556463 0.002800
C23   C     C_R   0.819461 0.500715 0.905821 -0.177912
C24   C     C_R   0.919762 0.167405 0.556018 -0.076884
C25   C     C_R   0.783575 0.001150 0.633910 0.578591
C26   C     C_R   0.790284 0.928165 0.556689 -0.314047
C27   C     C_R   0.849704 0.929783 0.479685 -0.040732
C28   C     C_R   0.892925 0.009955 0.479817 -0.165233
C29   C     C_R   0.953986 0.012324 0.403527 -0.269095
C30   C     C_R   0.985884 0.095471 0.401700 0.499851
C31   C     C_R   0.969166 0.173881 0.478713 0.415835
C32   C     C_R   0.868711 0.852166 0.402497 0.549075
C33   C     C_R   0.944767 0.849047 0.330398 -0.315512
C34   C     C_R   0.964112 0.675594 0.248885 -0.104283
C35   C     C_R   0.988297 0.930095 0.332034 0.626223
C36   C     C_R   0.348818 0.408579 0.604492 -0.220925
C37   C     C_R   0.323616 0.494689 0.671444 0.104227
C38   C     C_R   0.368699 0.571097 0.666938 -0.276206
C39   C     C_R   0.441384 0.562038 0.593720 0.163050
C40   C     C_R   0.469569 0.474808 0.525881 0.032648
C41   C     C_R   0.423109 0.397714 0.531346 0.074346
C42   C     C_R   0.486219 0.638599 0.587488 -0.214053
C43   C     C_R   0.559635 0.629046 0.513933 -0.217027
C44   C     C_R   0.588737 0.542826 0.447391 0.195384
C45   C     C_R   0.748852 0.433450 0.989041 0.610726
C46   C     C_R   0.544157 0.464980 0.452949 -0.031107
C47   C     C_R   0.574334 0.377706 0.385537 -0.077810
C48   C     C_R   0.528615 0.300756 0.391702 0.616745
C49   C     C_R   0.451854 0.311544 0.464331 -0.380491
C50   C     C_R   0.662550 0.533083 0.375311 -0.316798
C51   C     C_R   0.694613 0.447220 0.311198 0.103915
C52   C     C_R   0.650379 0.369800 0.313990 -0.140245
C53   C     C_R   0.680063 0.423405 0.891413 0.129144
C54   C     C_R   0.364070 0.415029 0.950878 0.079638
C55   C     C_R   0.461053 0.325318 0.953177 0.617798
C56   C     C_R   0.030797 0.752972 0.172417 -0.115381
C57   C     C_R   0.375566 0.351459 0.973798 -0.368737
C58   C     C_R   0.437809 0.441798 0.896363 -0.272691
C59   C     C_R   0.522128 0.421653 0.879953 0.130736
C60   C     C_R   0.534234 0.365103 0.910243 -0.034700
C61   C     C_R   0.617176 0.359992 0.907565 -0.184742
C62   C     C_R   0.671195 0.470521 0.851692 -0.166432
C63   C     C_R   0.593261 0.466925 0.843166 -0.177031
C64   C     C_R   0.810376 0.176693 0.142756 -0.231882
C65   C     C_R   0.951287 0.865373 0.004513 -0.095278
C66   C     C_R   0.882896 0.944326 0.965440 0.628442
C67   C     C_R   0.845917 0.490456 0.239427 0.594156
C68   C     C_R   0.931196 0.870373 0.944584 -0.424261
C69   C     C_R   0.933405 0.941372 0.083424 0.628336
C70   C     C_R   0.896382 0.021711 0.100646 -0.182557
C71   C     C_R   0.865704 0.021982 0.043832 -0.244135
C72   C     C_R   0.817278 0.098760 0.067709 0.607360
C73   C     C_R   0.847140 0.180039 0.195036 0.588058
C74   C     C_R   0.886854 0.100574 0.175430 -0.346227
C75   C     C_R   0.948996 0.692496 0.947500 0.595174
C76   C     C_R   0.979307 0.776772 0.988130 -0.027368
H1    H     H_    0.080237 0.809001 0.038470 0.168779
H2    H     H_    0.863359 0.228363 0.864212 0.154192
H3    H     H_    0.145399 0.443208 0.700472 0.098966
H4    H     H_    0.298098 0.592256 0.845214 0.094088
H5    H     H_    0.001020 0.376952 0.721423 0.086094
H6    H     H_    0.942560 0.301599 0.633982 0.146427
H7    H     H_    0.811486 0.137557 0.764027 0.159353
H8    H     H_    0.716966 0.379286 0.142661 0.182033
H9    H     H_    0.753561 0.868313 0.557385 0.187405
H10   H     H_    0.346288 0.637300 0.720037 0.128904
H11   H     H_    0.464485 0.705497 0.639285 0.137700
H12   H     H_    0.594253 0.688665 0.509389 0.141704
H13   H     H_    0.844744 0.514381 0.851235 0.178303
H14   H     H_    0.431027 0.485891 0.872836 0.126400
H15   H     H_    0.928331 0.656738 0.300007 0.173559
H16   H     H_    0.910228 0.099898 0.218394 0.211812
H17   H     H_    0.947598 0.813507 0.882689 0.210778
N1    N     N_R   0.036080 0.671900 0.995420 -0.082870
N2    N     N_R   0.954660 0.334720 0.880230 -0.049755
N3    N     N_R   0.116260 0.502360 0.832930 -0.041418
N4    N     N_R   0.012950 0.371090 0.051890 -0.065885
N5    N     N_R   0.963920 0.328100 0.004580 -0.096826
N6    N     N_R   0.165290 0.545350 0.880240 -0.038158
N7    N     N_R   0.132570 0.490700 0.051900 -0.037191
N8    N     N_R   0.996640 0.382750 0.832930 -0.044518
N9    N     N_R   0.834710 0.454650 0.119760 -0.070373
N10   N     N_R   0.867430 0.509300 0.948100 -0.074214
N11   N     N_R   0.003360 0.617250 0.167070 -0.054657
N12   N     N_R   0.825450 0.461270 0.995400 -0.099667
N13   N     N_R   0.045340 0.665280 0.119770 -0.058883
N14   N     N_R   0.883740 0.497640 0.167070 -0.097670
N15   N     N_R   0.987050 0.628910 0.948110 -0.099423
N16   N     N_R   0.174550 0.538730 0.004600 -0.042369
Ni1   Ni    Ni4+2 0.104370 0.604370 0.000010 0.197299
Ni2   Ni    Ni4+2 0.895630 0.395630 0.999990 0.237879
Ni3   Ni    Ni4+2 0.991920 0.505780 0.891500 0.211133
Ni4   Ni    Ni4+2 0.008080 0.494220 0.108500 0.246764
H18   H     H_    0.069066 0.322620 0.105945 0.133373
O1    O     O_3   0.929041 0.175878 0.929637 -0.634719
C77   C     C_3   0.985654 0.099137 0.868630 -0.126587
H19   H     H_    0.997458 0.062934 0.898716 0.143713
H20   H     H_    0.049506 0.117644 0.828256 0.093804
H21   H     H_    0.953692 0.052005 0.826503 0.188949
H22   H     H_    0.185447 0.398987 0.071617 0.092785
O2    O     O_3   0.727904 0.997946 0.709744 -0.607786
C78   C     C_3   0.767300 0.941168 0.722072 -0.242339
H23   H     H_    0.724939 0.943897 0.785467 0.182857
H24   H     H_    0.833654 0.964414 0.721040 0.133511
H25   H     H_    0.771865 0.869669 0.674425 0.131462
O3    O     O_3   0.814871 0.779072 0.398770 -0.635306
C79   C     C_3   0.752952 0.785932 0.371406 -0.317808
H26   H     H_    0.713967 0.851132 0.414129 0.151429
H27   H     H_    0.705507 0.731342 0.372995 0.164181
H28   H     H_    0.785874 0.777542 0.304965 0.143861
O4    O     O_3   0.068148 0.929106 0.266965 -0.585878
C80   C     C_3   0.136640 0.913824 0.282662 -0.307658
H29   H     H_    0.135981 0.967127 0.344278 0.125791
H30   H     H_    0.200805 0.916035 0.231964 0.172598
H31   H     H_    0.132888 0.845993 0.281050 0.148404
O5    O     O_3   0.020741 0.100559 0.324999 -0.580230
C81   C     C_3   0.110204 0.124031 0.301481 -0.017445
H32   H     H_    0.143339 0.113825 0.335129 0.063638
H33   H     H_    0.115485 0.195012 0.310717 0.123255
H34   H     H_    0.147038 0.081068 0.232769 0.153117
O6    O     O_3   0.000078 0.256011 0.477590 -0.595938
C82   C     C_3   0.079257 0.276213 0.490046 -0.289903
H35   H     H_    0.104526 0.222891 0.495186 0.106867
H36   H     H_    0.069203 0.340299 0.548185 0.158052
H37   H     H_    0.131712 0.288242 0.436802 0.156213
H38   H     H_    0.311818 0.350438 0.610554 0.125685
H39   H     H_    0.696287 0.592198 0.369044 0.127202
H40   H     H_    0.675599 0.304529 0.260900 0.171113
O7    O     O_3   0.555838 0.215705 0.324932 -0.626561
C83   C     C_3   0.604143 0.172115 0.341894 -0.274434
H41   H     H_    0.661144 0.212250 0.352621 0.172799
H42   H     H_    0.631182 0.106436 0.285887 0.169083
H43   H     H_    0.560960 0.157949 0.397116 0.141706
H44   H     H_    0.415440 0.252564 0.468513 0.157709
H45   H     H_    0.627704 0.315754 0.929072 0.220933
H46   H     H_    0.720328 0.516728 0.834415 0.121863
O8    O     O_3   0.474738 0.263166 0.975590 -0.607132
C84   C     C_3   0.427477 0.290344 0.063579 -0.249156
H47   H     H_    0.358125 0.268869 0.078544 0.142868
H48   H     H_    0.429523 0.364482 0.101754 0.111329
H49   H     H_    0.458395 0.255947 0.082819 0.174899
H50   H     H_    0.585012 0.508923 0.818023 0.120311
H51   H     H_    0.318706 0.324357 0.009633 0.140558
O9    O     O_3   0.777800 0.094054 0.016534 -0.565046
C85   C     C_3   0.725340 0.171399 0.050304 -0.093938
H52   H     H_    0.671352 0.183607 0.113529 0.110273
H53   H     H_    0.694298 0.160109 0.007228 0.170676
H54   H     H_    0.766869 0.231184 0.053351 0.153980
O10   O     O_3   0.835424 0.260213 0.267887 -0.624151
C86   C     C_3   0.908556 0.277159 0.288932 -0.155958
H55   H     H_    0.972689 0.262456 0.232289 0.126771
H56   H     H_    0.904454 0.238866 0.323814 0.154974
H57   H     H_    0.906517 0.349803 0.332284 0.177312
O11   O     O_3   0.857522 0.942126 0.906435 -0.585909
C87   C     C_3   0.787559 0.882401 0.902421 -0.168373
H58   H     H_    0.732104 0.900241 0.966146 0.128339
H59   H     H_    0.810664 0.811058 0.872996 0.129698
H60   H     H_    0.761456 0.887835 0.861848 0.149103
O12   O     O_3   0.949737 0.936484 0.144706 -0.597998
C88   C     C_3   0.871813 0.910141 0.196834 -0.243451
H61   H     H_    0.854486 0.840514 0.160685 0.117646
H62   H     H_    0.815265 0.958291 0.227360 0.125480
H63   H     H_    0.883040 0.910053 0.248296 0.176874
O13   O     O_3   0.693430 0.379893 0.025286 -0.648336
C89   C     C_3   0.619197 0.434232 0.094853 -0.362052
H64   H     H_    0.580652 0.459290 0.074680 0.156282
H65   H     H_    0.638614 0.492609 0.142543 0.151454
H66   H     H_    0.575112 0.392757 0.126490 0.183161
H67   H     H_    0.054730 0.805746 0.152983 0.189455
O14   O     O_3   0.897369 0.486729 0.276871 -0.623993
C90   C     C_3   0.851943 0.525066 0.365739 -0.295946
H68   H     H_    0.802494 0.478426 0.386162 0.184906
H69   H     H_    0.821622 0.592690 0.392247 0.156172
H70   H     H_    0.900360 0.535208 0.392810 0.170069
O15   O     O_3   0.889132 0.675070 0.912404 -0.637251
C91   C     C_3   0.804283 0.707164 0.978553 -0.329289
H71   H     H_    0.797708 0.781874 0.009647 0.147727
H72   H     H_    0.786953 0.682695 0.027337 0.141886
H73   H     H_    0.754763 0.681384 0.951036 0.174653
H74   H     H_    0.308347 0.556856 0.933510 0.091262

loop_
_geom_bond_atom_site_label_1
_geom_bond_atom_site_label_2
_ccdc_geom_bond_type
C50   H39   S    
C63   H50   S    
C66   C68   A    
C40   C41   A    
O14   C90   S    
C1    H1    S    
C73   C74   A    
C3    C23   A    
C19   C20   A    
C8    N4    A    
C2    C12   A    
C79   H27   S    
N4    N5    A    
N9    Ni2   S    
C67   O14   S    
O7    C83   S    
C87   H59   S    
C77   H19   S    
N8    Ni3   S    
C15   C19   S    
C7    N3    A    
C81   H33   S    
N1    N15   A    
C26   C27   A    
C85   H52   S    
C65   C76   S    
C86   H56   S    
C38   H10   S    
C18   C24   A    
C43   H12   S    
C22   C24   A    
O9    C85   S    
C37   C38   A    
C80   H31   S    
C54   C58   A    
C38   C39   A    
C11   C14   A    
C89   H65   S    
C86   H55   S    
C4    C33   S    
C32   O3    S    
O1    C77   S    
N3    N6    A    
C13   H5    S    
O13   C89   S    
C12   H8    S    
C18   C19   A    
O10   C86   S    
C74   H16   S    
C34   H15   S    
N14   Ni4   S    
C84   H49   S    
C33   C35   A    
C6    C15   A    
O11   C87   S    
C53   C61   A    
O8    C84   S    
C23   N10   A    
C66   C71   A    
C45   N12   A    
C80   H29   S    
C83   H43   S    
C70   C74   A    
C64   C73   A    
C23   H13   S    
C79   H26   S    
C70   C71   A    
C48   O7    S    
C39   C42   A    
C88   H63   S    
C8    H18   S    
C16   C37   S    
N12   Ni2   S    
N7    N16   A    
C52   H40   S    
C22   C28   A    
C21   C22   A    
C4    C56   A    
C84   H48   S    
C82   H37   S    
C36   C41   A    
C69   C70   A    
C91   H73   S    
C11   H22   S    
C61   H45   S    
C41   C49   A    
C44   C46   A    
C5    H74   S    
C81   H34   S    
C4    C34   A    
O2    C78   S    
C90   H68   S    
C9    O1    S    
C49   H44   S    
C91   H72   S    
C2    C67   A    
C39   C40   A    
C10   H4    S    
C87   H60   S    
O5    C81   S    
C89   H66   S    
C58   C59   A    
N6    Ni1   S    
N1    Ni1   S    
C34   N11   A    
N15   Ni3   S    
C60   C61   A    
C31   O6    S    
C40   C46   A    
C75   C76   A    
C90   H69   S    
C9    N5    A    
C12   N9    A    
C29   C30   A    
N3    Ni3   S    
C53   C62   A    
C47   C48   A    
C57   H51   S    
C55   O8    S    
C65   C68   A    
C62   C63   A    
C11   N7    A    
C50   C51   A    
C72   O9    S    
N9    N14   A    
N10   N12   A    
C59   C60   A    
C46   C47   A    
C58   H14   S    
C56   N13   A    
C5    C14   A    
C80   H30   S    
C9    C17   A    
C48   C49   A    
C14   C54   S    
C79   H28   S    
C85   H54   S    
C30   O5    S    
C13   C15   A    
C43   C44   A    
C7    C16   A    
C84   H47   S    
C83   H42   S    
C42   C43   A    
N4    Ni4   S    
O4    C80   S    
C28   C29   A    
C35   O4    S    
C78   H24   S    
C88   H61   S    
C7    H3    S    
N13   Ni1   S    
C44   C50   A    
C26   H9    S    
C21   C25   A    
C56   H67   S    
C36   C37   A    
C73   O10   S    
N5    Ni2   S    
C88   H62   S    
C27   C32   A    
C83   H41   S    
C1    C76   A    
C66   O11   S    
N7    Ni4   S    
C68   H17   S    
C91   H71   S    
C1    N1    A    
C47   C52   A    
O12   C88   S    
C25   O2    S    
C81   H32   S    
C29   C35   A    
C59   C63   A    
C8    C17   A    
C77   H21   S    
C32   C33   A    
C78   H25   S    
C55   C57   A    
N11   N13   A    
C25   C26   A    
C90   H70   S    
C3    C45   A    
C51   C52   A    
C87   H58   S    
N2    Ni2   S    
O6    C82   S    
C36   H38   S    
C3    C53   S    
C67   N14   A    
C89   H64   S    
C30   C31   A    
C5    N16   A    
O3    C79   S    
C65   C69   A    
N11   Ni4   S    
C18   H6    S    
C77   H20   S    
C82   H36   S    
C64   C72   A    
C10   N6    A    
C24   C31   A    
C6    H2    S    
C2    C51   S    
O15   C91   S    
C75   N15   A    
C71   C72   A    
C20   C21   A    
C62   H46   S    
C85   H53   S    
C6    N2    A    
C20   H7    S    
N16   Ni1   S    
C27   C28   A    
C82   H35   S    
N10   Ni3   S    
C10   C16   A    
C42   H11   S    
C78   H23   S    
C55   C60   A    
C13   N8    A    
C86   H57   S    
C69   O12   S    
N2    N8    A    
C45   O13   S    
C54   C57   A    
C75   O15   S    
