data_mof_unit_467.cif
_audit_creation_date              2012-12-11T15:35:55-0500
_audit_creation_method            fapswitch 2.2
_symmetry_space_group_name_H-M    P1
_symmetry_Int_Tables_number       1
_space_group_crystal_system       triclinic
_cell_length_a                    6.997944
_cell_length_b                    11.768861
_cell_length_c                    36.04876
_cell_angle_alpha                 90.046492
_cell_angle_beta                  91.488642
_cell_angle_gamma                 90.295748
_cell_volume                      2967.85477078

loop_
_atom_site_label
_atom_site_type_symbol
_atom_type_description
_atom_site_fract_x
_atom_site_fract_y
_atom_site_fract_z
_atom_type_partial_charge
O1    O     O_R   0.379730 0.148600 0.662710 -0.523685
O2    O     O_R   0.620270 0.851400 0.337290 -0.521558
O3    O     O_R   0.120270 0.648600 0.337290 -0.522086
O4    O     O_R   0.879730 0.351400 0.662710 -0.523564
O5    O     O_R   0.722480 0.134490 0.741330 -0.543881
O6    O     O_R   0.277520 0.865510 0.258670 -0.551911
O7    O     O_R   0.777520 0.634490 0.258670 -0.547847
O8    O     O_R   0.222480 0.365510 0.741330 -0.543854
O9    O     O_R   0.892880 0.345890 0.741600 -0.541395
O10   O     O_R   0.107120 0.654110 0.258400 -0.546746
O11   O     O_R   0.607120 0.845890 0.258400 -0.545944
O12   O     O_R   0.392880 0.154110 0.741600 -0.541576
C1    C     C_R   0.553535 0.109952 0.753843 0.665601
C2    C     C_R   0.445212 0.882075 0.244239 0.672335
C3    C     C_R   0.944413 0.617853 0.244298 0.668826
C4    C     C_R   0.054009 0.390160 0.753869 0.665636
O13   O     O_R   0.709490 0.135560 0.662990 -0.520984
O14   O     O_R   0.290510 0.864440 0.337010 -0.519829
O15   O     O_R   0.790510 0.635560 0.337010 -0.519595
O16   O     O_R   0.209490 0.364440 0.662990 -0.521207
C5    C     C_R   0.538748 0.108008 0.650819 0.803311
C6    C     C_R   0.461243 0.891912 0.349206 0.813284
C7    C     C_R   0.960691 0.608171 0.349240 0.813638
C8    C     C_R   0.039304 0.391902 0.650783 0.804193
O17   O     O_3   0.552800 0.316610 0.702160 -0.370353
O18   O     O_3   0.447200 0.683390 0.297840 -0.371499
O19   O     O_3   0.947200 0.816610 0.297840 -0.371614
O20   O     O_3   0.052800 0.183390 0.702160 -0.370412
V1    V     V_3+5 0.827630 0.234380 0.702160 1.498585
V2    V     V_3+5 0.172370 0.765620 0.297840 1.485258
V3    V     V_3+5 0.672370 0.734380 0.297840 1.491336
V4    V     V_3+5 0.327630 0.265620 0.702160 1.499537
C9    C     C_R   0.994732 0.686162 0.908716 0.540278
C10   C     C_R   0.979561 0.393779 0.074361 0.563954
C11   C     C_R   0.485447 0.106525 0.074163 0.565215
C12   C     C_R   0.495575 0.814578 0.908513 0.540092
O21   O     O_2   0.966113 0.575076 0.915971 -0.551821
O22   O     O_2   0.988309 0.506622 0.068196 -0.550917
O23   O     O_2   0.481010 0.993703 0.067680 -0.550819
O24   O     O_2   0.469974 0.925812 0.915769 -0.551894
N1    N     N_R   0.021208 0.722178 0.872796 -0.541971
N2    N     N_R   0.963339 0.353549 0.109976 -0.543569
N3    N     N_R   0.479618 0.146642 0.109978 -0.540229
N4    N     N_R   0.521684 0.778310 0.872623 -0.542269
C13   C     C_R   0.042163 0.836940 0.866017 0.538928
C14   C     C_R   0.947838 0.238876 0.116033 0.552090
C15   C     C_R   0.484954 0.261577 0.116411 0.577468
C16   C     C_R   0.541257 0.663592 0.865866 0.539825
C17   C     C_R   0.935386 0.657522 0.807765 -0.034520
C18   C     C_R   0.094974 0.406706 0.172161 -0.104606
C19   C     C_R   0.323889 0.092204 0.168283 -0.117485
C20   C     C_R   0.434323 0.842388 0.807747 -0.034361
C21   C     C_R   0.940657 0.576038 0.779276 -0.196608
C22   C     C_R   0.088196 0.468041 0.205197 -0.191272
C23   C     C_R   0.317028 0.031242 0.201334 -0.191749
C24   C     C_R   0.438589 0.924013 0.779332 -0.195285
C25   C     C_R   0.141594 0.456912 0.818010 -0.184319
C26   C     C_R   0.827361 0.578372 0.179248 -0.205429
C27   C     C_R   0.588466 0.921837 0.182301 -0.209907
C28   C     C_R   0.642883 0.043540 0.817774 -0.185055
C29   C     C_R   0.130414 0.536262 0.846864 -0.084050
C30   C     C_R   0.840377 0.519483 0.145506 -0.067085
C31   C     C_R   0.590085 0.981156 0.148494 -0.059597
C32   C     C_R   0.632775 0.964041 0.846558 -0.081457
C33   C     C_R   0.029153 0.639035 0.842425 0.325539
C34   C     C_R   0.968910 0.429069 0.142046 0.370435
C35   C     C_R   0.462162 0.070729 0.141664 0.377316
C36   C     C_R   0.529999 0.861151 0.842236 0.325599
C37   C     C_R   0.018413 0.880897 0.931827 -0.023128
C38   C     C_R   0.989508 0.199405 0.050602 -0.046817
C39   C     C_R   0.484438 0.300958 0.050336 -0.047083
C40   C     C_R   0.512863 0.619841 0.931607 -0.023463
C41   C     C_R   0.992752 0.764220 0.938493 -0.045109
C42   C     C_R   0.989641 0.317272 0.043997 -0.031137
C43   C     C_R   0.494693 0.183189 0.043846 -0.034270
C44   C     C_R   0.490300 0.736620 0.938236 -0.045372
C45   C     C_R   0.963897 0.727435 0.974809 -0.112248
C46   C     C_R   0.003401 0.355682 0.007415 -0.123639
C47   C     C_R   0.510591 0.144970 0.007310 -0.124733
C48   C     C_R   0.462093 0.773785 0.974482 -0.114086
C49   C     C_R   0.045940 0.917150 0.895296 0.003794
C50   C     C_R   0.975009 0.160670 0.087213 -0.057948
C51   C     C_R   0.470887 0.339329 0.086988 -0.058655
C52   C     C_R   0.542652 0.583574 0.895146 0.003377
C53   C     C_R   0.045286 0.475470 0.784066 -0.038952
C54   C     C_R   0.950452 0.552097 0.209483 -0.033263
C55   C     C_R   0.452619 0.947401 0.209227 -0.042554
C56   C     C_R   0.544180 0.024909 0.784041 -0.039361
H1    H     H_    0.222481 0.379667 0.822509 0.112149
H2    H     H_    0.723825 0.645887 0.181509 0.109902
H3    H     H_    0.691560 0.854882 0.187170 0.114810
H4    H     H_    0.725044 0.120899 0.822152 0.112458
H5    H     H_    0.201875 0.516515 0.872798 0.149152
H6    H     H_    0.749176 0.543886 0.122439 0.136330
H7    H     H_    0.692123 0.957819 0.128089 0.133268
H8    H     H_    0.706123 0.983762 0.872349 0.148815
H9    H     H_    0.939712 0.638517 0.980822 0.165418
H10   H     H_    0.003577 0.445685 0.001316 0.160998
H11   H     H_    0.517436 0.055027 0.001272 0.160602
H12   H     H_    0.443891 0.863097 0.980551 0.166240
C57   C     C_R   0.997674 0.001490 0.028313 0.046744
C58   C     C_R   0.034481 0.079463 0.954213 0.040713
C59   C     C_R   0.526314 0.421420 0.953995 0.039635
C60   C     C_R   0.469967 0.498756 0.027784 0.043537
C61   C     C_R   0.018806 0.159820 0.983813 0.026873
C62   C     C_R   0.993471 0.922072 0.998479 0.009705
C63   C     C_R   0.475888 0.578559 0.998057 0.011822
C64   C     C_R   0.512690 0.341011 0.983600 0.026782
C65   C     C_R   0.002242 0.120042 0.020760 0.067666
C66   C     C_R   0.015634 0.961153 0.961612 0.075474
C67   C     C_R   0.505083 0.539570 0.961340 0.074455
C68   C     C_R   0.489040 0.380514 0.020416 0.068765
C69   C     C_R   0.000396 0.966402 0.065798 -0.101194
C70   C     C_R   0.068739 0.112730 0.917259 -0.176388
C71   C     C_R   0.563133 0.388343 0.917109 -0.175977
C72   C     C_R   0.443738 0.532843 0.064949 -0.105153
C73   C     C_R   0.990389 0.044661 0.094527 -0.148416
C74   C     C_R   0.075221 0.033273 0.888564 -0.111127
C75   C     C_R   0.571234 0.467617 0.888449 -0.110928
C76   C     C_R   0.443929 0.454631 0.093753 -0.149599
O25   O     O_2   0.899945 0.200241 0.149808 -0.522779
O26   O     O_2   0.058189 0.875194 0.831059 -0.559027
O27   O     O_2   0.557977 0.625236 0.830924 -0.558754
O28   O     O_2   0.511705 0.301107 0.151299 -0.524874
C77   C     C_R   0.963866 0.804325 0.004147 -0.165769
C78   C     C_R   0.017327 0.279016 0.977954 -0.161696
C79   C     C_R   0.520394 0.221787 0.977859 -0.159709
C80   C     C_R   0.455184 0.697018 0.003710 -0.164212
H13   H     H_    0.187429 0.447716 0.227764 0.129068
H14   H     H_    0.864303 0.592089 0.753300 0.111859
H15   H     H_    0.360916 0.907771 0.753472 0.111911
H16   H     H_    0.208455 0.051777 0.221108 0.140588
H17   H     H_    0.196661 0.339773 0.170468 0.158269
H18   H     H_    0.850798 0.732950 0.802964 0.168322
H19   H     H_    0.349038 0.766625 0.803062 0.167269
H20   H     H_    0.223310 0.158565 0.163718 0.152980
H21   H     H_    0.997266 0.013708 0.122788 0.143545
H22   H     H_    0.101007 0.063783 0.860783 0.154134
H23   H     H_    0.598501 0.437111 0.860730 0.154442
H24   H     H_    0.422702 0.485414 0.121676 0.150252
H25   H     H_    0.014648 0.878756 0.073974 0.118571
H26   H     H_    0.093838 0.199881 0.909583 0.116241
H27   H     H_    0.588520 0.301452 0.909360 0.116029
H28   H     H_    0.423578 0.619736 0.073134 0.120388
H29   H     H_    0.934752 0.768769 0.030958 0.145595
H30   H     H_    0.023554 0.316201 0.950718 0.144390
H31   H     H_    0.531352 0.184385 0.950737 0.144187
H32   H     H_    0.432447 0.734417 0.030450 0.145671
C81   C     C_R   0.975869 0.530170 0.380615 -0.091295
C82   C     C_R   0.024116 0.469986 0.619434 -0.088290
C83   C     C_R   0.522434 0.030019 0.619418 -0.088411
C84   C     C_R   0.477540 0.969809 0.380636 -0.091946
C85   C     C_R   0.070719 0.347449 0.404818 -0.152235
C86   C     C_R   0.929158 0.652735 0.595267 -0.152069
C87   C     C_R   0.426592 0.846909 0.595112 -0.151900
C88   C     C_R   0.573234 0.152894 0.404982 -0.152204
C89   C     C_R   0.050885 0.421921 0.375122 -0.249244
C90   C     C_R   0.949114 0.578228 0.624955 -0.251643
C91   C     C_R   0.446610 0.921499 0.624850 -0.252036
C92   C     C_R   0.553345 0.078344 0.375235 -0.250293
C93   C     C_R   0.929239 0.566806 0.416376 0.349743
C94   C     C_R   0.070668 0.433411 0.583665 0.350139
C95   C     C_R   0.569562 0.066823 0.583702 0.349478
C96   C     C_R   0.430344 0.932932 0.416345 0.349241
C97   C     C_R   0.984344 0.499566 0.447639 0.018029
C98   C     C_R   0.015415 0.500669 0.552419 0.017382
C99   C     C_R   0.514338 0.999351 0.552408 0.017264
C100  C     C_R   0.485400 0.000386 0.447657 0.017968
C101  C     C_R   0.036454 0.384979 0.440897 0.080181
C102  C     C_R   0.963288 0.615239 0.559176 0.080424
C103  C     C_R   0.461581 0.884541 0.559068 0.080523
C104  C     C_R   0.538123 0.115217 0.441013 0.080392
C105  C     C_R   0.987772 0.539624 0.485137 0.063798
C106  C     C_R   0.011882 0.460623 0.514923 0.063729
C107  C     C_R   0.511661 0.039413 0.514952 0.063592
C108  C     C_R   0.487967 0.960309 0.485115 0.063602
C109  C     C_R   0.020777 0.344032 0.506171 -0.103304
C110  C     C_R   0.978791 0.656212 0.493896 -0.103370
C111  C     C_R   0.478490 0.843658 0.493793 -0.103450
C112  C     C_R   0.521045 0.156067 0.506282 -0.103371
C113  C     C_R   0.046627 0.307769 0.470084 -0.200481
C114  C     C_R   0.952980 0.692456 0.529991 -0.200549
C115  C     C_R   0.451680 0.807267 0.529838 -0.200355
C116  C     C_R   0.547886 0.192482 0.470244 -0.200330
H33   H     H_    0.068295 0.218049 0.464859 0.151814
H34   H     H_    0.931278 0.782168 0.535223 0.151786
H35   H     H_    0.429568 0.717445 0.535002 0.151897
H36   H     H_    0.569954 0.282312 0.465088 0.151927
H37   H     H_    0.913534 0.606456 0.652539 0.117748
H38   H     H_    0.086558 0.393650 0.347550 0.121654
H39   H     H_    0.589393 0.106784 0.347692 0.123348
H40   H     H_    0.410636 0.893115 0.652404 0.117725
H41   H     H_    0.116761 0.261140 0.399714 0.140277
H42   H     H_    0.883119 0.739035 0.600387 0.139845
H43   H     H_    0.380029 0.760408 0.600157 0.140033
H44   H     H_    0.619781 0.239408 0.399953 0.140640
H45   H     H_    0.005570 0.278710 0.526746 0.226262
H46   H     H_    0.993947 0.721553 0.473327 0.226253
H47   H     H_    0.493961 0.778416 0.473196 0.226305
H48   H     H_    0.505526 0.221288 0.526885 0.226321
Cl1   Cl    Cl    0.229974 0.317080 0.580504 -0.660036
Cl2   Cl    Cl    0.770040 0.683196 0.419502 -0.660166
Cl3   Cl    Cl    0.270474 0.815852 0.419349 -0.660346
Cl4   Cl    Cl    0.729568 0.183831 0.580658 -0.660241

loop_
_geom_bond_atom_site_label_1
_geom_bond_atom_site_label_2
_ccdc_geom_bond_type
C25   H1    S    
C26   C30   A    
C17   H18   S    
C84   C92   A    
O1    C5    A    
O13   V1    S    
O3    C7    A    
C10   N2    A    
C40   C44   A    
O15   V3    S    
C16   O27   S    
C28   C56   A    
C105  C106  A    
C102  C114  A    
C16   C52   A    
C62   C77   A    
C11   C43   A    
C18   C22   A    
C17   C33   A    
C61   C78   A    
C87   C103  A    
C112  H48   S    
C32   C36   A    
C47   H11   S    
O20   V1    S    
C88   H44   S    
O9    C4    A    
C63   C80   A    
C86   C90   A    
O10   C3    A    
N4    C36   S    
C60   C72   A    
O4    C8    A    
O11   C2    A    
C109  C113  A    
C24   C56   A    
C57   C65   A    
C31   H7    S    
C57   C69   A    
C86   C102  A    
C58   C61   A    
C59   C67   A    
C19   H20   S    
O10   V2    S    
C89   H38   S    
C47   C79   A    
C12   C44   A    
C72   H28   S    
C81   C93   A    
C48   H12   S    
C108  C111  A    
C82   C90   A    
O16   C8    A    
C69   H25   S    
C23   C55   A    
C46   H10   S    
C112  C116  A    
C14   O25   S    
C45   H9    S    
C59   C64   A    
C76   H24   S    
C15   C51   A    
C11   N3    A    
O5    C1    A    
O4    V1    S    
C20   C36   A    
O9    V1    S    
O17   V4    S    
O7    C3    A    
C110  H46   S    
C40   C67   A    
O11   V3    S    
O18   V3    S    
O8    C4    A    
C14   C50   A    
O12   V4    S    
O19   V2    S    
C116  H36   S    
C21   C53   A    
C73   H21   S    
C26   C54   A    
O20   V4    S    
O16   V4    S    
C111  C115  A    
C28   H4    S    
C97   C101  A    
C82   C94   A    
C6    C84   S    
C95   Cl4   S    
C98   C106  A    
O7    V3    S    
C30   C34   A    
C94   Cl1   S    
C87   C91   A    
O8    V4    S    
C93   Cl2   S    
C12   O24   S    
C37   C49   A    
C32   H8    S    
C90   H37   S    
C22   C54   A    
C113  H33   S    
O15   C7    A    
C7    C81   S    
N1    C33   S    
C48   C80   A    
C19   C23   A    
O19   V3    S    
C49   C74   A    
C88   C104  A    
O1    V4    S    
O13   C5    A    
C72   C76   A    
C71   C75   A    
O2    V3    S    
C83   C91   A    
C51   C76   A    
O3    V2    S    
C11   O23   S    
C31   C35   A    
C38   C42   A    
C59   C71   A    
C58   C70   A    
C38   C65   A    
C115  H35   S    
O6    C2    A    
C18   C34   A    
C37   C66   A    
C104  C116  A    
C107  C108  A    
C88   C92   A    
C95   C99   A    
C39   C68   A    
C58   C66   A    
C70   C74   A    
C37   C41   A    
C26   H2    S    
C106  C109  A    
C101  C113  A    
C40   C52   A    
C8    C82   S    
C10   C42   A    
C3    C54   S    
O14   V2    S    
C96   C100  A    
C9    C41   A    
O6    V2    S    
C98   C102  A    
C83   C95   A    
C30   H6    S    
N2    C14   A    
C4    C53   S    
C69   C73   A    
C27   H3    S    
C12   N4    A    
C43   C47   A    
C46   C78   A    
O5    V1    S    
C70   H26   S    
C45   C77   A    
C60   C68   A    
C62   C66   A    
C103  C115  A    
C57   C62   A    
C100  C108  A    
C22   H13   S    
C61   C65   A    
N1    C13   A    
C109  H45   S    
C10   O22   S    
C63   C67   A    
C91   H40   S    
C80   H32   S    
C44   C48   A    
C92   H39   S    
N3    C15   A    
C84   C96   A    
C18   H17   S    
C2    C55   S    
C29   C33   A    
C25   C29   A    
C107  C112  A    
C13   O26   S    
C110  C114  A    
C27   C31   A    
C78   H30   S    
C99   C103  A    
C28   C32   A    
C9    N1    A    
O14   C6    A    
C75   H23   S    
C77   H29   S    
O2    C6    A    
C111  H47   S    
C39   C43   A    
O17   V1    S    
C15   O28   S    
C19   C35   A    
C20   C24   A    
C105  C110  A    
C52   C75   A    
C17   C21   A    
C1    C56   S    
C114  H34   S    
C71   H27   S    
C25   C53   A    
C9    O21   S    
C94   C98   A    
C99   C107  A    
C13   C49   A    
C5    C83   S    
C64   C79   A    
C85   C89   A    
C38   C50   A    
C27   C55   A    
C24   H15   S    
C87   H43   S    
C86   H42   S    
C64   C68   A    
C100  C104  A    
C96   Cl3   S    
C85   H41   S    
O12   C1    A    
N3    C35   S    
C23   H16   S    
C42   C46   A    
C85   C101  A    
N2    C34   S    
C20   H19   S    
C41   C45   A    
C39   C51   A    
C21   H14   S    
C50   C73   A    
C81   C89   A    
C74   H22   S    
C29   H5    S    
C97   C105  A    
C60   C63   A    
C93   C97   A    
N4    C16   A    
C79   H31   S    
O18   V2    S    
