data_mof_unit_1881.cif
_audit_creation_date              2012-12-10T16:39:30-0500
_audit_creation_method            fapswitch 2.2
_symmetry_space_group_name_H-M    P1
_symmetry_Int_Tables_number       1
_space_group_crystal_system       triclinic
_cell_length_a                    16.642746
_cell_length_b                    16.863638
_cell_length_c                    16.86535
_cell_angle_alpha                 66.466542
_cell_angle_beta                  65.71995
_cell_angle_gamma                 65.725614
_cell_volume                      3779.22849413

loop_
_atom_site_label
_atom_site_type_symbol
_atom_type_description
_atom_site_fract_x
_atom_site_fract_y
_atom_site_fract_z
_atom_type_partial_charge
C1    C     C_R   0.330509 0.936101 0.462396 0.015634
C2    C     C_R   0.669487 0.063916 0.537601 0.015689
C3    C     C_R   0.018585 0.436329 0.304622 0.000718
C4    C     C_R   0.981127 0.563761 0.695481 0.000733
C5    C     C_R   0.464250 0.327421 0.940095 0.001274
C6    C     C_R   0.535759 0.672583 0.059878 0.001269
C7    C     C_R   0.535755 0.059878 0.672593 0.001301
C8    C     C_R   0.464243 0.940135 0.327404 0.001309
C9    C     C_R   0.669475 0.537585 0.063928 0.015641
C10   C     C_R   0.330531 0.462418 0.936050 0.015530
C11   C     C_R   0.981083 0.695450 0.563862 0.000724
C12   C     C_R   0.018657 0.304658 0.436211 0.000743
C13   C     C_R   0.460905 0.971144 0.459578 -0.041591
C14   C     C_R   0.539089 0.028879 0.540416 -0.041588
C15   C     C_R   0.011518 0.447276 0.447251 -0.041544
C16   C     C_R   0.987988 0.552860 0.552921 -0.041538
C17   C     C_R   0.460926 0.459597 0.971091 -0.041604
C18   C     C_R   0.539091 0.540409 0.028870 -0.041597
C19   C     C_R   0.984290 0.174274 0.430305 0.946322
C20   C     C_R   0.015586 0.825776 0.569728 0.946453
C21   C     C_R   0.179890 0.438394 0.960784 0.938387
C22   C     C_R   0.820110 0.561607 0.039213 0.938414
C23   C     C_R   0.438169 0.961963 0.179587 0.935108
C24   C     C_R   0.561831 0.038039 0.820413 0.935117
C25   C     C_R   0.561830 0.820412 0.038033 0.935099
C26   C     C_R   0.438172 0.179587 0.961963 0.935099
C27   C     C_R   0.015607 0.569715 0.825781 0.946470
C28   C     C_R   0.984349 0.430299 0.174234 0.946451
C29   C     C_R   0.820114 0.039207 0.561610 0.938429
C30   C     C_R   0.179886 0.960798 0.438388 0.938587
C31   C     C_R   0.418686 0.948858 0.416515 -0.031016
C32   C     C_R   0.581310 0.051160 0.583481 -0.031024
C33   C     C_R   0.015592 0.396293 0.396231 -0.014283
C34   C     C_R   0.984056 0.603820 0.603888 -0.014226
C35   C     C_R   0.418705 0.416538 0.948803 -0.031015
C36   C     C_R   0.581306 0.583467 0.051166 -0.031016
C37   C     C_R   0.280641 0.935337 0.410717 -0.085598
C38   C     C_R   0.719358 0.064672 0.589281 -0.085541
C39   C     C_R   0.999428 0.390478 0.261952 -0.095394
C40   C     C_R   0.000412 0.609575 0.738099 -0.095378
C41   C     C_R   0.411740 0.278808 0.937700 -0.078517
C42   C     C_R   0.588262 0.721193 0.062289 -0.078507
C43   C     C_R   0.588262 0.062292 0.721196 -0.078461
C44   C     C_R   0.411737 0.937715 0.278803 -0.078464
C45   C     C_R   0.719351 0.589276 0.064674 -0.085562
C46   C     C_R   0.280650 0.410725 0.935317 -0.085606
C47   C     C_R   0.000391 0.738085 0.609618 -0.095451
C48   C     C_R   0.999438 0.261981 0.390428 -0.095414
C49   C     C_R   0.440500 0.064304 0.708675 0.338308
C50   C     C_R   0.559496 0.935712 0.291322 0.338309
C51   C     C_R   0.960868 0.738371 0.479560 0.334990
C52   C     C_R   0.038855 0.261772 0.520519 0.335054
C53   C     C_R   0.704349 0.442767 0.072928 0.369252
C54   C     C_R   0.295661 0.557237 0.927042 0.369132
C55   C     C_R   0.295616 0.927121 0.557204 0.369161
C56   C     C_R   0.704379 0.072900 0.442791 0.369254
C57   C     C_R   0.559488 0.291323 0.935696 0.338327
C58   C     C_R   0.440523 0.708682 0.064268 0.338328
C59   C     C_R   0.038667 0.520720 0.261773 0.335062
C60   C     C_R   0.960955 0.479397 0.738376 0.334970
C61   C     C_R   0.323939 0.929992 0.322881 -0.266838
C62   C     C_R   0.676061 0.070013 0.677119 -0.266851
C63   C     C_R   0.988919 0.305841 0.305833 -0.273955
C64   C     C_R   0.010946 0.694202 0.694209 -0.273979
C65   C     C_R   0.323939 0.322875 0.929992 -0.266748
C66   C     C_R   0.676060 0.677123 0.070004 -0.266798
C67   C     C_R   0.669225 0.039001 0.403829 0.051691
C68   C     C_R   0.330768 0.961023 0.596165 0.051616
C69   C     C_R   0.981189 0.423171 0.685707 0.034973
C70   C     C_R   0.018319 0.576957 0.314474 0.034914
C71   C     C_R   0.403575 0.672191 0.029512 0.028994
C72   C     C_R   0.596444 0.327818 0.970444 0.029009
C73   C     C_R   0.596479 0.970414 0.327840 0.029032
C74   C     C_R   0.403515 0.029607 0.672155 0.029026
C75   C     C_R   0.330844 0.596218 0.960899 0.051492
C76   C     C_R   0.669175 0.403789 0.039060 0.051634
C77   C     C_R   0.018487 0.314418 0.576815 0.034886
C78   C     C_R   0.981104 0.685726 0.423316 0.034981
C79   C     C_R   0.716139 0.025351 0.317212 -0.112839
C80   C     C_R   0.283854 0.974674 0.682782 -0.112837
C81   C     C_R   0.988679 0.330507 0.724192 -0.137497
C82   C     C_R   0.010883 0.669627 0.275967 -0.137343
C83   C     C_R   0.318268 0.718945 0.011226 -0.159550
C84   C     C_R   0.681757 0.281066 0.988724 -0.159603
C85   C     C_R   0.681854 0.988614 0.281129 -0.159593
C86   C     C_R   0.318140 0.011409 0.718866 -0.159545
C87   C     C_R   0.283993 0.682870 0.974471 -0.112793
C88   C     C_R   0.716032 0.317140 0.025480 -0.112802
C89   C     C_R   0.011071 0.275855 0.669462 -0.137529
C90   C     C_R   0.988532 0.724290 0.330667 -0.137490
C91   C     C_R   0.547133 0.987411 0.412939 0.024266
C92   C     C_R   0.452860 0.012612 0.587055 0.024273
C93   C     C_R   0.006365 0.407775 0.539182 0.022712
C94   C     C_R   0.993123 0.592366 0.460993 0.022693
C95   C     C_R   0.414374 0.547196 0.982522 0.021539
C96   C     C_R   0.585645 0.452811 0.017436 0.021554
C97   C     C_R   0.585663 0.017420 0.452829 0.021560
C98   C     C_R   0.414330 0.982603 0.547164 0.021564
C99   C     C_R   0.452896 0.587075 0.012550 0.024312
C100  C     C_R   0.547124 0.412933 0.987407 0.024296
C101  C     C_R   0.993168 0.460908 0.592372 0.022703
C102  C     C_R   0.006295 0.539229 0.407818 0.022686
H1    H     H_    0.285027 0.929545 0.284947 0.208216
H2    H     H_    0.714975 0.070453 0.715054 0.208223
H3    H     H_    0.971885 0.273306 0.273332 0.219556
H4    H     H_    0.028069 0.726703 0.726682 0.219546
H5    H     H_    0.285017 0.284926 0.929578 0.208227
H6    H     H_    0.714979 0.715070 0.070428 0.208223
O1    O     O_R   0.982940 0.138950 0.510160 -0.600530
O2    O     O_R   0.017060 0.861050 0.489840 -0.600566
O3    O     O_R   0.138950 0.510160 0.982940 -0.549868
O4    O     O_R   0.861050 0.489840 0.017060 -0.549804
O5    O     O_R   0.510160 0.982940 0.138950 -0.599194
O6    O     O_R   0.489840 0.017060 0.861050 -0.599200
O7    O     O_R   0.489840 0.861050 0.017060 -0.599226
O8    O     O_R   0.510160 0.138950 0.982940 -0.599227
O9    O     O_R   0.017060 0.489840 0.861050 -0.600599
O10   O     O_R   0.982940 0.510160 0.138950 -0.600524
O11   O     O_R   0.861050 0.017060 0.489840 -0.549787
O12   O     O_R   0.138950 0.982940 0.510160 -0.549823
O13   O     O_R   0.867700 0.025880 0.612340 -0.642261
O14   O     O_R   0.132300 0.974120 0.387660 -0.642170
O15   O     O_R   0.025880 0.612340 0.867700 -0.601307
O16   O     O_R   0.974120 0.387660 0.132300 -0.601335
O17   O     O_R   0.612340 0.867700 0.025880 -0.605356
O18   O     O_R   0.387660 0.132300 0.974120 -0.605359
O19   O     O_R   0.387660 0.974120 0.132300 -0.605355
O20   O     O_R   0.612340 0.025880 0.867700 -0.605351
O21   O     O_R   0.132300 0.387660 0.974120 -0.642219
O22   O     O_R   0.867700 0.612340 0.025880 -0.642252
O23   O     O_R   0.974120 0.132300 0.387660 -0.601290
O24   O     O_R   0.025880 0.867700 0.612340 -0.601295
Zn1   Zn    Zn3+2 0.004880 0.004880 0.583590 1.082694
Zn2   Zn    Zn3+2 0.995120 0.995120 0.416410 1.082693
Zn3   Zn    Zn3+2 0.004880 0.583590 0.004880 1.082848
Zn4   Zn    Zn3+2 0.995120 0.416410 0.995120 1.082784
Zn5   Zn    Zn3+2 0.583590 0.004880 0.004880 1.071279
Zn6   Zn    Zn3+2 0.416410 0.995120 0.995120 1.071284
H7    H     H_    0.279065 0.022230 0.785112 0.183201
H8    H     H_    0.720929 0.977791 0.214883 0.183198
H9    H     H_    0.980866 0.795947 0.299694 0.180120
H10   H     H_    0.018850 0.204197 0.700385 0.180182
H11   H     H_    0.781310 0.278258 0.039761 0.189523
H12   H     H_    0.218717 0.721753 0.960185 0.189548
H13   H     H_    0.218523 0.960458 0.721632 0.189453
H14   H     H_    0.781469 0.039567 0.278362 0.189456
H15   H     H_    0.720790 0.214802 0.977939 0.183180
H16   H     H_    0.279237 0.785209 0.022009 0.183187
H17   H     H_    0.018603 0.700637 0.204311 0.180216
H18   H     H_    0.981045 0.299496 0.795818 0.180169
Cl1   Cl    Cl    0.361392 0.138522 0.776376 -0.605764
Cl2   Cl    Cl    0.638608 0.861490 0.223626 -0.605795
Cl3   Cl    Cl    0.875680 0.844571 0.462306 -0.622750
Cl4   Cl    Cl    0.124135 0.155624 0.537773 -0.622552
Cl5   Cl    Cl    0.770924 0.369104 0.148327 -0.553095
Cl6   Cl    Cl    0.229072 0.630896 0.851657 -0.553035
Cl7   Cl    Cl    0.229051 0.851700 0.630891 -0.553062
Cl8   Cl    Cl    0.770954 0.148313 0.369108 -0.553140
Cl9   Cl    Cl    0.638617 0.223649 0.861454 -0.605737
Cl10  Cl    Cl    0.361384 0.776343 0.138516 -0.605692
Cl11  Cl    Cl    0.123865 0.538161 0.155602 -0.622431
Cl12  Cl    Cl    0.875786 0.462038 0.844609 -0.622583

loop_
_geom_bond_atom_site_label_1
_geom_bond_atom_site_label_2
_ccdc_geom_bond_type
C68   C80   A    
C83   C87   A    
C24   O6    A    
C18   C96   A    
C6    C58   A    
C11   C47   A    
O22   Zn3   S    
C12   C48   A    
O23   Zn2   S    
C55   C68   A    
C75   C95   A    
C78   C90   A    
C9    C45   A    
C29   O11   A    
C77   C89   A    
C16   C101  A    
C61   H1    S    
C20   O24   A    
C21   C46   S    
C25   O7    A    
C54   Cl6   S    
C95   C99   A    
C58   C71   A    
C3    C33   A    
C52   Cl4   S    
C81   H18   S    
C96   C100  A    
C1    C31   A    
C68   C98   A    
C2    C32   A    
O12   Zn1   S    
C26   O18   A    
C74   C92   A    
C13   C98   A    
C25   O17   A    
O14   Zn2   S    
C56   Cl8   S    
C21   O3    A    
O18   Zn6   S    
C30   O14   A    
O24   Zn1   S    
C21   O21   A    
C29   O13   A    
C29   C38   S    
C10   C46   A    
C9    C36   A    
C60   Cl12  S    
C10   C35   A    
C17   C95   A    
O19   Zn6   S    
C7    C43   A    
C87   H12   S    
C63   H3    S    
C76   C88   A    
C88   H11   S    
C71   C83   A    
C1    C37   A    
C81   C89   A    
C19   O1    A    
C57   Cl9   S    
C3    C39   A    
C15   C102  A    
C13   C91   A    
O4    Zn4   S    
C10   C54   A    
C12   C52   A    
C14   C92   A    
C79   H14   S    
C62   H2    S    
C27   O9    A    
C65   H5    S    
C19   O23   A    
C4    C34   A    
O11   Zn2   S    
C49   Cl1   S    
C92   C98   A    
C20   C47   S    
C84   C88   A    
C67   C79   A    
C73   C91   A    
C46   C65   A    
C50   C73   A    
C93   C101  A    
C47   C64   A    
C27   O15   A    
C19   C48   S    
O16   Zn4   S    
C41   C65   A    
C28   C39   S    
O17   Zn5   S    
C71   C99   A    
C91   C97   A    
C23   C44   S    
C83   H16   S    
C30   C37   S    
O15   Zn3   S    
O20   Zn5   S    
C58   Cl10  S    
C4    C40   A    
C59   Cl11  S    
C23   O5    A    
O21   Zn4   S    
C2    C38   A    
O7    Zn6   S    
C27   C40   S    
C16   C34   A    
C4    C60   A    
C70   C102  A    
C26   C41   S    
C74   C86   A    
C85   H8    S    
C7    C49   A    
C72   C84   A    
C86   H7    S    
C69   C81   A    
C20   O2    A    
C75   C87   A    
C80   H13   S    
C53   Cl5   S    
C22   O4    A    
O5    Zn5   S    
O2    Zn2   S    
C53   C76   A    
C9    C53   A    
C18   C99   A    
C52   C77   A    
C8    C50   A    
C79   C85   A    
C14   C97   A    
C23   O19   A    
O8    Zn5   S    
C72   C100  A    
C84   H15   S    
C5    C41   A    
C51   Cl3   S    
C7    C32   A    
C8    C31   A    
C13   C31   A    
C11   C34   A    
C42   C66   A    
C8    C44   A    
C66   H6    S    
C48   C63   A    
C40   C64   A    
C25   C42   S    
C15   C93   A    
C37   C61   A    
C28   O16   A    
C64   H4    S    
C69   C101  A    
C44   C61   A    
C56   C67   A    
C39   C63   A    
C16   C94   A    
C82   C90   A    
C5    C57   A    
C1    C55   A    
C51   C78   A    
C73   C85   A    
C28   O10   A    
C76   C96   A    
O3    Zn3   S    
C30   O12   A    
C60   C69   A    
C78   C94   A    
C90   H9    S    
C5    C35   A    
O1    Zn1   S    
C77   C93   A    
C6    C36   A    
O6    Zn6   S    
C57   C72   A    
C70   C82   A    
C17   C100  A    
C26   O8    A    
C82   H17   S    
C11   C51   A    
C67   C97   A    
C59   C70   A    
C54   C75   A    
C50   Cl2   S    
C80   C86   A    
C55   Cl7   S    
C22   C45   S    
C14   C32   A    
C94   C102  A    
C6    C42   A    
C45   C66   A    
C24   O20   A    
C24   C43   S    
C49   C74   A    
C2    C56   A    
C17   C35   A    
O13   Zn1   S    
C12   C33   A    
O9    Zn4   S    
C18   C36   A    
C15   C33   A    
C22   O22   A    
O10   Zn3   S    
C89   H10   S    
C43   C62   A    
C38   C62   A    
C3    C59   A    
