data_mof_unit_1743.cif
_audit_creation_date              2012-12-10T20:58:07-0500
_audit_creation_method            fapswitch 2.2
_symmetry_space_group_name_H-M    P1
_symmetry_Int_Tables_number       1
_space_group_crystal_system       triclinic
_cell_length_a                    18.205905
_cell_length_b                    18.233549
_cell_length_c                    18.469167
_cell_angle_alpha                 120.225704
_cell_angle_beta                  90.050723
_cell_angle_gamma                 119.853742
_cell_volume                      4328.08000964

loop_
_atom_site_label
_atom_site_type_symbol
_atom_type_description
_atom_site_fract_x
_atom_site_fract_y
_atom_site_fract_z
_atom_type_partial_charge
C1    C     C_R   0.360416 0.220289 0.360848 0.808394
C2    C     C_3   0.800700 0.940582 0.723601 0.150729
C3    C     C_3   0.698925 0.897499 0.698918 -0.006258
C4    C     C_R   0.640918 0.780907 0.639631 0.895356
C5    C     C_3   0.800002 0.102628 0.803988 0.013054
C6    C     C_3   0.733602 0.058141 0.846618 -0.416410
C7    C     C_3   0.859662 0.060844 0.787353 0.250418
C8    C     C_3   0.679459 0.392507 0.242036 -0.592248
C9    C     C_3   0.735685 0.389903 0.178914 0.223708
C10   C     C_3   0.677784 0.528713 0.240880 0.294754
C11   C     C_3   0.801060 0.580262 0.360615 0.292158
C12   C     C_3   0.338191 0.615841 0.335586 0.318775
C13   C     C_3   0.699007 0.502193 0.302721 -0.072712
C14   C     C_3   0.800424 0.500819 0.201109 -0.058307
C15   C     C_3   0.743148 0.536349 0.186327 0.166685
C16   C     C_R   0.359140 0.500254 0.640795 0.833707
C17   C     C_3   0.860158 0.577135 0.300903 -0.387145
C18   C     C_R   0.558700 0.214318 0.485426 -0.187430
C19   C     C_R   0.487134 0.161079 0.410369 -0.203894
C20   C     C_R   0.398158 0.109597 0.409140 -0.094556
C21   C     C_R   0.381236 0.112850 0.485548 0.504554
C22   C     C_R   0.453734 0.165588 0.560399 0.529793
C23   C     C_3   0.301369 0.502092 0.302537 -0.147589
C24   C     C_R   0.542385 0.216136 0.559848 -0.309100
C25   C     C_R   0.268964 0.943551 0.271146 0.396369
C26   C     C_R   0.195384 0.892210 0.197635 -0.112080
C27   C     C_R   0.177501 0.947947 0.177442 -0.062308
C28   C     C_R   0.640879 0.500659 0.359638 0.886354
C29   C     C_R   0.235104 0.055476 0.230185 -0.240981
C30   C     C_R   0.306538 0.107835 0.305104 -0.073018
C31   C     C_R   0.323922 0.052994 0.327282 -0.111850
C32   C     C_R   0.110804 0.899848 0.030116 -0.286121
C33   C     C_R   0.037188 0.846727 0.955850 0.511462
C34   C     C_3   0.200081 0.500935 0.198910 -0.128744
C35   C     C_R   0.949982 0.789578 0.955374 -0.192299
C36   C     C_R   0.935648 0.785221 0.027716 -0.220497
C37   C     C_R   0.008101 0.838532 0.102449 0.459222
C38   C     C_R   0.097349 0.895675 0.103238 -0.009084
C39   C     C_R   0.891449 0.556508 0.531892 -0.181748
C40   C     C_R   0.641839 0.501244 0.641264 0.852263
C41   C     C_R   0.841726 0.515722 0.575496 -0.169609
C42   C     C_R   0.833108 0.579672 0.654034 0.157993
C43   C     C_R   0.874853 0.684725 0.688587 -0.035880
C44   C     C_R   0.923851 0.724977 0.644382 -0.059372
C45   C     C_3   0.143788 0.448218 0.243131 0.184409
C46   C     C_R   0.932600 0.661077 0.566393 -0.086211
C47   C     C_R   0.835724 0.534884 0.757180 -0.255996
C48   C     C_R   0.798996 0.501211 0.809311 -0.107029
C49   C     C_R   0.711045 0.471342 0.810038 -0.069449
C50   C     C_R   0.660290 0.474220 0.755614 0.383627
C51   C     C_R   0.697927 0.506172 0.701602 -0.118246
C52   C     C_R   0.358928 0.501224 0.359622 0.844325
C53   C     C_R   0.787035 0.539281 0.704344 -0.101223
C54   C     C_R   0.631606 0.339753 0.843092 -0.173369
C55   C     C_R   0.583503 0.306027 0.891285 0.325853
C56   C     C_3   0.276782 0.614850 0.276126 -0.575588
C57   C     C_R   0.569375 0.373618 0.963475 0.328091
C58   C     C_R   0.611378 0.476494 0.990863 0.449325
C59   C     C_R   0.662994 0.510176 0.943791 -0.364948
C60   C     C_R   0.671713 0.441505 0.868990 -0.002923
C61   C     C_R   0.398072 0.808510 0.731188 -0.262246
C62   C     C_R   0.376033 0.739455 0.754002 -0.158626
C63   C     C_R   0.296198 0.638948 0.701793 0.167709
C64   C     C_3   0.302656 0.445309 0.205844 -0.559277
C65   C     C_R   0.238148 0.608523 0.627227 -0.235872
C66   C     C_R   0.260172 0.677631 0.604515 -0.082090
C67   C     C_3   0.683758 0.942026 0.651227 0.221729
C68   C     C_R   0.340178 0.777749 0.655828 0.556946
C69   C     C_R   0.219019 0.562399 0.778099 -0.256564
C70   C     C_R   0.194385 0.496754 0.805057 -0.099706
C71   C     C_R   0.223257 0.430434 0.777455 -0.031957
C72   C     C_R   0.275564 0.430408 0.721742 0.437312
C73   C     C_R   0.302237 0.499663 0.697077 -0.130793
C74   C     C_R   0.272943 0.565583 0.725498 -0.062427
C75   C     C_R   0.271581 0.402870 0.882362 0.467577
C76   C     C_3   0.246243 0.447062 0.144511 0.839605
C77   C     C_R   0.261644 0.337280 0.906233 -0.288120
C78   C     C_3   0.744835 0.062811 0.712889 -0.592220
C79   C     C_R   0.187081 0.234390 0.857655 -0.168858
C80   C     C_R   0.120859 0.193989 0.784076 0.479924
C81   C     C_R   0.127909 0.259087 0.759890 0.278189
C82   C     C_R   0.204906 0.364112 0.809057 -0.062021
C83   C     C_R   0.857216 0.499878 0.142882 0.805701
C84   C     C_R   0.138558 0.499359 0.861683 0.836695
C85   C     C_R   0.857019 0.219106 0.862813 0.837496
C86   C     C_R   0.138267 0.779664 0.141425 0.890708
C87   C     C_R   0.855817 0.501036 0.863523 0.840102
C88   C     C_3   0.201509 0.440924 0.297631 0.229296
C89   C     C_3   0.676988 0.937521 0.787208 0.163882
C90   C     C_R   0.141340 0.501230 0.142445 0.829200
H1    H     H_    0.277191 0.363843 0.179041 0.188161
H2    H     H_    0.813092 0.554054 0.399236 0.140127
H3    H     H_    0.909845 0.656241 0.318119 0.230188
H4    H     H_    0.500956 0.159793 0.352851 0.154530
H5    H     H_    0.221679 0.098875 0.215118 0.171958
H6    H     H_    0.175396 0.357379 0.262599 0.134295
H7    H     H_    0.312547 0.365386 0.961860 0.221770
H8    H     H_    0.181417 0.184801 0.876483 0.201504
H9    H     H_    0.200476 0.440193 0.402883 0.330358
H10   H     H_    0.576345 0.936437 0.674111 0.340726
H11   H     H_    0.703439 0.916479 0.590698 0.212263
H12   H     H_    0.247946 0.656702 0.316355 0.227699
H13   H     H_    0.791424 0.092342 0.680445 0.181612
H14   H     H_    0.703927 0.094334 0.722845 0.231220
H15   H     H_    0.604333 0.906168 0.771099 0.116840
H16   H     H_    0.373460 0.482917 0.206575 0.234315
H17   H     H_    0.877688 0.909201 0.660427 0.364487
H18   H     H_    0.959185 0.085058 0.857396 0.362801
H19   H     H_    0.664312 0.912388 0.878425 0.343962
H20   H     H_    0.771258 0.090340 0.914372 0.233457
H21   H     H_    0.694768 0.371121 0.283948 0.224267
H22   H     H_    0.794400 0.319736 0.130355 0.327437
H23   H     H_    0.123424 0.497872 0.289948 0.162535
H24   H     H_    0.607783 0.463497 0.193227 0.128761
H25   H     H_    0.270833 0.497259 0.069115 0.359804
H26   H     H_    0.831217 0.714428 0.391493 0.413897
H27   H     H_    0.900028 0.551806 0.313740 0.189364
H28   H     H_    0.650034 0.621358 0.247245 0.383086
H29   H     H_    0.816151 0.633419 0.157331 0.344876
H30   H     H_    0.598870 0.257229 0.617178 0.142533
H31   H     H_    0.627097 0.254034 0.485825 0.156165
H32   H     H_    0.148667 0.299238 0.087040 0.358423
H33   H     H_    0.251279 0.040306 0.437716 0.338432
H34   H     H_    0.687573 0.082984 0.854895 0.154935
H35   H     H_    0.493149 0.205716 0.679829 0.320338
H36   H     H_    0.344738 0.927857 0.329987 0.346245
H37   H     H_    0.178715 0.943109 0.030486 0.152508
H38   H     H_    0.113550 0.891826 0.893262 0.334134
H39   H     H_    0.892843 0.748422 0.898670 0.169346
H40   H     H_    0.867460 0.740637 0.026026 0.168952
H41   H     H_    0.043577 0.883597 0.224957 0.338818
H42   H     H_    0.971000 0.692454 0.532481 0.156508
H43   H     H_    0.898223 0.507141 0.471411 0.150476
H44   H     H_    0.810876 0.434933 0.548820 0.129971
H45   H     H_    0.812008 0.908849 0.757427 0.193688
H46   H     H_    0.869648 0.735229 0.749764 0.142406
H47   H     H_    0.955646 0.805863 0.670976 0.152214
H48   H     H_    0.903609 0.558608 0.757646 0.196860
H49   H     H_    0.546264 0.401649 0.773153 0.356773
H50   H     H_    0.638386 0.286463 0.785273 0.172488
H51   H     H_    0.546625 0.205472 0.918301 0.327493
H52   H     H_    0.469597 0.266102 0.968069 0.339774
H53   H     H_    0.632944 0.611076 0.073922 0.340190
H54   H     H_    0.018500 0.357364 0.167400 0.340649
H55   H     H_    0.692967 0.588341 0.962794 0.174186
H56   H     H_    0.906631 0.093265 0.756409 0.167057
H57   H     H_    0.418058 0.910699 0.673799 0.346932
H58   H     H_    0.459903 0.885807 0.772271 0.119880
H59   H     H_    0.421245 0.763960 0.811943 0.148505
H60   H     H_    0.176145 0.531241 0.586595 0.156842
H61   H     H_    0.214781 0.653303 0.546851 0.172280
H62   H     H_    0.196894 0.613067 0.798840 0.190123
H63   H     H_    0.259671 0.300966 0.686795 0.343941
H64   H     H_    0.387121 0.518770 0.976714 0.360453
H65   H     H_    0.290459 0.659034 0.432548 0.384291
H66   H     H_    0.013393 0.068783 0.682186 0.389000
H67   H     H_    0.606783 0.332973 0.201499 0.185935
H68   H     H_    0.069599 0.272196 0.682161 0.337108
H69   H     H_    0.405816 0.651166 0.328734 0.163926
H70   H     H_    0.317663 0.658455 0.249348 0.222530
H71   H     H_    0.688077 0.336062 0.109261 0.109291
H72   H     H_    0.701510 0.482523 0.114852 0.089261
O1    O     O_3   0.500000 0.500000 0.500000 -0.523804
O2    O     O_R   0.113800 0.731630 0.056520 -0.652650
O3    O     O_R   0.819390 0.439310 0.886160 -0.642783
O4    O     O_R   0.383400 0.268380 0.323710 -0.652989
O5    O     O_R   0.115110 0.560720 0.179280 -0.650200
O6    O     O_R   0.941380 0.560750 0.885620 -0.647559
O7    O     O_R   0.115110 0.439270 0.057830 -0.596182
O8    O     O_R   0.942690 0.268390 0.886930 -0.606334
O9    O     O_R   0.114340 0.731630 0.178520 -0.579914
O10   O     O_R   0.820160 0.439310 0.057830 -0.676203
O11   O     O_R   0.113800 0.560730 0.885620 -0.650316
O12   O     O_R   0.383400 0.560740 0.616060 -0.658260
O13   O     O_R   0.555060 0.731630 0.615290 -0.613953
O14   O     O_R   0.383950 0.439280 0.616600 -0.551817
O15   O     O_R   0.677590 0.560710 0.444390 -0.591015
O16   O     O_R   0.556370 0.439260 0.616600 -0.569735
O17   O     O_R   0.382640 0.439290 0.322940 -0.662870
O18   O     O_R   0.678360 0.560700 0.616060 -0.670689
O19   O     O_R   0.382640 0.560750 0.444390 -0.565266
O20   O     O_3   0.193598 0.478463 0.382870 -0.782990
O21   O     O_3   0.592671 0.903061 0.621717 -0.705777
O22   O     O_3   0.824611 0.908482 0.646313 -0.768607
O23   O     O_R   0.555060 0.439270 0.322940 -0.657398
O24   O     O_3   0.910034 0.094228 0.868517 -0.725937
O25   O     O_3   0.694626 0.902462 0.833088 -0.760547
O26   O     O_3   0.784191 0.352500 0.187650 -0.748283
O27   O     O_3   0.306360 0.505865 0.116912 -0.780630
O28   O     O_3   0.826000 0.682168 0.422971 -0.694105
O29   O     O_3   0.681607 0.620374 0.290262 -0.701571
O30   O     O_3   0.799029 0.638349 0.209826 -0.694726
O31   O     O_3   0.182601 0.345108 0.068211 -0.731589
O32   O     O_3   0.295743 0.066561 0.490470 -0.689840
O33   O     O_3   0.435692 0.166817 0.633395 -0.690172
O34   O     O_R   0.383950 0.268380 0.445700 -0.630926
O35   O     O_3   0.285091 0.883990 0.284831 -0.746518
O36   O     O_3   0.048320 0.848608 0.882821 -0.779544
O37   O     O_3   0.988349 0.832703 0.172352 -0.768425
O38   O     O_3   0.575139 0.450278 0.756164 -0.710032
O39   O     O_3   0.551900 0.207464 0.865878 -0.760219
O40   O     O_3   0.514722 0.342265 0.008100 -0.761955
O41   O     O_3   0.598681 0.541572 0.062514 -0.721041
O42   O     O_3   0.065638 0.348521 0.179476 -0.766173
O43   O     O_3   0.359629 0.843461 0.631023 -0.721662
O44   O     O_3   0.304396 0.366034 0.693421 -0.693872
O45   O     O_R   0.677590 0.731610 0.615290 -0.609574
O46   O     O_3   0.346552 0.504337 0.928266 -0.736946
O47   O     O_3   0.350346 0.679605 0.426168 -0.656925
O48   O     O_3   0.051460 0.089798 0.736444 -0.792849
O49   O     O_3   0.060447 0.217143 0.687446 -0.779741
O50   O     O_3   0.997750 0.500010 0.002220 -0.503729
O51   O     O_R   0.942690 0.560750 0.179280 -0.624505
O52   O     O_R   0.114340 0.439270 0.886160 -0.649111
O53   O     O_R   0.820160 0.268410 0.886930 -0.651053
Zn1   Zn    Zn3+2 0.456040 0.586770 0.543190 1.027210
Zn2   Zn    Zn3+2 0.456820 0.413240 0.543960 1.040937
Zn3   Zn    Zn3+2 0.631110 0.586750 0.543190 1.020622
Zn4   Zn    Zn3+2 0.456040 0.413240 0.369660 0.960050
Zn5   Zn    Zn3+2 0.041710 0.413240 0.959030 1.014790
Zn6   Zn    Zn3+2 0.866640 0.413270 0.959030 0.960380
Zn7   Zn    Zn3+2 0.040930 0.586780 0.958260 0.979265
Zn8   Zn    Zn3+2 0.041710 0.586770 0.132560 1.019642

loop_
_geom_bond_atom_site_label_1
_geom_bond_atom_site_label_2
_ccdc_geom_bond_type
C25   C31   A    
C66   C68   A    
C15   O30   S    
C63   C65   A    
C34   C56   S    
C8    C13   S    
C62   H59   S    
C90   O5    A    
C27   C29   A    
C6    H20   S    
C41   C42   A    
C79   H8    S    
H53   O41   S    
C35   C36   A    
C61   C68   A    
C6    H34   S    
O15   Zn3   S    
C43   C44   A    
C9    O26   S    
C88   H6    S    
C81   C82   A    
C57   C58   A    
O3    Zn6   S    
C39   C41   A    
C54   C60   A    
H19   O25   S    
C12   C23   S    
C26   C27   A    
C37   C38   A    
C49   C60   S    
C18   C24   A    
H52   O40   S    
C32   H37   S    
H18   O24   S    
C36   C37   A    
C61   H58   S    
H51   O39   S    
C12   O47   S    
C10   C15   S    
C85   O53   A    
C42   C53   S    
C46   H42   S    
C5    C6    S    
H35   O33   S    
C27   C38   S    
C55   O39   S    
C11   C13   S    
C90   O7    A    
C18   C19   A    
C73   C74   A    
C65   H60   S    
H57   O43   S    
H10   O21   S    
H9    O20   S    
O10   Zn6   S    
C15   H72   S    
C40   O18   A    
O18   Zn3   S    
C11   H2    S    
C54   H50   S    
C2    C7    S    
C44   C46   A    
C8    C9    S    
C4    O13   A    
C57   O40   S    
H33   O32   S    
C77   H7    S    
C70   C71   A    
C76   O27   S    
C32   C38   A    
C21   O32   S    
C29   C30   A    
C70   C84   S    
C28   O15   A    
C35   H39   S    
C43   H46   S    
C10   H24   S    
C79   C80   A    
C17   H27   S    
C47   C53   A    
C7    H56   S    
C8    H67   S    
C16   O14   A    
C59   C60   A    
H54   O42   S    
C21   C22   A    
C10   O29   S    
C89   O25   S    
C14   C17   S    
C69   C70   A    
C67   C78   S    
C14   C83   S    
O11   Zn7   S    
O53   Zn6   S    
C33   O36   S    
C41   H44   S    
C83   O51   A    
C84   O52   A    
O34   Zn2   S    
O8    Zn5   S    
O50   Zn6   S    
C77   C79   A    
C24   H30   S    
C78   H14   S    
C16   C73   S    
H65   O47   S    
C1    O34   A    
C52   O19   A    
C7    O24   S    
C29   H5    S    
C50   O38   S    
H49   O38   S    
C72   C73   A    
C72   O44   S    
O50   Zn5   S    
C25   C26   A    
O16   Zn2   S    
H66   O48   S    
C86   O9    A    
C51   C53   A    
H41   O37   S    
C9    C14   S    
C34   C90   S    
C62   C63   A    
C36   H40   S    
C5    C7    S    
H28   O29   S    
C88   O20   S    
C47   C48   A    
C26   C86   S    
C83   O10   A    
C45   C88   S    
C50   C51   A    
C64   C76   S    
C48   C87   S    
C69   C74   A    
C13   C28   S    
C34   C45   S    
C2    O22   S    
C45   H23   S    
H29   O30   S    
C9    H71   S    
C75   C77   A    
O5    Zn8   S    
C12   C56   S    
C19   H4    S    
C67   O21   S    
C44   H47   S    
C40   O16   A    
O1    Zn2   S    
H36   O35   S    
C48   C49   A    
C81   O49   S    
C58   O41   S    
C49   C50   A    
O14   Zn2   S    
C39   C46   A    
C87   O6    A    
C22   C24   A    
C22   O33   S    
C8    H21   S    
C75   O46   S    
C17   H3    S    
C42   C43   A    
H32   O31   S    
C84   O11   A    
C6    C89   S    
C59   H55   S    
C67   H11   S    
C4    O45   A    
C80   O48   S    
C39   H43   S    
C16   O12   A    
H68   O49   S    
H26   O28   S    
C54   C55   A    
C23   C64   S    
O45   Zn3   S    
O23   Zn4   S    
O17   Zn4   S    
C78   H13   S    
C69   H62   S    
C3    C67   S    
C85   O8    A    
O6    Zn7   S    
C80   C81   A    
C10   C13   S    
C11   C17   S    
H22   O26   S    
O9    Zn8   S    
C75   C82   A    
C64   H16   S    
C63   C74   S    
C40   C51   S    
C2    H45   S    
C3    C89   S    
H17   O22   S    
C23   C88   S    
C11   O28   S    
O13   Zn1   S    
C71   C82   S    
C19   C20   A    
C55   C57   A    
C2    C3    S    
C58   C59   A    
C52   O17   A    
C56   H12   S    
C71   C72   A    
O50   Zn7   S    
O52   Zn5   S    
C28   O23   A    
C32   C33   A    
O51   Zn8   S    
O1    Zn1   S    
C23   C52   S    
C30   C31   A    
C1    O4    A    
C45   O42   S    
C47   H48   S    
C1    C30   S    
C33   C35   A    
O19   Zn1   S    
O12   Zn1   S    
C37   O37   S    
C12   H69   S    
C61   C62   A    
O50   Zn8   S    
H38   O36   S    
C25   O35   S    
C76   O31   S    
C87   O3    A    
C18   H31   S    
H63   O44   S    
H25   O27   S    
O1    Zn3   S    
O2    Zn7   S    
C66   H61   S    
O7    Zn5   S    
C86   O2    A    
C20   C21   A    
C56   H70   S    
C65   C66   A    
C89   H15   S    
C68   O43   S    
C14   C15   S    
C64   H1    S    
C5    C78   S    
O4    Zn4   S    
C5    C85   S    
H64   O46   S    
C3    C4    S    
C34   C76   S    
C20   C31   S    
O1    Zn4   S    
