data_mof_unit_1062.cif
_audit_creation_date              2012-12-11T15:31:38-0500
_audit_creation_method            fapswitch 2.2
_symmetry_space_group_name_H-M    P1
_symmetry_Int_Tables_number       1
_space_group_crystal_system       triclinic
_cell_length_a                    13.572183
_cell_length_b                    13.585332
_cell_length_c                    27.669319
_cell_angle_alpha                 90.477906
_cell_angle_beta                  90.078126
_cell_angle_gamma                 119.961522
_cell_volume                      4419.70589284

loop_
_atom_site_label
_atom_site_type_symbol
_atom_type_description
_atom_site_fract_x
_atom_site_fract_y
_atom_site_fract_z
_atom_type_partial_charge
C1    C     C_R   0.619547 0.898331 0.431297 0.544589
C2    C     C_R   0.072632 0.793490 0.271271 -0.104604
C3    C     C_R   0.053569 0.784396 0.221306 -0.100884
C4    C     C_R   0.599845 0.218631 0.431342 0.540115
C5    C     C_R   0.257037 0.883940 0.207424 -0.104100
C6    C     C_R   0.276103 0.893146 0.257391 -0.100613
C7    C     C_R   0.184003 0.847453 0.289432 0.041847
C8    C     C_R   0.145653 0.829092 0.189258 0.041770
C9    C     C_1   0.124004 0.813995 0.137976 -0.054982
C10   C     C_1   0.205513 0.854078 0.340693 -0.056057
C11   C     C_1   0.096776 0.794607 0.095944 -0.011047
C12   C     C_R   0.631280 0.235003 0.208686 -0.104138
C13   C     C_1   0.634700 0.865841 0.383668 -0.012485
C14   C     C_R   0.600342 0.874182 0.258342 -0.100826
C15   C     C_R   0.607900 0.862426 0.208430 -0.104142
C16   C     C_R   0.279472 0.878785 0.430557 0.540048
C17   C     C_R   0.708573 0.759653 0.222698 -0.100900
C18   C     C_R   0.701117 0.771512 0.272616 -0.104381
C19   C     C_R   0.647392 0.829271 0.290538 0.041876
C20   C     C_R   0.662465 0.805507 0.190499 0.041851
C21   C     C_1   0.675515 0.796764 0.139286 -0.055186
C22   C     C_1   0.642250 0.845968 0.341718 -0.055933
C23   C     C_R   0.620799 0.217584 0.258601 -0.100599
C24   C     C_1   0.692898 0.787072 0.097275 -0.011225
C25   C     C_R   0.642964 0.285017 0.613833 0.016743
C26   C     C_R   0.729430 0.278236 0.638734 -0.129597
C27   C     C_R   0.744853 0.302172 0.687676 -0.121864
C28   C     C_R   0.620537 0.900673 0.568949 0.541214
C29   C     C_R   0.676753 0.337021 0.711936 0.036859
C30   C     C_R   0.600408 0.357729 0.685741 -0.123620
C31   C     C_R   0.582854 0.330910 0.636819 -0.135904
C32   C     C_R   0.581584 0.311907 0.791307 -0.121423
C33   C     C_R   0.587851 0.329159 0.841020 -0.131662
C34   C     C_R   0.666479 0.310655 0.290730 0.041864
C35   C     C_R   0.791388 0.401182 0.838293 -0.125759
C36   C     C_R   0.785641 0.387244 0.788695 -0.125550
C37   C     C_R   0.681346 0.345717 0.764664 0.036479
C38   C     C_R   0.693636 0.378178 0.864428 0.023739
C39   C     C_R   0.222930 0.864163 0.614776 0.020250
C40   C     C_R   0.602155 0.223931 0.568143 0.536490
C41   C     C_R   0.252581 0.960249 0.643935 -0.175058
C42   C     C_R   0.225544 0.948195 0.692570 -0.142306
C43   C     C_R   0.167352 0.839874 0.712764 -0.010275
C44   C     C_R   0.129199 0.743262 0.683023 -0.098690
C45   C     C_R   0.687721 0.345693 0.190693 0.041848
C46   C     C_R   0.155297 0.754617 0.633906 0.252496
C47   C     C_R   0.164648 0.747029 0.790131 -0.120844
C48   C     C_R   0.138968 0.729359 0.838998 -0.129460
C49   C     C_R   0.091417 0.879496 0.839017 -0.126461
C50   C     C_R   0.116109 0.896382 0.790123 -0.119636
C51   C     C_R   0.149472 0.827881 0.765070 0.038377
C52   C     C_R   0.279113 0.881378 0.568039 0.551899
C53   C     C_R   0.098232 0.792735 0.863344 0.022697
C54   C     C_R   0.639169 0.861792 0.615477 0.019900
C55   C     C_R   0.547118 0.770057 0.638361 -0.124944
C56   C     C_1   0.694221 0.365518 0.139475 -0.055181
C57   C     C_R   0.554024 0.749758 0.686952 -0.121327
C58   C     C_R   0.653723 0.819531 0.713209 0.035198
C59   C     C_R   0.749132 0.904932 0.689337 -0.121814
C60   C     C_R   0.741764 0.926343 0.640779 -0.130472
C61   C     C_R   0.713182 0.901849 0.795980 -0.118781
C62   C     C_R   0.725175 0.888970 0.845043 -0.127202
C63   C     C_R   0.615369 0.684118 0.834879 -0.126400
C64   C     C_1   0.631475 0.264742 0.383790 -0.013512
C65   C     C_R   0.605036 0.696960 0.785727 -0.122555
C66   C     C_R   0.656869 0.805856 0.765677 0.035129
C67   C     C_1   0.650680 0.290723 0.341881 -0.056076
C68   C     C_R   0.679523 0.779964 0.864442 0.024065
C69   C     C_R   0.049260 0.761170 0.048252 0.545618
C70   C     C_R   0.714280 0.435839 0.049735 0.545368
C71   C     C_R   0.723512 0.770790 0.049524 0.545281
C72   C     C_R   0.043917 0.755758 0.910455 0.541862
C73   C     C_R   0.708439 0.429314 0.912231 0.540246
C74   C     C_R   0.717353 0.764980 0.911819 0.540576
C75   C     C_R   0.723915 0.421347 0.272753 -0.104674
C76   C     C_R   0.734505 0.438769 0.222830 -0.100831
C77   C     C_3   0.018169 0.629875 0.582946 0.010068
C78   C     C_1   0.701519 0.390922 0.097463 -0.011360
C79   C     C_3   0.975183 0.518180 0.555015 -0.247879
C80   C     C_3   0.865179 0.485741 0.527667 -0.475662
C81   C     C_1   0.232473 0.862661 0.382740 -0.013040
Cr1   Cr    Cr6+3 0.417720 0.831920 0.499820 1.038169
Cr2   Cr    Cr6+3 0.668190 0.085770 0.500360 1.011997
Cr3   Cr    Cr6+3 0.414060 0.082260 0.499840 1.019245
Cr4   Cr    Cr6+3 0.908000 0.821090 0.979770 1.024102
Cr5   Cr    Cr6+3 0.912420 0.571130 0.979880 1.022844
Cr6   Cr    Cr6+3 0.657970 0.566940 0.980940 1.025214
H1    H     H_    0.759253 0.493878 0.297187 0.102100
H2    H     H_    0.874477 0.439539 0.855363 0.135501
H3    H     H_    0.550456 0.389304 0.703499 0.100365
H4    H     H_    0.777883 0.524811 0.209260 0.098696
H5    H     H_    0.517354 0.338953 0.617888 0.125774
H6    H     H_    0.304292 0.045420 0.630137 0.145961
H7    H     H_    0.145592 0.662423 0.857035 0.126332
H8    H     H_    0.255868 0.023864 0.714878 0.115420
H9    H     H_    0.103913 0.959315 0.771477 0.102032
H10   H     H_    0.059896 0.929497 0.856854 0.131946
H11   H     H_    0.080773 0.658860 0.697989 0.116915
H12   H     H_    0.572383 0.898597 0.183946 0.103413
H13   H     H_    0.466822 0.718580 0.619744 0.143213
H14   H     H_    0.594310 0.162478 0.184246 0.103489
H15   H     H_    0.750676 0.986813 0.781519 0.106031
H16   H     H_    0.774649 0.963919 0.867337 0.123736
H17   H     H_    0.479250 0.683409 0.704481 0.105405
H18   H     H_    0.561512 0.621581 0.763126 0.101349
H19   H     H_    0.580608 0.598967 0.848895 0.134606
H20   H     H_    0.828254 0.957459 0.708591 0.102131
H21   H     H_    0.814246 0.996881 0.623830 0.125169
H22   H     H_    0.575909 0.131551 0.272152 0.098938
H23   H     H_    0.751372 0.715809 0.209184 0.098604
H24   H     H_    0.000803 0.757568 0.295606 0.101996
H25   H     H_    0.328843 0.918350 0.183081 0.103560
H26   H     H_    0.362660 0.934825 0.271057 0.098762
H27   H     H_    0.558833 0.919305 0.271847 0.098597
H28   H     H_    0.193651 0.695623 0.771652 0.106597
H29   H     H_    0.030742 0.697615 0.557072 0.128957
H30   H     H_    0.952374 0.618531 0.609956 0.128052
H31   H     H_    0.040923 0.526706 0.528791 0.181241
H32   H     H_    0.959619 0.449419 0.580685 0.165730
H33   H     H_    0.798417 0.477820 0.553092 0.148992
H34   H     H_    0.738048 0.736748 0.297097 0.102464
H35   H     H_    0.834629 0.402929 0.508828 0.162545
H36   H     H_    0.880046 0.551084 0.500325 0.145436
H37   H     H_    0.966996 0.741343 0.207634 0.098659
H38   H     H_    0.778114 0.244320 0.621648 0.130825
H39   H     H_    0.499385 0.275428 0.773593 0.102010
H40   H     H_    0.511425 0.310160 0.860631 0.124317
H41   H     H_    0.804504 0.285610 0.706902 0.101183
H42   H     H_    0.863921 0.414466 0.769084 0.100490
O1    O     O_R   0.302900 0.805360 0.446400 -0.507787
O2    O     O_R   0.638120 0.455970 0.034270 -0.504300
O3    O     O_R   0.667540 0.672320 0.030160 -0.492873
O4    O     O_R   0.522090 0.841370 0.450730 -0.494318
O5    O     O_R   0.814460 0.840990 0.926980 -0.519145
O6    O     O_R   0.001710 0.811400 0.930110 -0.503794
O7    O     O_R   0.023410 0.659800 0.926210 -0.522799
O8    O     O_R   0.806940 0.473170 0.931090 -0.506574
O9    O     O_R   0.633420 0.451310 0.927930 -0.520905
O10   O     O_R   0.663190 0.668000 0.931580 -0.503889
O11   O     O_3   0.826130 0.653050 0.980200 -0.246581
O12   O     O_R   0.657980 0.180990 0.549630 -0.509091
O13   O     O_R   0.693280 0.995650 0.447220 -0.504839
O14   O     O_R   0.657260 0.178740 0.451050 -0.498576
O15   O     O_R   0.502640 0.195380 0.446850 -0.503332
O16   O     O_R   0.319630 0.976590 0.450330 -0.493768
O17   O     O_R   0.303680 0.807790 0.552740 -0.467234
O18   O     O_R   0.522820 0.843620 0.549310 -0.504390
O19   O     O_R   0.694060 0.998080 0.553560 -0.520905
O20   O     O_3   0.121963 0.658087 0.606030 -0.558954
O21   O     O_R   0.503420 0.197810 0.553190 -0.520487
O22   O     O_R   0.320350 0.978840 0.548910 -0.517259
O23   O     O_3   0.499990 0.999990 0.500010 -0.246233
O24   O     O_R   0.819150 0.845650 0.033320 -0.504991
O25   O     O_R   0.006060 0.815720 0.028680 -0.493293
O26   O     O_R   0.028100 0.664460 0.032550 -0.504097
O27   O     O_R   0.811290 0.477490 0.029660 -0.493136

loop_
_geom_bond_atom_site_label_1
_geom_bond_atom_site_label_2
_ccdc_geom_bond_type
C25   C31   A    
C7    C10   S    
Cr2   O14   S    
C63   C65   A    
C70   C78   S    
C41   C42   A    
C2    C7    A    
Cr6   O11   S    
C75   C76   A    
C50   H9    S    
C17   H23   S    
C4    O14   A    
C80   H33   S    
Cr1   O18   S    
C39   C41   A    
C54   C60   A    
Cr3   O16   S    
C47   H28   S    
C12   C23   A    
C26   C27   A    
C69   O26   A    
C48   H7    S    
C45   C76   A    
C70   O27   A    
C36   C37   A    
Cr2   O23   S    
C77   H30   S    
C25   C40   S    
C30   C31   A    
C72   O7    A    
C27   C29   A    
C73   O9    A    
Cr3   O15   S    
C68   C74   S    
C71   O24   A    
C79   H31   S    
C33   H40   S    
C17   C20   A    
C56   C78   T    
C18   C19   A    
C32   H39   S    
Cr5   O27   S    
C70   O2    A    
C1    O13   A    
Cr5   O8    S    
C71   O3    A    
C63   C68   A    
C44   H11   S    
C61   C66   A    
C58   C66   S    
C41   H6    S    
C35   C36   A    
C45   C56   S    
C8    C9    S    
C79   H32   S    
C55   H13   S    
Cr1   O1    S    
C77   H29   S    
C16   O1    A    
C60   H21   S    
Cr5   O11   S    
C34   C75   A    
C39   C52   S    
C59   C60   A    
C40   O12   A    
C15   C20   A    
C1    O4    A    
C80   H35   S    
C65   H18   S    
Cr1   O17   S    
C44   C46   A    
C50   C51   A    
C77   C79   S    
C48   C53   A    
C23   H22   S    
C2    H24   S    
C28   O19   A    
C42   H8    S    
C64   C67   T    
C31   H5    S    
C19   C22   S    
C3    C8    A    
C77   O20   S    
Cr2   O12   S    
C28   C54   S    
C72   O6    A    
C47   C51   A    
C76   H4    S    
C58   C59   A    
C14   H27   S    
C59   H20   S    
Cr2   O19   S    
C16   O16   A    
C26   H38   S    
Cr6   O3    S    
Cr5   O26   S    
C6    H26   S    
C29   C30   A    
C5    C8    A    
C27   H41   S    
C47   C48   A    
C23   C34   A    
C35   C38   A    
C17   C18   A    
C40   O21   A    
Cr4   O24   S    
C32   C37   A    
C63   H19   S    
C9    C11   T    
Cr4   O11   S    
Cr6   O2    S    
Cr4   O6    S    
C39   C46   A    
C35   H2    S    
Cr5   O7    S    
C65   C66   A    
C55   C57   A    
C43   C44   A    
C1    C13   S    
C42   C43   A    
Cr6   O9    S    
Cr3   O23   S    
C3    H37   S    
C62   H16   S    
C57   H17   S    
C54   C55   A    
C28   O18   A    
C52   O17   A    
C14   C19   A    
C69   O25   A    
Cr6   O10   S    
C12   C45   A    
C34   C67   S    
C4    O15   A    
Cr2   O13   S    
C11   C69   S    
C6    C7    A    
C5    H25   S    
C74   O10   A    
C4    C64   S    
C10   C81   T    
C33   C38   A    
C62   C68   A    
C32   C33   A    
Cr1   O4    S    
C2    C3    A    
C25   C26   A    
C12   H14   S    
C36   H42   S    
C15   H12   S    
C43   C51   S    
C57   C58   A    
C5    C6    A    
C73   O8    A    
C52   O22   A    
C49   C53   A    
C74   O5    A    
C16   C81   S    
C13   C22   T    
C61   H15   S    
Cr4   O25   S    
C61   C62   A    
C18   H34   S    
C49   H10   S    
C79   C80   S    
Cr3   O22   S    
C75   H1    S    
C46   O20   S    
C20   C21   S    
C49   C50   A    
C21   C24   T    
C29   C37   S    
C14   C15   A    
Cr4   O5    S    
C53   C72   S    
C38   C73   S    
C30   H3    S    
Cr1   O23   S    
C24   C71   S    
C80   H36   S    
Cr3   O21   S    
