data_mof_unit_4886.cif
_audit_creation_date              2013-03-05T15:45:30-0500
_audit_creation_method            fapswitch 2.2
_symmetry_space_group_name_H-M    P1
_symmetry_Int_Tables_number       1
_space_group_crystal_system       triclinic
_cell_length_a                    20.711872
_cell_length_b                    7.128273
_cell_length_c                    20.332238
_cell_angle_alpha                 91.158501
_cell_angle_beta                  101.541658
_cell_angle_gamma                 91.423772
_cell_volume                      2939.26970846

loop_
_atom_site_label
_atom_site_type_symbol
_atom_site_description
_atom_site_fract_x
_atom_site_fract_y
_atom_site_fract_z
_atom_type_partial_charge
O1    O     O_R   0.423690 0.494470 0.435930 -0.595610
O2    O     O_R   0.576310 0.994470 0.564070 -0.588437
O3    O     O_R   0.556070 0.822310 0.435760 -0.573100
O4    O     O_R   0.443930 0.322310 0.564240 -0.573639
C1    C     C_R   0.575575 0.655625 0.420756 0.957849
C2    C     C_R   0.424522 0.155198 0.579390 0.957794
O5    O     O_R   0.422940 0.824080 0.428040 -0.591491
O6    O     O_R   0.577060 0.324080 0.571960 -0.602150
O7    O     O_R   0.442240 0.995960 0.556300 -0.585150
O8    O     O_R   0.557760 0.495960 0.443700 -0.584514
C3    C     C_R   0.398443 0.651400 0.411023 0.923703
C4    C     C_R   0.601305 0.159459 0.589917 0.925924
O9    O     O_3   0.506490 0.661310 0.542090 -0.279409
O10   O     O_3   0.493510 0.161310 0.457910 -0.275873
V1    V     V_3+5 0.498800 0.935560 0.492190 1.175482
V2    V     V_3+5 0.501200 0.435560 0.507810 1.173801
C5    C     C_R   0.839084 0.067109 0.854554 -0.129217
C6    C     C_R   0.161885 0.611197 0.142542 -0.127812
C7    C     C_R   0.660925 0.166828 0.645440 -0.128025
C8    C     C_R   0.337765 0.623250 0.357932 -0.128548
C9    C     C_R   0.751956 0.352930 0.713967 -0.237550
C10   C     C_R   0.244840 0.416184 0.305448 -0.227663
C11   C     C_R   0.698858 0.335556 0.659338 -0.149177
C12   C     C_R   0.297863 0.459940 0.358238 -0.137825
C13   C     C_R   0.678357 0.013899 0.687477 -0.286287
C14   C     C_R   0.322183 0.745166 0.303962 -0.292204
C15   C     C_R   0.731561 0.031337 0.743157 0.218484
C16   C     C_R   0.269056 0.700743 0.250150 0.214791
C17   C     C_R   0.768547 0.202497 0.756732 0.217769
C18   C     C_R   0.230261 0.534263 0.250628 0.214211
C19   C     C_R   0.821697 0.219996 0.812471 -0.286439
C20   C     C_R   0.177262 0.489584 0.196667 -0.289595
C21   C     C_R   0.801231 0.898268 0.840552 -0.150592
C22   C     C_R   0.201633 0.774931 0.142476 -0.143696
C23   C     C_R   0.748179 0.880852 0.785882 -0.236857
C24   C     C_R   0.254474 0.818947 0.195395 -0.229073
H1    H     H_    0.850375 0.350552 0.821981 0.142818
H2    H     H_    0.146858 0.364194 0.197907 0.140959
H3    H     H_    0.812817 0.777741 0.871909 0.138043
H4    H     H_    0.191337 0.871387 0.101438 0.134573
H5    H     H_    0.779814 0.484847 0.722966 0.130667
H6    H     H_    0.215702 0.288649 0.307225 0.128631
H7    H     H_    0.720355 0.748884 0.776840 0.129545
H8    H     H_    0.283564 0.946620 0.193704 0.128990
H9    H     H_    0.687278 0.456036 0.627955 0.138953
H10   H     H_    0.308236 0.363531 0.399290 0.136568
H11   H     H_    0.649651 0.883382 0.677996 0.142301
H12   H     H_    0.352630 0.870432 0.302641 0.141267
C25   C     C_3   0.241484 0.309470 0.797620 -0.533762
C26   C     C_3   0.751098 0.789837 0.194116 -0.519347
C27   C     C_3   0.259559 0.963867 0.806867 -0.395788
C28   C     C_3   0.745034 0.440405 0.198924 -0.400162
C29   C     C_3   0.307083 0.972032 0.756931 -0.467249
C30   C     C_3   0.695189 0.455114 0.246393 -0.461487
H13   H     H_    0.264900 0.333634 0.851455 0.153783
H14   H     H_    0.723826 0.777159 0.141090 0.150807
H15   H     H_    0.235906 0.821295 0.804447 0.190319
H16   H     H_    0.773233 0.309906 0.208647 0.210266
H17   H     H_    0.288093 0.987649 0.858997 0.155253
H18   H     H_    0.717590 0.429967 0.145940 0.154722
H19   H     H_    0.358959 0.981459 0.784855 0.153238
H20   H     H_    0.644024 0.448467 0.216716 0.152960
H21   H     H_    0.302879 0.838879 0.728068 0.249866
H22   H     H_    0.699200 0.333169 0.278873 0.260377
C31   C     C_1   0.379081 0.146407 0.625032 -0.230490
C32   C     C_1   0.621006 0.647294 0.375021 -0.226754
C33   C     C_3   0.206277 0.113187 0.790287 0.343101
C34   C     C_3   0.793053 0.612970 0.208832 0.334376
C35   C     C_3   0.294626 0.326514 0.751204 0.455382
C36   C     C_3   0.701698 0.811930 0.244136 0.466795
C37   C     C_3   0.291615 0.137201 0.707994 0.159757
C38   C     C_3   0.707835 0.635752 0.291260 0.150460
C39   C     C_3   0.218733 0.106799 0.666734 -0.039455
C40   C     C_3   0.781009 0.633949 0.332600 -0.023962
C41   C     C_3   0.170318 0.079609 0.716255 -0.429890
C42   C     C_3   0.830104 0.622733 0.283185 -0.412438
C43   C     C_1   0.340153 0.141241 0.662470 0.015407
C44   C     C_1   0.659637 0.641192 0.337257 0.002407
C45   C     C_1   0.158892 0.099531 0.836555 -0.047721
C46   C     C_1   0.840529 0.598922 0.162718 -0.047822
C47   C     C_1   0.120713 0.089982 0.874755 -0.281571
C48   C     C_1   0.878933 0.588947 0.124787 -0.278974
H23   H     H_    0.129234 0.178803 0.703730 0.159344
H24   H     H_    0.864125 0.748076 0.291655 0.171778
H25   H     H_    0.147525 0.935721 0.711211 0.184308
H26   H     H_    0.861411 0.497696 0.292897 0.171499
H27   H     H_    0.204048 0.238187 0.640061 0.181799
H28   H     H_    0.791131 0.768441 0.361753 0.187152
H29   H     H_    0.203525 0.417945 0.787666 0.205566
H30   H     H_    0.784043 0.915382 0.194743 0.198549
O11   O     O_R   0.942280 0.741210 0.056360 -0.582574
O12   O     O_R   0.057720 0.241210 0.943640 -0.584699
O13   O     O_R   0.077070 0.409690 0.071960 -0.590098
O14   O     O_R   0.922930 0.909690 0.928040 -0.599394
C49   C     C_R   0.101521 0.582660 0.089019 0.920926
C50   C     C_R   0.898607 0.074547 0.910211 0.921210
O15   O     O_R   0.943940 0.411580 0.064250 -0.588063
O16   O     O_R   0.056060 0.911580 0.935750 -0.588200
O17   O     O_R   0.923670 0.239840 0.935920 -0.588391
O18   O     O_R   0.076330 0.739840 0.064080 -0.594517
C51   C     C_R   0.924304 0.579832 0.078923 0.965723
C52   C     C_R   0.075624 0.080321 0.920911 0.966221
O19   O     O_3   0.993540 0.572620 0.957940 -0.281619
O20   O     O_3   0.006460 0.072620 0.042060 -0.277723
V3    V     V_3+5 0.001200 0.298330 0.007800 1.152709
V4    V     V_3+5 0.998800 0.798330 0.992200 1.152230
N1    N     N_R   0.280690 0.484655 0.704789 0.204316
O21   O     O_R   0.223109 0.560594 0.692404 -0.503663
O22   O     O_R   0.323430 0.534759 0.668904 -0.463983
N2    N     N_R   0.718658 0.982173 0.287295 0.203329
O23   O     O_R   0.777815 0.057392 0.297307 -0.518494
O24   O     O_R   0.679700 0.034098 0.326853 -0.459565
C53   C     C_3   0.209857 0.948198 0.611145 -0.332427
C54   C     C_3   0.209105 0.025619 0.540860 -0.340777
C55   C     C_3   0.209627 0.867493 0.489178 -0.858207
H31   H     H_    0.255356 0.786594 0.502762 0.267398
H32   H     H_    0.166070 0.771406 0.486449 0.260204
H33   H     H_    0.207977 0.927714 0.438937 0.243595
H34   H     H_    0.164047 0.108179 0.524956 0.205871
H35   H     H_    0.252562 0.120393 0.541589 0.214991
H36   H     H_    0.249723 0.846058 0.622429 0.261459
H37   H     H_    0.162560 0.868431 0.608368 0.209236
C56   C     C_3   0.793774 0.480130 0.386323 -0.387234
C57   C     C_3   0.858048 0.518886 0.437995 -0.308573
C58   C     C_3   0.869787 0.364563 0.489655 -0.863432
H38   H     H_    0.828701 0.356451 0.517324 0.260273
H39   H     H_    0.873761 0.226722 0.464496 0.268203
H40   H     H_    0.916445 0.396006 0.526270 0.243225
H41   H     H_    0.900663 0.526891 0.412462 0.207555
H42   H     H_    0.855363 0.655313 0.464653 0.204695
H43   H     H_    0.752833 0.471803 0.414094 0.204600
H44   H     H_    0.796430 0.342040 0.361854 0.275476
C59   C     C_3   0.364641 0.360540 0.797323 -0.473870
C60   C     C_3   0.376602 0.559778 0.828548 -0.215241
C61   C     C_3   0.436694 0.570180 0.886002 -0.955320
H45   H     H_    0.428543 0.478880 0.927396 0.263632
H46   H     H_    0.481253 0.525151 0.867987 0.269807
H47   H     H_    0.445138 0.716983 0.905799 0.252065
H48   H     H_    0.386036 0.657395 0.789613 0.226147
H49   H     H_    0.333009 0.606457 0.847883 0.194444
H50   H     H_    0.371537 0.259357 0.838839 0.189306
H51   H     H_    0.403918 0.334632 0.768457 0.199590
C62   C     C_3   0.629957 0.828360 0.201819 -0.486036
C63   C     C_3   0.618062 0.016260 0.166050 -0.215426
C64   C     C_3   0.553109 0.010350 0.114891 -0.947664
H52   H     H_    0.554348 0.903067 0.074805 0.264280
H53   H     H_    0.511343 0.976668 0.139862 0.268307
H54   H     H_    0.545143 0.149451 0.091456 0.250252
H55   H     H_    0.615532 0.128592 0.203775 0.224948
H56   H     H_    0.658780 0.052320 0.139928 0.191530
H57   H     H_    0.619386 0.713222 0.163214 0.186558
H58   H     H_    0.593096 0.812688 0.234351 0.205290

loop_
_geom_bond_atom_site_label_1
_geom_bond_atom_site_label_2
_geom_bond_distance
_ccdc_geom_bond_type
C34   C46   1.492000 S    
C61   H47   1.110567 S    
C5    C50   1.496440 S    
C11   H9    1.083243 S    
C56   H44   1.101506 S    
C15   C17   1.416655 A    
C39   C41   1.568153 S    
O1    C3    1.314251 A    
O2    C4    1.327872 A    
C42   H24   1.112838 S    
C2    O7    1.308279 A    
O20   V4    2.171595 S    
C54   C55   1.527127 S    
C35   N1    1.481506 S    
C56   C57   1.537075 S    
C10   H6    1.083871 S    
O5    C3    1.331833 A    
C59   H51   1.111074 S    
C21   H3    1.083223 S    
C6    C20   1.405723 A    
C40   C42   1.568252 S    
C22   H4    1.083381 S    
C60   H49   1.110029 S    
C55   H31   1.111212 S    
C50   O17   1.329324 A    
C39   C53   1.563417 S    
C35   C37   1.588337 S    
N2    O23   1.301262 A    
C39   H27   1.110168 S    
C63   H56   1.110587 S    
C36   N2    1.475978 S    
O13   V3    1.969021 S    
C29   H19   1.109973 S    
C26   H30   1.110116 S    
C2    C31   1.449084 S    
C53   H37   1.111317 S    
C8    C12   1.411642 A    
C28   C30   1.551874 S    
C55   H32   1.110781 S    
C58   H40   1.110382 S    
C38   C44   1.498899 S    
N1    O21   1.302374 A    
C27   H15   1.113035 S    
C20   H2    1.084159 S    
C23   H7    1.083745 S    
C13   H11   1.084254 S    
C54   H34   1.111786 S    
C28   C34   1.546571 S    
O12   C52   1.317055 A    
O15   V3    1.982511 S    
C62   H57   1.110803 S    
C40   C56   1.553229 S    
O6    V2    2.021210 S    
C25   C35   1.590755 S    
C6    C49   1.490879 S    
N1    O22   1.302618 A    
O11   V4    1.961330 S    
C5    C21   1.412150 A    
O11   C51   1.319382 A    
O17   V3    1.972639 S    
O20   V3    1.763345 S    
C64   H53   1.110904 S    
C41   H25   1.112523 S    
C64   H52   1.110821 S    
C27   H17   1.112898 S    
C47   C52   1.451790 S    
O13   C49   1.333570 A    
C32   C44   1.215677 T    
C3    C8    1.490227 S    
C31   C43   1.214945 T    
C61   H45   1.110836 S    
C33   C45   1.491997 S    
C46   C48   1.215990 T    
C60   H48   1.107474 S    
C45   C47   1.215906 T    
C49   O18   1.315619 A    
C63   C64   1.526108 S    
C30   H20   1.108982 S    
C15   C23   1.400065 A    
O16   C52   1.319620 A    
C9    C17   1.400169 A    
C26   H14   1.113308 S    
C19   H1    1.084237 S    
C27   C29   1.550025 S    
O4    V2    1.977261 S    
C7    C11   1.412142 A    
C63   H55   1.107074 S    
O6    C4    1.317470 A    
C55   H33   1.110599 S    
O15   C51   1.323309 A    
C36   C62   1.569392 S    
C57   H42   1.111780 S    
O19   V3    2.215166 S    
O1    V2    2.002234 S    
C27   C33   1.545466 S    
O14   C50   1.318988 A    
O2    V1    1.972894 S    
C6    C22   1.411631 A    
C16   C24   1.398790 A    
C28   H16   1.110755 S    
C9    H5    1.083735 S    
C38   C40   1.579653 S    
C62   H58   1.110718 S    
C9    C11   1.399064 A    
C59   C60   1.537729 S    
C5    C19   1.408347 A    
C10   C12   1.397552 A    
C24   H8    1.083865 S    
O4    C2    1.309986 A    
C33   C41   1.551026 S    
C29   C37   1.554811 S    
C42   H26   1.112862 S    
C37   C43   1.496743 S    
C64   H54   1.110504 S    
O3    V1    1.982377 S    
C37   C39   1.580827 S    
C53   C54   1.539603 S    
C61   H46   1.110928 S    
O14   V4    2.021084 S    
C35   C59   1.571687 S    
C10   C18   1.399248 A    
C56   H43   1.109894 S    
C14   C16   1.412466 A    
C25   H29   1.108980 S    
C1    C32   1.450620 S    
O3    C1    1.313985 A    
C36   C38   1.587198 S    
C25   C33   1.552089 S    
C60   C61   1.526211 S    
C14   H12   1.084192 S    
C34   C42   1.551782 S    
C53   H36   1.106960 S    
O18   V4    2.001778 S    
O16   V4    1.977404 S    
C12   H10   1.083481 S    
C16   C18   1.417831 A    
C26   C36   1.588696 S    
C1    O8    1.310956 A    
C17   C19   1.414222 A    
C25   H13   1.113011 S    
C18   C20   1.413034 A    
C29   H21   1.098085 S    
C41   H23   1.113270 S    
C58   H38   1.111054 S    
C8    C14   1.405113 A    
C4    C7    1.496191 S    
O5    V1    1.969104 S    
C21   C23   1.399013 A    
C48   C51   1.451938 S    
C57   H41   1.110796 S    
O19   V4    1.732434 S    
C22   C24   1.397154 A    
O7    V1    1.967291 S    
C7    C13   1.408182 A    
N2    O24   1.302887 A    
O12   V3    1.962456 S    
C30   C38   1.548851 S    
C30   H22   1.097020 S    
C28   H18   1.113006 S    
O9    V2    1.732822 S    
C58   H39   1.111046 S    
O10   V1    1.763776 S    
O8    V2    1.966082 S    
C59   H50   1.111133 S    
C40   H28   1.109824 S    
C26   C34   1.549117 S    
C54   H35   1.109417 S    
C62   C63   1.538732 S    
C57   C58   1.526537 S    
C13   C15   1.414102 A    
