data_mof_unit_1756.cif
_audit_creation_date              2012-12-11T14:58:36-0500
_audit_creation_method            fapswitch 2.2
_symmetry_space_group_name_H-M    P1
_symmetry_Int_Tables_number       1
_space_group_crystal_system       triclinic
_cell_length_a                    10.915984
_cell_length_b                    10.979886
_cell_length_c                    18.782816
_cell_angle_alpha                 90.533786
_cell_angle_beta                  90.464051
_cell_angle_gamma                 59.814833
_cell_volume                      1945.88180673

loop_
_atom_site_label
_atom_site_type_symbol
_atom_type_description
_atom_site_fract_x
_atom_site_fract_y
_atom_site_fract_z
_atom_type_partial_charge
C1    C     C_R   0.359383 0.772519 0.397634 0.542239
C2    C     C_R   0.256824 0.454680 0.197041 0.109379
C3    C     C_R   0.250163 0.458458 0.272035 -0.009631
C4    C     C_R   0.385828 0.355362 0.387171 0.533174
C5    C     C_R   0.879305 0.803865 0.369370 -0.120322
C6    C     C_R   0.924833 0.665480 0.389486 -0.110681
C7    C     C_R   0.045162 0.553456 0.358219 -0.061106
C8    C     C_R   0.123938 0.578710 0.307591 0.077716
C9    C     C_R   0.362380 0.345969 0.310737 -0.037032
C10   C     C_R   0.954756 0.304112 0.307778 -0.159555
C11   C     C_R   0.983420 0.297042 0.235638 -0.127812
C12   C     C_R   0.610235 0.111918 0.167079 0.060333
C13   C     C_R   0.874379 0.332926 0.185744 0.038179
C14   C     C_R   0.735835 0.380466 0.207293 -0.154131
C15   C     C_R   0.706634 0.390826 0.279450 -0.119553
C16   C     C_R   0.777648 0.378234 0.403128 0.533908
C17   C     C_R   0.816137 0.353067 0.329391 0.039324
C18   C     C_R   0.473334 0.774952 0.285349 -0.141464
C19   C     C_R   0.461110 0.801968 0.212662 -0.161884
C20   C     C_R   0.326795 0.886121 0.183646 0.030512
C21   C     C_R   0.207018 0.952193 0.228009 -0.142348
C22   C     C_R   0.219297 0.926963 0.300161 -0.160032
C23   C     C_R   0.363777 0.334228 0.161613 0.010437
C24   C     C_R   0.350885 0.832142 0.328266 0.029480
C25   C     C_R   0.389457 0.197646 0.693306 -0.135553
C26   C     C_R   0.380397 0.185016 0.765486 -0.121363
C27   C     C_R   0.297122 0.304745 0.807853 0.037429
C28   C     C_R   0.344223 0.769401 0.604714 0.546302
C29   C     C_R   0.213048 0.435998 0.776304 -0.138070
C30   C     C_R   0.223853 0.449244 0.703475 -0.127871
C31   C     C_R   0.318197 0.330756 0.662689 0.029640
C32   C     C_R   0.742785 0.474999 0.732180 -0.121701
C33   C     C_R   0.753259 0.461728 0.805114 -0.130180
C34   C     C_R   0.476837 0.237179 0.273974 -0.164862
C35   C     C_R   0.814195 0.328234 0.835784 0.029007
C36   C     C_R   0.848136 0.209829 0.792782 -0.128527
C37   C     C_R   0.832194 0.224272 0.719005 -0.133144
C38   C     C_R   0.785164 0.356457 0.688322 0.035915
C39   C     C_R   0.201971 0.828998 0.713569 -0.136447
C40   C     C_R   0.367886 0.350416 0.595028 0.547406
C41   C     C_R   0.194993 0.838285 0.786832 -0.140414
C42   C     C_R   0.303529 0.841272 0.825434 0.035802
C43   C     C_R   0.421601 0.829889 0.789958 -0.144877
C44   C     C_R   0.428041 0.821698 0.716468 -0.147898
C45   C     C_R   0.482337 0.231814 0.200591 -0.051637
C46   C     C_R   0.319774 0.818181 0.677952 0.036806
C47   C     C_R   0.910927 0.316221 0.111770 0.531895
C48   C     C_R   0.330273 0.295268 0.091923 0.541177
C49   C     C_R   0.302562 0.908702 0.107880 0.536597
C50   C     C_R   0.878940 0.310258 0.905833 0.543444
C51   C     C_R   0.292116 0.283776 0.883433 0.547642
C52   C     C_R   0.757132 0.380313 0.612291 0.547805
C53   C     C_R   0.276543 0.892634 0.898149 0.545771
C54   C     C_R   0.824532 0.882988 0.091568 -0.114164
C55   C     C_R   0.784668 0.020505 0.072068 -0.088539
C56   C     C_R   0.078899 0.719335 0.289602 -0.047340
C57   C     C_R   0.678803 0.134773 0.109947 -0.051484
C58   C     C_3   0.209422 0.633797 0.108524 -0.290976
C59   C     C_R   0.956277 0.830786 0.319369 -0.111014
C60   C     C_R   0.656930 0.972773 0.188560 -0.085751
C61   C     C_R   0.763434 0.859015 0.150839 -0.106450
Cr1   Cr    Cr6+3 0.601770 0.606860 0.505860 0.994814
Cr2   Cr    Cr6+3 0.291380 0.601660 0.495070 1.020150
Cr3   Cr    Cr6+3 0.606880 0.291510 0.499120 1.010433
Cr4   Cr    Cr6+3 0.062440 0.063090 0.008210 0.977739
Cr5   Cr    Cr6+3 0.062880 0.375170 0.998920 0.997831
Cr6   Cr    Cr6+3 0.374700 0.061720 0.992470 1.019116
H1    H     H_    0.567599 0.156245 0.302595 0.148207
H2    H     H_    0.553992 0.751738 0.179037 0.116836
H3    H     H_    0.101974 0.018596 0.206251 0.152202
H4    H     H_    0.795869 0.752292 0.166446 0.116999
H5    H     H_    0.125172 0.973253 0.332971 0.123137
H6    H     H_    0.460502 0.104919 0.662503 0.124791
H7    H     H_    0.441559 0.081013 0.788249 0.136166
H8    H     H_    0.144523 0.528139 0.808052 0.117537
H9    H     H_    0.166923 0.553426 0.680366 0.131942
H10   H     H_    0.701521 0.579036 0.710175 0.133162
H11   H     H_    0.724787 0.554802 0.837142 0.124092
H12   H     H_    0.785204 0.890269 0.393004 0.112231
H13   H     H_    0.895781 0.105447 0.815485 0.127781
H14   H     H_    0.860545 0.132431 0.686054 0.118679
H15   H     H_    0.117072 0.825368 0.685179 0.124168
H16   H     H_    0.921275 0.938153 0.303884 0.111258
H17   H     H_    0.101835 0.848922 0.812809 0.120177
H18   H     H_    0.506231 0.833284 0.818755 0.115461
H19   H     H_    0.519527 0.813885 0.690024 0.113774
H20   H     H_    0.901293 0.794969 0.060137 0.094453
H21   H     H_    0.832908 0.038590 0.026318 0.129290
H22   H     H_    0.644637 0.240623 0.092167 0.089679
H23   H     H_    0.867196 0.645350 0.429715 0.140410
H24   H     H_    0.138458 0.742854 0.252174 0.148735
H25   H     H_    0.607033 0.952170 0.232725 0.111785
H26   H     H_    0.064734 0.570233 0.141738 0.278375
H27   H     H_    0.123572 0.739424 0.093092 0.171622
H28   H     H_    0.250768 0.568802 0.059588 0.147473
H29   H     H_    0.295414 0.644712 0.134298 0.151647
H30   H     H_    0.079400 0.447378 0.375011 0.096523
H31   H     H_    0.039541 0.271340 0.346332 0.096097
H32   H     H_    0.091036 0.260800 0.218471 0.122451
H33   H     H_    0.651083 0.411217 0.168821 0.093875
H34   H     H_    0.598271 0.431206 0.296572 0.124123
H35   H     H_    0.576847 0.701475 0.306893 0.145668
N1    N     N_2   0.154098 0.572615 0.157583 -0.535683
O1    O     O_R   0.748800 0.497470 0.428000 -0.534409
O2    O     O_R   0.417600 0.174890 0.067840 -0.507697
O3    O     O_R   0.375320 0.946260 0.070860 -0.490817
O4    O     O_R   0.476420 0.724060 0.429470 -0.511423
O5    O     O_R   0.160600 0.919630 0.926660 -0.533278
O6    O     O_R   0.933060 0.190520 0.936020 -0.515847
O7    O     O_R   0.908880 0.403460 0.925020 -0.519875
O8    O     O_R   0.179600 0.361450 0.918490 -0.504195
O9    O     O_R   0.391510 0.170860 0.907530 -0.530942
O10   O     O_R   0.351130 0.942530 0.922260 -0.508664
O11   O     O_3   0.166667 0.166667 0.999870 -0.242692
O12   O     O_R   0.300070 0.471040 0.567100 -0.508399
O13   O     O_R   0.264580 0.744340 0.416750 -0.508927
O14   O     O_R   0.309380 0.472470 0.418200 -0.496375
O15   O     O_R   0.501710 0.260430 0.414300 -0.529018
O16   O     O_R   0.728090 0.305600 0.428960 -0.502476
O17   O     O_R   0.738760 0.495930 0.588610 -0.529780
O18   O     O_R   0.467110 0.722640 0.578360 -0.509237
O19   O     O_R   0.254530 0.742800 0.577360 -0.527992
O20   O     O_R   0.491670 0.258900 0.574910 -0.519330
O21   O     O_R   0.718780 0.304180 0.577850 -0.500029
O22   O     O_3   0.500010 0.500010 0.500020 -0.246674
O23   O     O_R   0.186690 0.923650 0.086970 -0.547993
O24   O     O_R   0.957250 0.194250 0.084630 -0.513816
O25   O     O_R   0.934970 0.407490 0.085330 -0.526748
O26   O     O_R   0.203780 0.365190 0.067090 -0.502079

loop_
_geom_bond_atom_site_label_1
_geom_bond_atom_site_label_2
_ccdc_geom_bond_type
C25   C31   A    
C49   O3    A    
C51   O9    A    
C23   C45   A    
C27   C29   A    
C11   C13   A    
C41   C42   A    
C19   C20   A    
C43   C44   A    
C4    O15   A    
C8    C56   A    
C47   O25   A    
C39   C41   A    
C54   H20   S    
C49   O23   A    
C28   C46   S    
C26   C27   A    
C37   C38   A    
Cr3   O16   S    
C57   H22   S    
C18   C24   A    
Cr4   O24   S    
C36   C37   A    
Cr6   O11   S    
C59   H16   S    
C42   C53   S    
C18   H35   S    
C30   C31   A    
Cr2   O14   S    
C28   O19   A    
C33   H11   S    
C40   O12   A    
C38   C52   S    
C10   C17   A    
C50   O7    A    
Cr3   O15   S    
C31   C40   S    
C11   H32   S    
C18   C19   A    
Cr4   O11   S    
C55   H21   S    
C10   H31   S    
C58   H29   S    
C53   O10   A    
C26   H7    S    
C32   H10   S    
C16   O1    A    
C56   H24   S    
C35   C36   A    
C27   C51   S    
C16   C17   S    
C1    O13   A    
C32   C38   A    
Cr5   O8    S    
C5    H12   S    
C29   C30   A    
Cr5   O11   S    
Cr4   O5    S    
Cr1   O17   S    
Cr5   O26   S    
Cr2   O12   S    
C61   H4    S    
C13   C14   A    
C37   H14   S    
C44   H19   S    
C22   H5    S    
C44   C46   A    
Cr1   O1    S    
C60   H25   S    
C5    C59   A    
C43   H18   S    
C7    C8    A    
C3    C8    S    
C36   H13   S    
C16   O16   A    
C34   H1    S    
C13   C47   S    
C28   O18   A    
Cr6   O2    S    
Cr1   O4    S    
C25   C26   A    
Cr3   O21   S    
C41   H17   S    
C50   O6    A    
Cr5   O7    S    
C60   C61   A    
C58   H28   S    
C20   C49   S    
C3    C9    A    
C30   H9    S    
C48   O2    A    
C35   C50   S    
C34   C45   A    
C15   H34   S    
C47   O24   A    
Cr4   O6    S    
Cr2   O22   S    
C1    O4    A    
C39   C46   A    
C12   C57   A    
C52   O17   A    
C55   C57   A    
C9    C34   A    
C22   C24   A    
C4    O14   A    
C19   H2    S    
C42   C43   A    
Cr2   O13   S    
Cr2   O19   S    
C15   C17   A    
C40   O20   A    
C54   C55   A    
C51   O8    A    
C23   C48   S    
C7    H30   S    
C39   H15   S    
C12   C45   S    
Cr1   O22   S    
Cr6   O3    S    
C14   H33   S    
C6    C7    A    
C29   H8    S    
C54   C61   A    
Cr3   O20   S    
C56   C59   A    
C21   H3    S    
C32   C33   A    
C2    C3    A    
C58   H27   S    
C6    H23   S    
Cr4   O23   S    
C52   O21   A    
C53   O5    A    
C5    C6    A    
C2    N1    S    
C33   C35   A    
Cr5   O25   S    
C25   H6    S    
Cr6   O10   S    
C48   O26   A    
C10   C11   A    
C12   C60   A    
Cr6   O9    S    
C20   C21   A    
C1    C24   S    
Cr3   O22   S    
C2    C23   A    
C14   C15   A    
C58   N1    S    
C4    C9    S    
C21   C22   A    
Cr1   O18   S    
H26   N1    S    
