data_mof_unit_3269.cif
_audit_creation_date              2012-12-10T17:52:18-0500
_audit_creation_method            fapswitch 2.2
_symmetry_space_group_name_H-M    P1
_symmetry_Int_Tables_number       1
_space_group_crystal_system       triclinic
_cell_length_a                    18.902034
_cell_length_b                    10.600661
_cell_length_c                    9.987099
_cell_angle_alpha                 89.96713
_cell_angle_beta                  90.138144
_cell_angle_gamma                 93.077176
_cell_volume                      1998.26411589

loop_
_atom_site_label
_atom_site_type_symbol
_atom_type_description
_atom_site_fract_x
_atom_site_fract_y
_atom_site_fract_z
_atom_type_partial_charge
C1    C     C_R   0.501074 0.260927 0.500175 0.872943
C2    C     C_R   0.855919 0.602901 0.500452 0.097543
C3    C     C_R   0.629817 0.143131 0.576570 -0.207853
C4    C     C_R   0.365488 0.506025 0.499937 0.829886
C5    C     C_R   0.691011 0.083081 0.612187 -0.170300
C6    C     C_R   0.691409 0.950963 0.611463 0.172093
C7    C     C_R   0.629904 0.880061 0.574653 -0.192475
C8    C     C_R   0.567505 0.939991 0.538919 0.051792
C9    C     C_R   0.567481 0.072044 0.539551 0.091855
C10   C     C_R   0.504830 0.128747 0.500786 -0.078721
C11   C     C_R   0.443898 0.058921 0.461941 -0.227580
C12   C     C_R   0.291019 0.536221 0.499793 -0.046651
C13   C     C_R   0.444009 0.929954 0.460863 -0.199493
C14   C     C_R   0.504860 0.871767 0.499918 -0.072820
C15   C     C_R   0.383026 0.383022 0.136873 0.113398
C16   C     C_R   0.500976 0.739119 0.499932 0.856275
C17   C     C_R   0.318751 0.367398 0.068958 -0.288126
C18   C     C_R   0.318521 0.360689 0.931484 0.041984
C19   C     C_R   0.383397 0.377748 0.863043 0.103438
C20   C     C_R   0.442624 0.442368 0.927659 0.093792
C21   C     C_R   0.442632 0.443272 0.071839 0.114031
C22   C     C_R   0.554235 0.554476 0.071362 -0.115381
C23   C     C_R   0.932745 0.628643 0.499926 0.285594
C24   C     C_R   0.554156 0.554687 0.928939 -0.114619
C25   C     C_R   0.634913 0.504412 0.500095 0.811729
C26   C     C_R   0.259056 0.573717 0.618901 -0.214372
C27   C     C_R   0.189661 0.610483 0.617857 -0.164040
C28   C     C_R   0.151490 0.611627 0.497324 0.087711
C29   C     C_R   0.184363 0.578501 0.377494 -0.160242
C30   C     C_R   0.253571 0.541071 0.378856 -0.206014
C31   C     C_R   0.075785 0.633727 0.498253 0.285297
C32   C     C_R   0.819838 0.583092 0.621919 -0.155622
C33   C     C_R   0.748217 0.546318 0.621844 -0.205754
C34   C     C_R   0.711620 0.529260 0.500318 -0.027874
C35   C     C_R   0.747619 0.549294 0.378941 -0.184375
C36   C     C_R   0.819151 0.586163 0.379006 -0.159175
H1    H     H_    0.287738 0.575705 0.712940 0.164397
H2    H     H_    0.156245 0.578500 0.282898 0.152372
H3    H     H_    0.277736 0.516854 0.285091 0.163037
H4    H     H_    0.846944 0.594628 0.717117 0.145655
H5    H     H_    0.721434 0.533046 0.716967 0.149722
H6    H     H_    0.720436 0.538284 0.283728 0.150551
H7    H     H_    0.845676 0.600036 0.283736 0.147120
H8    H     H_    0.395972 0.104370 0.434415 0.133278
H9    H     H_    0.795657 0.952656 0.668182 0.180932
H10   H     H_    0.743243 0.835625 0.733279 0.177296
H11   H     H_    0.399447 0.209080 0.205077 0.171672
H12   H     H_    0.631967 0.245174 0.577475 0.145780
H13   H     H_    0.346017 0.290539 0.303374 0.154598
H14   H     H_    0.244755 0.364480 0.783907 0.192057
H15   H     H_    0.263901 0.217467 0.834987 0.180018
H16   H     H_    0.396507 0.202433 0.793314 0.166205
H17   H     H_    0.351806 0.293060 0.687341 0.165661
H18   H     H_    0.738131 0.139851 0.639752 0.139206
H19   H     H_    0.631725 0.778217 0.573361 0.140482
H20   H     H_    0.396362 0.875146 0.431552 0.146793
H21   H     H_    0.598684 0.599573 0.124403 0.139582
H22   H     H_    0.271880 0.331451 0.121923 0.171773
H23   H     H_    0.165729 0.636319 0.711653 0.152376
H24   H     H_    0.598523 0.599994 0.876164 0.136240
N1    N     N_R   0.038922 0.635181 0.381751 -0.179059
N2    N     N_3   0.394316 0.293816 0.754490 -0.369545
N3    N     N_R   0.968679 0.632794 0.382583 -0.179081
N4    N     N_R   0.969702 0.632818 0.616494 -0.179897
N5    N     N_R   0.039990 0.635313 0.615670 -0.177655
N6    N     N_R   0.499340 0.498800 0.142780 -0.098657
N7    N     N_R   0.499320 0.498720 0.857170 -0.096344
N8    N     N_3   0.754017 0.887114 0.645676 -0.448240
N9    N     N_3   0.392187 0.298429 0.245602 -0.368057
N10   N     N_3   0.255453 0.309209 0.867265 -0.453565
O1    O     O_R   0.500000 0.316780 0.614690 -0.591348
O2    O     O_R   0.499990 0.316750 0.385360 -0.586405
O3    O     O_R   0.398140 0.500000 0.614700 -0.607243
O4    O     O_R   0.398130 0.499970 0.385370 -0.599980
O5    O     O_R   0.500010 0.683250 0.614640 -0.612117
O6    O     O_R   0.500000 0.683220 0.385310 -0.607004
O7    O     O_R   0.601870 0.500030 0.614630 -0.629347
O8    O     O_R   0.601860 0.500000 0.385300 -0.617605
Zn1   Zn    Zn3+2 0.500000 0.500020 0.653130 0.953885
Zn2   Zn    Zn3+2 0.500000 0.499980 0.346870 0.962584

loop_
_geom_bond_atom_site_label_1
_geom_bond_atom_site_label_2
_ccdc_geom_bond_type
C18   N10   S    
C21   N6    A    
C16   O5    A    
C31   N1    A    
C20   N7    A    
C35   C36   A    
C7    H19   S    
C22   H21   S    
O1    Zn1   S    
C7    C8    A    
C26   C27   A    
C1    O1    A    
C25   O7    A    
C28   C29   A    
C18   C19   A    
C5    C6    A    
O8    Zn2   S    
C19   N2    S    
C3    H12   S    
C2    C32   A    
C34   C35   A    
N1    N3    A    
C35   H6    S    
H11   N9    S    
C24   N7    A    
C22   N6    A    
C19   C20   A    
C8    C9    A    
C29   H2    S    
H15   N10   S    
C4    C12   S    
C9    C10   A    
C4    O4    A    
C17   H22   S    
C13   H20   S    
H13   N9    S    
C6    N8    S    
O4    Zn2   S    
C13   C14   A    
C33   C34   A    
O7    Zn1   S    
C15   N9    S    
C1    O2    A    
C25   O8    A    
C5    H18   S    
N7    Zn1   S    
C12   C26   A    
H10   N8    S    
C29   C30   A    
C3    C9    A    
H17   N2    S    
C24   H24   S    
H9    N8    S    
C17   C18   A    
O3    Zn1   S    
C11   H8    S    
C4    O3    A    
C23   N4    A    
C22   C24   A    
C27   C28   A    
C2    C36   A    
C31   N5    A    
C8    C14   A    
C12   C30   A    
C16   O6    A    
C28   C31   S    
C1    C10   S    
O6    Zn2   S    
C3    C5    A    
C26   H1    S    
C15   C17   A    
C6    C7    A    
N6    Zn2   S    
C25   C34   S    
C33   H5    S    
C32   C33   A    
H14   N10   S    
O2    Zn2   S    
C27   H23   S    
N4    N5    A    
C11   C13   A    
C23   N3    A    
C30   H3    S    
C14   C16   S    
C32   H4    S    
C10   C11   A    
C15   C21   A    
C20   C21   A    
C2    C23   S    
C36   H7    S    
H16   N2    S    
O5    Zn1   S    
