data_mof_unit_2703.cif
_audit_creation_date              2012-12-10T19:00:16-0500
_audit_creation_method            fapswitch 2.2
_symmetry_space_group_name_H-M    P1
_symmetry_Int_Tables_number       1
_space_group_crystal_system       triclinic
_cell_length_a                    9.557594
_cell_length_b                    10.841035
_cell_length_c                    13.471367
_cell_angle_alpha                 90.551976
_cell_angle_beta                  73.322941
_cell_angle_gamma                 90.628374
_cell_volume                      1337.00207094

loop_
_atom_site_label
_atom_site_type_symbol
_atom_type_description
_atom_site_fract_x
_atom_site_fract_y
_atom_site_fract_z
_atom_type_partial_charge
C1    C     C_R   0.499666 0.737534 0.502732 0.810070
C2    C     C_R   0.444910 0.441953 0.974665 0.082991
C3    C     C_R   0.490468 0.439986 0.864841 0.093045
C4    C     C_R   0.551524 0.461366 0.028501 0.074742
C5    C     C_R   0.701348 0.468613 0.972044 0.180097
C6    C     C_R   0.744751 0.443075 0.866509 -0.268170
C7    C     C_R   0.640801 0.423214 0.814652 -0.212638
C8    C     C_R   0.513995 0.478154 0.136171 -0.257198
C9    C     C_R   0.767971 0.509208 0.129405 -0.201975
C10   C     C_R   0.383621 0.452364 0.810065 -0.105650
C11   C     C_R   0.367345 0.934303 0.525661 0.127454
C12   C     C_R   0.423718 0.485071 0.698684 0.791961
C13   C     C_R   0.496768 0.870417 0.514442 -0.101710
C14   C     C_R   0.622151 0.936974 0.518252 -0.214741
C15   C     C_R   0.621435 0.065669 0.517560 -0.215683
C16   C     C_R   0.495456 0.128859 0.512833 -0.096931
C17   C     C_R   0.366427 0.061315 0.524865 0.131430
C18   C     C_3   0.258040 0.062774 0.464115 -0.491187
C19   C     C_3   0.258790 0.923053 0.465649 -0.450603
C20   C     C_R   0.960777 0.466017 0.413273 0.262025
C21   C     C_R   0.893654 0.547846 0.580960 -0.104538
C22   C     C_R   0.042208 0.547199 0.581247 -0.089551
C23   C     C_R   0.498844 0.262161 0.501933 0.792900
C24   C     C_R   0.108080 0.466106 0.413222 0.263492
C25   C     C_3   0.132494 0.344059 0.359804 -0.520034
C26   C     C_3   0.974305 0.344888 0.358645 -0.498573
C27   C     C_R   0.577573 0.501009 0.300336 0.802016
C28   C     C_R   0.806905 0.497752 0.022137 -0.205927
C29   C     C_R   0.621356 0.496776 0.187017 -0.046096
C30   C     C_R   0.235794 0.434409 0.863910 -0.195945
C31   C     C_R   0.194100 0.412283 0.969914 -0.155399
C32   C     C_R   0.295381 0.421938 0.025671 -0.181093
Cu1   Cu    Cu3+1 0.359330 0.500020 0.500010 0.939298
Cu2   Cu    Cu3+1 0.640670 0.499980 0.499990 0.933971
H1    H     H_    0.721555 0.114755 0.515329 0.159740
H2    H     H_    0.151641 0.101439 0.509995 0.195737
H3    H     H_    0.304734 0.100927 0.385023 0.200297
H4    H     H_    0.153623 0.882118 0.512437 0.198027
H5    H     H_    0.305277 0.880767 0.387700 0.201916
H6    H     H_    0.812432 0.585903 0.646948 0.155074
H7    H     H_    0.071066 0.583743 0.647764 0.142037
H8    H     H_    0.211512 0.348619 0.281589 0.185163
H9    H     H_    0.154882 0.272385 0.410484 0.215511
H10   H     H_    0.961805 0.353345 0.279457 0.191687
H11   H     H_    0.859546 0.437026 0.823996 0.138976
H12   H     H_    0.906914 0.271127 0.406851 0.212965
H13   H     H_    0.919208 0.512131 0.977595 0.132188
H14   H     H_    0.401616 0.478119 0.182056 0.146366
H15   H     H_    0.152457 0.435273 0.823837 0.144919
H16   H     H_    0.253889 0.408696 0.107981 0.117500
H17   H     H_    0.082145 0.389750 0.010412 0.139764
H18   H     H_    0.681539 0.389999 0.736142 0.187249
H19   H     H_    0.722666 0.890352 0.516047 0.166348
N1    N     N_R   0.852320 0.499070 0.499340 -0.188031
N2    N     N_R   0.148230 0.499110 0.499340 -0.184289
O1    O     O_R   0.381190 0.680360 0.500000 -0.576880
O2    O     O_R   0.618780 0.680320 0.499990 -0.580712
O3    O     O_R   0.323230 0.500000 0.650990 -0.587611
O4    O     O_R   0.560820 0.499960 0.650980 -0.597992
O5    O     O_R   0.381220 0.319680 0.500010 -0.577371
O6    O     O_R   0.618810 0.319640 0.500000 -0.591646
O7    O     O_R   0.439180 0.500040 0.349020 -0.586337
O8    O     O_R   0.676770 0.500000 0.349010 -0.583048
H20   H     H_    0.852147 0.527841 0.167014 0.150604

loop_
_geom_bond_atom_site_label_1
_geom_bond_atom_site_label_2
_ccdc_geom_bond_type
C25   H8    S    
Cu1   N2    S    
Cu2   O2    S    
C2    C4    A    
C8    H14   S    
C28   H13   S    
Cu1   O3    S    
C19   H4    S    
C1    O2    A    
C27   C29   S    
C5    C28   A    
C10   C30   A    
C31   C32   A    
C17   C18   S    
C9    C29   A    
C30   C31   A    
C4    C8    A    
C12   O3    A    
C25   H9    S    
Cu1   O1    S    
C2    C3    A    
C26   H10   S    
C3    C10   A    
C21   C22   A    
C24   N2    A    
C23   O5    A    
C11   C13   A    
C32   H16   S    
C22   N2    A    
C21   H6    S    
C27   O8    A    
Cu1   O5    S    
C5    C6    A    
C19   H5    S    
C2    C32   A    
C15   H1    S    
Cu2   O8    S    
C27   O7    A    
C18   H3    S    
Cu1   Cu2   S    
C7    H18   S    
Cu2   N1    S    
C16   C23   S    
C3    C7    A    
C21   N1    A    
C10   C12   S    
C1    O1    A    
Cu2   O4    S    
C22   H7    S    
C1    C13   S    
C8    C29   A    
C6    H11   S    
C15   C16   A    
C9    H20   S    
C16   C17   A    
C4    C5    A    
C14   H19   S    
C24   C25   S    
C20   N1    A    
C18   C19   S    
C23   O6    A    
C26   H12   S    
C14   C15   A    
C11   C19   S    
C25   C26   S    
C13   C14   A    
C12   O4    A    
C18   H2    S    
C30   H15   S    
Cu2   O6    S    
C11   C17   A    
C6    C7    A    
C20   C24   A    
C9    C28   A    
C31   H17   S    
Cu1   O7    S    
C20   C26   S    
