data_mof_unit_4630.cif
_audit_creation_date              2012-12-10T20:26:26-0500
_audit_creation_method            fapswitch 2.2
_symmetry_space_group_name_H-M    P1
_symmetry_Int_Tables_number       1
_space_group_crystal_system       triclinic
_cell_length_a                    10.707842
_cell_length_b                    10.755423
_cell_length_c                    9.930471
_cell_angle_alpha                 89.152509
_cell_angle_beta                  88.997978
_cell_angle_gamma                 91.749753
_cell_volume                      1142.82376558

loop_
_atom_site_label
_atom_site_type_symbol
_atom_type_description
_atom_site_fract_x
_atom_site_fract_y
_atom_site_fract_z
_atom_type_partial_charge
C1    C     C_R   0.499250 0.260176 0.500584 0.875053
C2    C     C_R   0.494978 0.127788 0.498422 -0.093937
C3    C     C_R   0.553426 0.067518 0.391121 -0.142290
C4    C     C_R   0.551716 0.938862 0.388304 -0.099651
C5    C     C_R   0.496570 0.870886 0.496077 -0.131653
C6    C     C_R   0.429459 0.931565 0.595113 -0.053703
C7    C     C_3   0.427775 0.922759 0.746127 -0.051934
C8    C     C_3   0.417211 0.063732 0.743036 -0.432954
C9    C     C_R   0.401882 0.448536 0.073021 0.083478
C10   C     C_R   0.587524 0.567168 0.069705 -0.015607
C11   C     C_R   0.591110 0.562531 0.925761 -0.032974
C12   C     C_R   0.263625 0.512036 0.500995 0.841860
C13   C     C_R   0.397722 0.456648 0.931232 0.183103
C14   C     C_3   0.338415 0.330934 0.921171 -0.333806
C15   C     C_3   0.353746 0.315828 0.074054 -0.147810
C16   C     C_R   0.501434 0.739479 0.499082 0.869563
C17   C     C_R   0.737221 0.495002 0.498746 0.896362
C18   C     C_2   0.935562 0.540504 0.397195 -0.134508
C19   C     C_2   0.868780 0.479052 0.493815 -0.121648
C20   C     C_2   0.069882 0.538012 0.391610 -0.138105
C21   C     C_2   0.137138 0.553576 0.502938 -0.187619
C22   C     C_R   0.423800 0.058522 0.593060 0.066987
H1    H     H_    0.891339 0.595852 0.321062 0.183224
H2    H     H_    0.499908 0.114289 0.784434 0.199348
H3    H     H_    0.399176 0.273535 0.859676 0.146178
H4    H     H_    0.111487 0.509111 0.297208 0.187162
H5    H     H_    0.605388 0.119387 0.313311 0.162863
H6    H     H_    0.599903 0.893379 0.306992 0.190828
H7    H     H_    0.324700 0.095902 0.777457 0.213085
N1    N     N_R   0.499170 0.499140 0.142800 -0.159843
N2    N     N_R   0.499170 0.499180 0.857150 -0.157827
O1    O     O_R   0.500020 0.316790 0.614690 -0.628494
O2    O     O_R   0.500000 0.316760 0.385350 -0.637230
O3    O     O_R   0.319080 0.500020 0.614640 -0.638613
O4    O     O_R   0.319070 0.499980 0.385300 -0.602989
O5    O     O_R   0.500000 0.683240 0.614650 -0.659411
O6    O     O_R   0.499980 0.683210 0.385310 -0.594557
O7    O     O_R   0.680930 0.500020 0.614700 -0.604989
O8    O     O_R   0.680920 0.499980 0.385360 -0.636071
Zn1   Zn    Zn3+2 0.500010 0.500020 0.653130 0.948378
Zn2   Zn    Zn3+2 0.499990 0.499980 0.346870 0.969852
C23   C     C_1   0.672405 0.650103 0.138244 0.302787
N3    N     N_1   0.739831 0.719059 0.190963 -0.210336
C24   C     C_1   0.692846 0.625357 0.853046 0.281778
N4    N     N_1   0.775521 0.676299 0.796840 -0.129748
C25   C     C_2   0.206635 0.334396 0.869878 0.475175
H8    H     H_    0.173833 0.262558 0.802544 0.084453
O9    O     O_2   0.135559 0.415080 0.904869 -0.576929
C26   C     C_1   0.238173 0.295877 0.155562 0.354111
N5    N     N_1   0.147641 0.278642 0.219323 -0.198032
C27   C     C_2   0.451065 0.222149 0.106451 0.413276
H9    H     H_    0.546479 0.252405 0.126376 0.072590
O10   O     O_2   0.424800 0.110899 0.104275 -0.511115
C28   C     C_1   0.920364 0.389175 0.586236 0.191336
N6    N     N_1   0.960746 0.316952 0.659762 -0.181353
C29   C     C_2   0.091014 0.619402 0.624730 0.441500
H10   H     H_    0.134119 0.604350 0.721302 0.120537
O11   O     O_2   0.008454 0.694900 0.617091 -0.534777
C30   C     C_2   0.315570 0.848623 0.800601 0.555889
H11   H     H_    0.304658 0.751118 0.775797 0.035399
O12   O     O_2   0.238504 0.895255 0.874849 -0.522677
C31   C     C_2   0.548925 0.884881 0.807163 0.411543
H12   H     H_    0.631351 0.874165 0.743851 0.086960
O13   O     O_2   0.557151 0.872957 0.929131 -0.541465

loop_
_geom_bond_atom_site_label_1
_geom_bond_atom_site_label_2
_ccdc_geom_bond_type
C2    C22   A    
C21   C29   S    
C8    C22   S    
N1    Zn2   S    
C31   H12   S    
C7    C31   S    
C15   C27   S    
C10   C23   S    
C10   N1    A    
C31   O13   D    
C14   C15   S    
O5    Zn1   S    
C16   O6    A    
O2    Zn2   S    
C3    H5    S    
C2    C3    A    
C9    C15   S    
C11   N2    A    
C30   H11   S    
C14   C25   S    
C13   C14   S    
C24   N4    T    
C12   O4    A    
O7    Zn1   S    
C6    C7    S    
C20   H4    S    
C9    N1    A    
O3    Zn1   S    
C8    H7    S    
C19   C28   S    
C7    C30   S    
C8    H2    S    
C29   O11   D    
C26   N5    T    
C18   C20   S    
C17   O7    A    
C15   C26   S    
C14   H3    S    
O6    Zn2   S    
C5    C6    A    
O4    Zn2   S    
C25   O9    D    
C30   O12   D    
C23   N3    T    
C4    H6    S    
C1    O2    A    
C18   H1    S    
C6    C22   A    
C11   C24   S    
C7    C8    S    
O1    Zn1   S    
C27   H9    S    
C20   C21   D    
O8    Zn2   S    
C1    C2    S    
C10   C11   A    
C29   H10   S    
C17   O8    A    
C25   H8    S    
C18   C19   D    
C5    C16   S    
C9    C13   A    
C17   C19   S    
N2    Zn1   S    
C28   N6    T    
C12   O3    A    
C12   C21   S    
C13   N2    A    
C1    O1    A    
C16   O5    A    
C3    C4    A    
C4    C5    A    
C27   O10   D    
