data_mof_unit_4096.cif
_audit_creation_date              2012-12-11T15:06:48-0500
_audit_creation_method            fapswitch 2.2
_symmetry_space_group_name_H-M    P1
_symmetry_Int_Tables_number       1
_space_group_crystal_system       triclinic
_cell_length_a                    19.759225
_cell_length_b                    11.4629
_cell_length_c                    18.710202
_cell_angle_alpha                 89.999977
_cell_angle_beta                  91.049798
_cell_angle_gamma                 90.0
_cell_volume                      4237.11238835

loop_
_atom_site_label
_atom_site_type_symbol
_atom_type_description
_atom_site_fract_x
_atom_site_fract_y
_atom_site_fract_z
_atom_type_partial_charge
C1    C     C_R   0.760896 0.523913 0.639644 0.557926
C2    C     C_R   0.239104 0.523913 0.360356 0.557926
C3    C     C_R   0.260896 0.023913 0.639644 0.557926
C4    C     C_R   0.739104 0.023913 0.360356 0.557925
C5    C     C_3   0.810210 0.133892 0.449289 -0.267779
C6    C     C_3   0.189790 0.133891 0.550711 -0.267779
C7    C     C_3   0.310210 0.633891 0.449289 -0.267779
C8    C     C_3   0.689790 0.633892 0.550711 -0.267779
C9    C     C_3   0.747827 0.057889 0.436176 0.041007
C10   C     C_3   0.252173 0.057889 0.563824 0.041007
C11   C     C_3   0.247826 0.557889 0.436176 0.041007
C12   C     C_3   0.752173 0.557889 0.563824 0.041007
C13   C     C_3   0.761174 0.093231 0.573759 0.075552
C14   C     C_3   0.238826 0.093231 0.426241 0.075552
C15   C     C_3   0.261174 0.593231 0.573759 0.075552
C16   C     C_3   0.738826 0.593231 0.426241 0.075552
C17   C     C_3   0.748629 0.962639 0.560754 -0.048335
C18   C     C_3   0.251371 0.962639 0.439246 -0.048335
C19   C     C_3   0.248629 0.462639 0.560754 -0.048335
C20   C     C_3   0.751371 0.462639 0.439246 -0.048335
C21   C     C_3   0.823974 0.133858 0.530372 -0.225876
C22   C     C_3   0.176026 0.133858 0.469628 -0.225876
C23   C     C_3   0.323974 0.633858 0.530372 -0.225876
C24   C     C_3   0.676026 0.633858 0.469628 -0.225876
C25   C     C_3   0.004393 0.204998 0.459019 -0.273259
C26   C     C_3   0.995607 0.204999 0.540981 -0.273259
C27   C     C_3   0.504393 0.704998 0.459019 -0.273259
C28   C     C_3   0.495607 0.704998 0.540981 -0.273259
C29   C     C_3   0.064389 0.403035 0.475902 -0.198791
C30   C     C_3   0.935611 0.403035 0.524098 -0.198792
C31   C     C_3   0.564389 0.903035 0.475902 -0.198792
C32   C     C_3   0.435611 0.903035 0.524098 -0.198791
C33   C     C_3   0.941803 0.387325 0.442530 -0.042215
C34   C     C_3   0.058197 0.387325 0.557470 -0.042215
C35   C     C_3   0.441803 0.887325 0.442530 -0.042215
C36   C     C_3   0.558197 0.887325 0.557470 -0.042215
C37   C     C_3   0.010932 0.331783 0.430888 0.081729
C38   C     C_3   0.989067 0.331783 0.569112 0.081729
C39   C     C_3   0.510933 0.831783 0.430888 0.081729
C40   C     C_3   0.489067 0.831783 0.569112 0.081729
C41   C     C_3   0.815345 0.020108 0.045969 -0.241939
C42   C     C_3   0.184654 0.020108 0.954031 -0.241939
C43   C     C_3   0.315345 0.520108 0.045969 -0.241939
C44   C     C_3   0.684654 0.520108 0.954031 -0.241939
C45   C     C_R   0.774610 0.122970 0.649143 0.547428
C46   C     C_R   0.225390 0.122970 0.350856 0.547428
C47   C     C_R   0.274610 0.622970 0.649143 0.547428
C48   C     C_R   0.725390 0.622970 0.350856 0.547429
C49   C     C_3   0.816121 0.021153 0.965423 -0.251518
C50   C     C_3   0.183879 0.021153 0.034577 -0.251518
C51   C     C_3   0.316121 0.521153 0.965423 -0.251518
C52   C     C_3   0.683879 0.521153 0.034577 -0.251518
C53   C     C_3   0.687998 0.009826 0.024400 -0.291358
C54   C     C_3   0.312002 0.009826 0.975600 -0.291359
C55   C     C_3   0.187998 0.509826 0.024400 -0.291358
C56   C     C_3   0.812002 0.509826 0.975600 -0.291359
C57   C     C_3   0.737585 0.193214 0.062170 0.082600
C58   C     C_3   0.262415 0.193214 0.937829 0.082601
C59   C     C_3   0.237585 0.693214 0.062170 0.082600
C60   C     C_3   0.762415 0.693214 0.937829 0.082601
C61   C     C_3   0.744459 0.062146 0.072977 0.082875
C62   C     C_3   0.255541 0.062146 0.927023 0.082875
C63   C     C_3   0.244458 0.562146 0.072977 0.082875
C64   C     C_3   0.755541 0.562146 0.927023 0.082875
C65   C     C_3   0.760947 0.107133 0.936336 0.036754
C66   C     C_3   0.239052 0.107134 0.063664 0.036754
C67   C     C_3   0.260947 0.607133 0.936336 0.036754
C68   C     C_3   0.739052 0.607134 0.063664 0.036754
C69   C     C_3   0.691258 0.052738 0.946130 -0.253507
C70   C     C_3   0.308742 0.052738 0.053870 -0.253507
C71   C     C_3   0.191258 0.552737 0.946130 -0.253507
C72   C     C_3   0.808742 0.552738 0.053870 -0.253507
C73   C     C_3   0.761014 0.217589 0.984921 -0.235665
C74   C     C_3   0.238986 0.217590 0.015079 -0.235666
C75   C     C_3   0.261014 0.717589 0.984921 -0.235665
C76   C     C_3   0.738986 0.717589 0.015079 -0.235666
C77   C     C_3   0.998950 0.480189 0.040519 -0.233733
C78   C     C_3   0.001050 0.480189 0.959481 -0.233733
C79   C     C_3   0.498950 0.980189 0.040519 -0.233733
C80   C     C_3   0.501050 0.980189 0.959481 -0.233733
C81   C     C_3   0.065286 0.288444 0.029833 -0.226200
C82   C     C_3   0.934713 0.288444 0.970167 -0.226200
C83   C     C_3   0.565286 0.788444 0.029833 -0.226200
C84   C     C_3   0.434713 0.788444 0.970167 -0.226200
C85   C     C_3   0.943802 0.288364 0.052490 -0.254124
C86   C     C_3   0.056198 0.288364 0.947510 -0.254124
C87   C     C_3   0.443802 0.788364 0.052490 -0.254124
C88   C     C_3   0.556198 0.788364 0.947510 -0.254124
C89   C     C_R   0.967812 0.341876 0.644836 0.574571
C90   C     C_R   0.032188 0.341876 0.355164 0.574571
C91   C     C_R   0.467812 0.841876 0.644836 0.574571
C92   C     C_R   0.532188 0.841876 0.355164 0.574571
C93   C     C_3   0.008826 0.353208 0.069893 0.055007
C94   C     C_3   0.991174 0.353208 0.930107 0.055007
C95   C     C_3   0.508826 0.853208 0.069893 0.055007
C96   C     C_3   0.491174 0.853208 0.930107 0.055007
C97   C     C_R   0.763640 0.523855 0.851669 0.612626
C98   C     C_R   0.236360 0.523856 0.148331 0.612627
C99   C     C_R   0.263640 0.023855 0.851669 0.612626
C100  C     C_R   0.736360 0.023856 0.148331 0.612627
C101  C     C_R   0.775979 0.137057 0.860052 0.560929
C102  C     C_R   0.224021 0.137058 0.139948 0.560928
C103  C     C_R   0.275979 0.637058 0.860052 0.560929
C104  C     C_R   0.724021 0.637058 0.139948 0.560928
C105  C     C_R   0.970003 0.353512 0.852981 0.545480
C106  C     C_R   0.029997 0.353512 0.147019 0.545480
C107  C     C_R   0.470003 0.853512 0.852981 0.545480
C108  C     C_R   0.529997 0.853512 0.147019 0.545480
C109  C     C_3   0.686782 0.125990 0.464857 -0.247009
C110  C     C_3   0.313218 0.125990 0.535143 -0.247009
C111  C     C_3   0.186782 0.625990 0.464857 -0.247010
C112  C     C_3   0.813218 0.625990 0.535143 -0.247009
C113  C     C_3   0.698142 0.155955 0.543674 -0.258165
C114  C     C_3   0.301858 0.155955 0.456326 -0.258166
C115  C     C_3   0.198142 0.655955 0.543674 -0.258166
C116  C     C_3   0.801858 0.655955 0.456326 -0.258166
C117  C     C_3   0.757429 0.943250 0.480274 -0.182494
C118  C     C_3   0.242571 0.943250 0.519725 -0.182494
C119  C     C_3   0.257429 0.443250 0.480274 -0.182494
C120  C     C_3   0.742571 0.443250 0.519725 -0.182494
Cr1   Cr    Cr6+3 0.885690 0.492860 0.745310 1.022895
Cr2   Cr    Cr6+3 0.114310 0.492860 0.254690 1.022895
Cr3   Cr    Cr6+3 0.385690 0.992860 0.745310 1.022895
Cr4   Cr    Cr6+3 0.614310 0.992860 0.254690 1.022895
Cr5   Cr    Cr6+3 0.729880 0.332270 0.748190 1.005297
Cr6   Cr    Cr6+3 0.270120 0.332270 0.251810 1.005297
Cr7   Cr    Cr6+3 0.229880 0.832270 0.748190 1.005297
Cr8   Cr    Cr6+3 0.770120 0.832270 0.251810 1.005297
Cr9   Cr    Cr6+3 0.888120 0.178590 0.753010 1.004942
Cr10  Cr    Cr6+3 0.111880 0.178590 0.246990 1.004942
Cr11  Cr    Cr6+3 0.388120 0.678590 0.753010 1.004942
Cr12  Cr    Cr6+3 0.611880 0.678590 0.246990 1.004942
H1    H     H_    0.642316 0.073647 0.459349 0.121730
H2    H     H_    0.357684 0.073647 0.540651 0.121730
H3    H     H_    0.142316 0.573646 0.459349 0.121730
H4    H     H_    0.857684 0.573647 0.540651 0.121730
H5    H     H_    0.864074 0.068669 0.540157 0.127203
H6    H     H_    0.135926 0.068669 0.459843 0.127203
H7    H     H_    0.364074 0.568669 0.540157 0.127203
H8    H     H_    0.635926 0.568669 0.459843 0.127203
H9    H     H_    0.810728 0.916217 0.472272 0.143189
H10   H     H_    0.189272 0.916217 0.527728 0.143190
H11   H     H_    0.310728 0.416217 0.472273 0.143190
H12   H     H_    0.689272 0.416217 0.527728 0.143190
H13   H     H_    0.047070 0.152193 0.443640 0.134178
H14   H     H_    0.952930 0.152193 0.556360 0.134178
H15   H     H_    0.547070 0.652193 0.443640 0.134178
H16   H     H_    0.452930 0.652193 0.556360 0.134178
H17   H     H_    0.960736 0.160678 0.432925 0.110772
H18   H     H_    0.039264 0.160678 0.567075 0.110772
H19   H     H_    0.460736 0.660678 0.432925 0.110772
H20   H     H_    0.539264 0.660678 0.567075 0.110772
H21   H     H_    0.615887 0.885529 0.459016 0.077041
H22   H     H_    0.384113 0.885529 0.540984 0.077041
H23   H     H_    0.115887 0.385529 0.459016 0.077041
H24   H     H_    0.884113 0.385529 0.540984 0.077041
H25   H     H_    0.598698 0.827877 0.577433 0.121833
H26   H     H_    0.401302 0.827877 0.422567 0.121834
H27   H     H_    0.098698 0.327877 0.577433 0.121834
H28   H     H_    0.901302 0.327877 0.422567 0.121833
H29   H     H_    0.947304 0.494768 0.536902 0.157579
H30   H     H_    0.052696 0.494768 0.463097 0.157580
H31   H     H_    0.447304 0.994768 0.536902 0.157579
H32   H     H_    0.552696 0.994768 0.463097 0.157579
H33   H     H_    0.830942 0.931804 0.063331 0.129409
H34   H     H_    0.169057 0.931804 0.936669 0.129409
H35   H     H_    0.330942 0.431804 0.063331 0.129409
H36   H     H_    0.669057 0.431804 0.936669 0.129409
H37   H     H_    0.675026 0.203424 0.433098 0.178807
H38   H     H_    0.324974 0.203424 0.566902 0.178807
H39   H     H_    0.175026 0.703424 0.433098 0.178808
H40   H     H_    0.824974 0.703424 0.566902 0.178807
H41   H     H_    0.855286 0.078792 0.067723 0.165213
H42   H     H_    0.144714 0.078792 0.932277 0.165213
H43   H     H_    0.355286 0.578792 0.067723 0.165213
H44   H     H_    0.644714 0.578792 0.932277 0.165213
H45   H     H_    0.868298 0.043589 0.950100 0.130552
H46   H     H_    0.131702 0.043589 0.049899 0.130552
H47   H     H_    0.368298 0.543589 0.950100 0.130552
H48   H     H_    0.631702 0.543589 0.049899 0.130552
H49   H     H_    0.806280 0.932368 0.944105 0.178142
H50   H     H_    0.193720 0.932369 0.055895 0.178142
H51   H     H_    0.306279 0.432368 0.944105 0.178142
H52   H     H_    0.693720 0.432369 0.055895 0.178142
H53   H     H_    0.696886 0.918583 0.023487 0.125503
H54   H     H_    0.303114 0.918583 0.976514 0.125504
H55   H     H_    0.196886 0.418583 0.023487 0.125503
H56   H     H_    0.803114 0.418583 0.976514 0.125504
H57   H     H_    0.681910 0.981361 0.907814 0.194124
H58   H     H_    0.318090 0.981362 0.092186 0.194124
H59   H     H_    0.181910 0.481361 0.907814 0.194124
H60   H     H_    0.818090 0.481362 0.092186 0.194124
H61   H     H_    0.683724 0.220336 0.067102 0.138619
H62   H     H_    0.316276 0.220336 0.932897 0.138619
H63   H     H_    0.183724 0.720336 0.067102 0.138619
H64   H     H_    0.816276 0.720336 0.932897 0.138619
H65   H     H_    0.812965 0.242147 0.991433 0.142620
H66   H     H_    0.187035 0.242147 0.008566 0.142620
H67   H     H_    0.312965 0.742147 0.991433 0.142620
H68   H     H_    0.687035 0.742147 0.008566 0.142620
H69   H     H_    0.729176 0.285113 0.960037 0.104028
H70   H     H_    0.270824 0.285113 0.039962 0.104028
H71   H     H_    0.229176 0.785113 0.960037 0.104028
H72   H     H_    0.770824 0.785113 0.039962 0.104028
H73   H     H_    0.638276 0.028300 0.046449 0.117361
H74   H     H_    0.361724 0.028300 0.953551 0.117361
H75   H     H_    0.138276 0.528300 0.046449 0.117361
H76   H     H_    0.861724 0.528300 0.953551 0.117361
H77   H     H_    0.703702 0.247297 0.550795 0.144377
H78   H     H_    0.296297 0.247297 0.449205 0.144377
H79   H     H_    0.203702 0.747297 0.550795 0.144378
H80   H     H_    0.796297 0.747297 0.449205 0.144377
H81   H     H_    0.651235 0.119271 0.935806 0.114292
H82   H     H_    0.348765 0.119271 0.064194 0.114292
H83   H     H_    0.151235 0.619271 0.935806 0.114292
H84   H     H_    0.848765 0.619271 0.064194 0.114292
H85   H     H_    0.035393 0.545450 0.060957 0.137558
H86   H     H_    0.964607 0.545450 0.939043 0.137558
H87   H     H_    0.535393 0.045450 0.060957 0.137558
H88   H     H_    0.464607 0.045450 0.939043 0.137558
H89   H     H_    0.949403 0.514312 0.057876 0.117755
H90   H     H_    0.050597 0.514312 0.942124 0.117755
H91   H     H_    0.449403 0.014312 0.057876 0.117755
H92   H     H_    0.550597 0.014312 0.942124 0.117755
H93   H     H_    0.610530 0.833164 0.047370 0.103312
H94   H     H_    0.389469 0.833164 0.952630 0.103312
H95   H     H_    0.110530 0.333164 0.047370 0.103312
H96   H     H_    0.889470 0.333164 0.952630 0.103312
H97   H     H_    0.599153 0.832785 0.922327 0.180866
H98   H     H_    0.400847 0.832786 0.077673 0.180867
H99   H     H_    0.099153 0.332785 0.922327 0.180866
H100  H     H_    0.900847 0.332786 0.077673 0.180867
H101  H     H_    0.946811 0.197687 0.073255 0.131940
H102  H     H_    0.053189 0.197687 0.926745 0.131940
H103  H     H_    0.446811 0.697688 0.073255 0.131940
H104  H     H_    0.553189 0.697687 0.926745 0.131940
H105  H     H_    0.931689 0.196767 0.951973 0.133753
H106  H     H_    0.068311 0.196767 0.048027 0.133753
H107  H     H_    0.431689 0.696767 0.951973 0.133753
H108  H     H_    0.568311 0.696767 0.048027 0.133753
H109  H     H_    0.653805 0.137964 0.575265 0.114494
H110  H     H_    0.346195 0.137965 0.424735 0.114495
H111  H     H_    0.153805 0.637965 0.575265 0.114495
H112  H     H_    0.846195 0.637965 0.424735 0.114495
H113  H     H_    0.722129 0.875751 0.461320 0.093830
H114  H     H_    0.277871 0.875751 0.538680 0.093831
H115  H     H_    0.222129 0.375750 0.461321 0.093830
H116  H     H_    0.777871 0.375750 0.538680 0.093831
H117  H     H_    0.696021 0.940046 0.573860 0.142113
H118  H     H_    0.303979 0.940046 0.426140 0.142113
H119  H     H_    0.196021 0.440046 0.573860 0.142113
H120  H     H_    0.803979 0.440046 0.426140 0.142113
H121  H     H_    0.854415 0.097950 0.420907 0.122888
H122  H     H_    0.145585 0.097950 0.579093 0.122888
H123  H     H_    0.354415 0.597950 0.420907 0.122888
H124  H     H_    0.645585 0.597950 0.579093 0.122888
H125  H     H_    0.801183 0.223724 0.429458 0.150006
H126  H     H_    0.198817 0.223724 0.570542 0.150007
H127  H     H_    0.301183 0.723724 0.429458 0.150006
H128  H     H_    0.698817 0.723724 0.570542 0.150007
H129  H     H_    0.842178 0.219074 0.548650 0.108119
H130  H     H_    0.157822 0.219074 0.451349 0.108119
H131  H     H_    0.342178 0.719074 0.548650 0.108119
H132  H     H_    0.657822 0.719074 0.451349 0.108119
O1    O     O_R   0.957210 0.449410 0.665480 -0.489000
O2    O     O_R   0.042790 0.449410 0.334520 -0.489000
O3    O     O_R   0.457210 0.949410 0.665480 -0.489000
O4    O     O_R   0.542790 0.949410 0.334520 -0.489000
O5    O     O_R   0.736260 0.212010 0.826560 -0.515944
O6    O     O_R   0.263740 0.212010 0.173440 -0.515944
O7    O     O_R   0.236260 0.712010 0.826560 -0.515944
O8    O     O_R   0.763740 0.712010 0.173440 -0.515944
O9    O     O_R   0.832520 0.095300 0.836000 -0.515600
O10   O     O_R   0.167480 0.095300 0.164000 -0.515600
O11   O     O_R   0.332520 0.595300 0.836000 -0.515600
O12   O     O_R   0.667480 0.595300 0.164000 -0.515600
O13   O     O_R   0.946380 0.253940 0.826940 -0.512362
O14   O     O_R   0.053620 0.253940 0.173060 -0.512362
O15   O     O_R   0.446380 0.753940 0.826940 -0.512362
O16   O     O_R   0.553620 0.753940 0.173060 -0.512362
O17   O     O_3   0.834560 0.334570 0.748840 -0.303629
O18   O     O_3   0.165440 0.334570 0.251160 -0.303629
O19   O     O_3   0.334560 0.834570 0.748840 -0.303629
O20   O     O_3   0.665440 0.834570 0.251160 -0.303629
O21   O     O_R   0.820730 0.541240 0.668250 -0.507128
O22   O     O_R   0.179270 0.541240 0.331750 -0.507128
O23   O     O_R   0.320730 0.041240 0.668250 -0.507128
O24   O     O_R   0.679270 0.041240 0.331750 -0.507128
O25   O     O_R   0.714240 0.455060 0.663710 -0.527569
O26   O     O_R   0.285760 0.455060 0.336290 -0.527569
O27   O     O_R   0.214240 0.955060 0.663710 -0.527569
O28   O     O_R   0.785760 0.955060 0.336290 -0.527569
O29   O     O_R   0.736780 0.204870 0.675910 -0.518821
O30   O     O_R   0.263220 0.204870 0.324090 -0.518821
O31   O     O_R   0.236780 0.704870 0.675910 -0.518821
O32   O     O_R   0.763220 0.704870 0.324090 -0.518821
O33   O     O_R   0.833070 0.087590 0.673490 -0.526149
O34   O     O_R   0.166930 0.087590 0.326510 -0.526150
O35   O     O_R   0.333070 0.587590 0.673490 -0.526150
O36   O     O_R   0.666930 0.587590 0.326510 -0.526150
O37   O     O_R   0.946890 0.246800 0.676300 -0.522996
O38   O     O_R   0.053110 0.246800 0.323700 -0.522996
O39   O     O_R   0.446890 0.746800 0.676300 -0.522996
O40   O     O_R   0.553110 0.746800 0.323700 -0.522996
O41   O     O_R   0.956650 0.457120 0.827980 -0.530612
O42   O     O_R   0.043350 0.457120 0.172020 -0.530611
O43   O     O_R   0.456650 0.957120 0.827980 -0.530612
O44   O     O_R   0.543350 0.957120 0.172020 -0.530611
O45   O     O_R   0.820220 0.548390 0.818890 -0.492174
O46   O     O_R   0.179780 0.548390 0.181110 -0.492174
O47   O     O_R   0.320220 0.048390 0.818890 -0.492174
O48   O     O_R   0.679780 0.048390 0.181110 -0.492174
O49   O     O_R   0.713680 0.462770 0.826210 -0.520638
O50   O     O_R   0.286320 0.462770 0.173790 -0.520638
O51   O     O_R   0.213680 0.962770 0.826210 -0.520638
O52   O     O_R   0.786320 0.962770 0.173790 -0.520638
N1    N     N_3   0.792512 0.885858 0.603468 -0.685128
H133  H     H_    0.843524 0.908190 0.599511 0.250165
H134  H     H_    0.778385 0.888043 0.657046 0.273606
N2    N     N_3   0.207488 0.885858 0.396532 -0.685128
H135  H     H_    0.156476 0.908191 0.400488 0.250166
H136  H     H_    0.221616 0.888043 0.342954 0.273606
N3    N     N_3   0.292512 0.385858 0.603468 -0.685128
H137  H     H_    0.343524 0.408190 0.599511 0.250165
H138  H     H_    0.278385 0.388043 0.657046 0.273606
N4    N     N_3   0.707488 0.385858 0.396532 -0.685128
H139  H     H_    0.656476 0.408191 0.400488 0.250166
H140  H     H_    0.721616 0.388043 0.342954 0.273606
N5    N     N_3   0.936509 0.497525 0.402846 -0.637954
H141  H     H_    0.894475 0.499991 0.368252 0.237046
H142  H     H_    0.945679 0.572699 0.432994 0.222628
N6    N     N_3   0.063491 0.497525 0.597154 -0.637956
H143  H     H_    0.105525 0.499991 0.631748 0.237046
H144  H     H_    0.054320 0.572699 0.567006 0.222628
N7    N     N_3   0.436509 0.997525 0.402846 -0.637955
H145  H     H_    0.394474 0.999991 0.368252 0.237046
H146  H     H_    0.445680 0.072699 0.432994 0.222628
N8    N     N_3   0.563491 0.997525 0.597154 -0.637955
H147  H     H_    0.605525 0.999991 0.631748 0.237046
H148  H     H_    0.554320 0.072699 0.567006 0.222628
Cl1   Cl    Cl    0.783207 0.272031 0.130041 -0.726600
Cl2   Cl    Cl    0.216793 0.272030 0.869958 -0.726599
Cl3   Cl    Cl    0.283207 0.772031 0.130041 -0.726600
Cl4   Cl    Cl    0.716793 0.772030 0.869958 -0.726599

loop_
_geom_bond_atom_site_label_1
_geom_bond_atom_site_label_2
_ccdc_geom_bond_type
C82   C94   S    
C119  H11   S    
C7    H127  S    
C120  H12   S    
C41   C61   S    
C53   C69   S    
C43   C63   S    
C44   C64   S    
C85   H101  S    
C86   H99   S    
C50   H46   S    
C63   C98   S    
C51   H51   S    
C28   C40   S    
C115  H79   S    
Cr12  O12   S    
C32   H31   S    
C87   H103  S    
C81   H106  S    
C30   C38   S    
C44   H36   S    
C43   H43   S    
C56   C72   S    
C98   O46   A    
C8    H124  S    
N4    H139  S    
C106  O14   A    
C21   H5    S    
C18   C118  S    
C81   C86   S    
C29   H23   S    
C30   H24   S    
C83   C88   S    
C92   O40   A    
C91   O3    A    
C41   C49   S    
C49   H45   S    
C109  H1    S    
N3    H137  S    
C70   H82   S    
C46   O34   A    
Cr1   O1    S    
N7    H146  S    
C26   C38   S    
C59   H63   S    
C14   C114  S    
C82   H96   S    
Cr4   O4    S    
C24   H8    S    
C15   C19   S    
C79   H87   S    
C54   C70   S    
C23   H131  S    
C16   C20   S    
Cr9   O37   S    
C1    O25   A    
C98   O50   A    
C102  O10   A    
C32   H22   S    
C64   C97   S    
C15   C115  S    
Cr6   O50   S    
C70   H58   S    
Cr7   O31   S    
Cr8   O32   S    
Cr1   O41   S    
Cr6   O6    S    
C52   H52   S    
C36   N8    S    
C118  H114  S    
C57   C61   S    
C82   C85   S    
C59   C63   S    
C60   C64   S    
C13   C45   S    
C77   H85   S    
C66   C70   S    
C78   C94   S    
Cr9   O33   S    
C95   C108  S    
C62   C99   S    
C92   O4    A    
C5    C21   S    
C108  O44   A    
C84   H94   S    
C57   H61   S    
C31   C36   S    
C48   O36   A    
C55   C71   S    
N2    H136  S    
Cr6   O30   S    
Cr7   O51   S    
C116  H112  S    
C65   C101  S    
C111  H3    S    
Cr11  O19   S    
C67   C103  S    
C37   C90   S    
Cr10  O34   S    
Cr11  O39   S    
C22   H130  S    
C100  O48   A    
C20   H120  S    
C66   C74   S    
Cr6   O18   S    
C25   H17   S    
C57   C73   S    
C26   H14   S    
C119  H115  S    
C53   C61   S    
C106  O42   A    
C74   H66   S    
C55   C63   S    
C56   C64   S    
C10   C110  S    
C2    O26   A    
C34   N6    S    
C47   O31   A    
C104  O12   A    
C48   O32   A    
C33   H28   S    
C89   O37   A    
C34   H27   S    
C44   C52   S    
C91   O39   A    
Cr7   O7    S    
Cr8   O8    S    
C50   H50   S    
C1    C12   S    
Cr1   O17   S    
C112  H4    S    
C51   H47   S    
C2    C11   S    
C109  H37   S    
Cr4   O20   S    
Cr12  O16   S    
N6    H143  S    
C42   H42   S    
C75   H71   S    
C25   C26   S    
C101  O5    A    
N7    H145  S    
C87   C95   S    
N3    H138  S    
C103  O7    A    
C8    H128  S    
C5    C9    S    
C93   C106  S    
C8    C12   S    
C5    H125  S    
C51   C67   S    
C36   H25   S    
C78   H90   S    
C49   H49   S    
C114  H110  S    
C42   C50   S    
N8    H148  S    
C54   H54   S    
Cr4   O44   S    
C61   C100  S    
C67   C75   S    
Cr8   O20   S    
C112  C116  S    
Cr2   O2    S    
C21   H129  S    
C41   H41   S    
C31   H32   S    
Cr12  O36   S    
C17   N1    S    
C29   H30   S    
C44   H44   S    
Cr5   O17   S    
C79   H91   S    
C75   H67   S    
C68   C76   S    
C55   H75   S    
C13   C17   S    
C14   C22   S    
C99   O51   A    
C113  H77   S    
C19   H119  S    
C71   H83   S    
C17   H117  S    
C8    C24   S    
C89   O1    A    
C40   C91   S    
Cr5   O25   S    
C110  H2    S    
C84   H107  S    
Cr8   O28   S    
C41   H33   S    
Cr1   O45   S    
Cr2   O42   S    
Cr3   O47   S    
C120  H116  S    
C71   H59   S    
C4    C9    S    
C72   H60   S    
C58   C62   S    
C88   C96   S    
C94   C105  S    
Cr9   O9    S    
C12   C112  S    
Cr11  O35   S    
C1    O21   A    
C14   C46   S    
C77   C78   S    
C3    O23   A    
C58   C74   S    
C86   H102  S    
C33   N5    S    
C6    C22   S    
C82   H105  S    
C9    C117  S    
N1    H134  S    
C14   C18   S    
Cr6   O26   S    
C99   O47   A    
C54   H74   S    
C20   C120  S    
C15   C47   S    
Cr10  O10   S    
Cr11  O15   S    
C17   C117  S    
C42   C62   S    
C88   H97   S    
C19   C119  S    
Cr10  O38   S    
C18   N2    S    
C16   C116  S    
C100  O52   A    
C9    C109  S    
C117  H9    S    
C59   Cl3   S    
C28   H16   S    
C11   C111  S    
C26   H18   S    
C69   H81   S    
C74   H70   S    
C107  O43   A    
C29   C34   S    
C58   H62   S    
C33   C37   S    
C68   C72   S    
C45   O33   A    
C35   C39   S    
C4    O28   A    
C79   C95   S    
C80   H92   S    
C111  C115  S    
C90   O38   A    
Cr5   O29   S    
C56   H76   S    
C107  O15   A    
C60   Cl4   S    
Cr1   O21   S    
Cr2   O18   S    
Cr3   O23   S    
C110  H38   S    
Cr12  O20   S    
C96   C107  S    
C43   H35   S    
C39   C92   S    
C27   H19   S    
C102  O6    A    
C7    H123  S    
C68   C104  S    
C6    C10   S    
C117  H113  S    
C87   H98   S    
C54   C62   S    
C22   H6    S    
C6    H126  S    
Cr4   O24   S    
C35   H26   S    
C116  H80   S    
C78   H86   S    
C43   C51   S    
C112  H40   S    
C73   H69   S    
C65   C69   S    
C58   Cl2   S    
C77   C93   S    
C60   C76   S    
Cr4   O48   S    
C67   C71   S    
C103  O11   A    
Cr3   O3    S    
Cr12  O40   S    
C29   C37   S    
C30   H29   S    
C42   H34   S    
C97   O45   A    
C105  O13   A    
N5    H141  S    
C66   C102  S    
C47   O35   A    
C84   C87   S    
C3    O27   A    
C11   C119  S    
C16   C48   S    
C104  O8    A    
C7    C11   S    
C38   C89   S    
C4    O24   A    
C49   C65   S    
C23   H7    S    
C90   O2    A    
N6    H144  S    
C7    C23   S    
C5    H121  S    
Cr2   O46   S    
C65   C73   S    
C6    H122  S    
Cr3   O43   S    
C84   C96   S    
Cr7   O19   S    
C53   H53   S    
C86   C94   S    
C25   C37   S    
C12   C120  S    
C56   H56   S    
C27   C39   S    
C73   H65   S    
C53   H73   S    
Cr9   O13   S    
C55   H55   S    
C80   C96   S    
C111  H39   S    
C52   C68   S    
C109  C113  S    
C2    O22   A    
C15   C23   S    
C16   C24   S    
C97   O49   A    
C101  O9    A    
C85   H100  S    
C85   C93   S    
C35   N7    S    
C31   H21   S    
C57   Cl1   S    
C88   H104  S    
C13   C21   S    
C32   C35   S    
C36   C40   S    
Cr5   O49   S    
C76   H68   S    
C69   H57   S    
Cr7   O27   S    
Cr8   O52   S    
Cr5   O5    S    
Cr10  O14   S    
C52   H48   S    
Cr11  O11   S    
C10   C118  S    
C81   C93   S    
C83   C95   S    
C24   H132  S    
N5    H142  S    
Cr9   O17   S    
C50   C66   S    
C115  H111  S    
C77   H89   S    
C28   H20   S    
C113  H109  S    
C59   C75   S    
C60   H64   S    
C83   H93   S    
C110  C114  S    
C81   H95   S    
C30   C33   S    
C72   H84   S    
C34   C38   S    
C45   O29   A    
C118  H10   S    
C80   H88   S    
N4    H140  S    
C76   H72   S    
C19   N3    S    
C46   O30   A    
C83   H108  S    
N2    H135  S    
C114  H78   S    
Cr2   O22   S    
Cr10  O18   S    
C3    C10   S    
Cr3   O19   S    
C20   N4    S    
C18   H118  S    
C31   C39   S    
C32   C40   S    
N1    H133  S    
C79   C80   S    
C27   H15   S    
N8    H147  S    
C27   C28   S    
C25   H13   S    
C108  O16   A    
C13   C113  S    
C105  O41   A    
