data_mof_unit_2469.cif
_audit_creation_date              2012-10-26T18:47:54-0400
_audit_creation_method            fapswitch 2.2
_symmetry_space_group_name_H-M    P1
_symmetry_Int_Tables_number       1
_space_group_crystal_system       triclinic
_cell_length_a                    15.850734
_cell_length_b                    8.739492
_cell_length_c                    7.432963
_cell_angle_alpha                 101.872578
_cell_angle_beta                  94.206609
_cell_angle_gamma                 92.254112
_cell_volume                      1003.3634524

loop_
_atom_site_label
_atom_site_type_symbol
_atom_type_description
_atom_site_fract_x
_atom_site_fract_y
_atom_site_fract_z
_atom_type_partial_charge
C1    C     C_R   0.499400 0.201010 0.455672 0.607271
C2    C     C_2   0.482142 0.959565 0.559476 0.192152
C3    C     C_R   0.340322 0.499080 0.502300 0.581265
C4    C     C_R   0.499185 0.798625 0.544014 0.538160
C5    C     C_R   0.659696 0.500311 0.497622 0.525403
C6    C     C_3   0.054184 0.513457 0.701029 -0.200267
C7    C     C_3   0.040542 0.332973 0.381078 0.177871
C8    C     C_3   0.942346 0.338363 0.376219 -0.176413
C9    C     C_1   0.749175 0.498910 0.492873 -0.021918
C10   C     C_3   0.082774 0.489133 0.502629 0.027880
C11   C     C_3   0.571896 0.969661 0.292524 -0.387936
C12   C     C_3   0.956271 0.508981 0.695570 -0.219813
C13   C     C_3   0.916911 0.494287 0.494994 0.012566
C14   C     C_3   0.953374 0.631630 0.416665 -0.224167
C15   C     C_3   0.050908 0.626755 0.417559 -0.254775
C16   C     C_1   0.824728 0.497245 0.492378 -0.070388
C17   C     C_1   0.175167 0.492685 0.506391 0.001104
C18   C     C_1   0.250817 0.496248 0.506571 0.052206
C19   C     C_2   0.513053 0.038383 0.437517 -0.043985
Cu1   Cu    Cu3+1 0.509300 0.517380 0.684380 1.055349
Cu2   Cu    Cu3+1 0.490700 0.482620 0.315620 1.040462
H1    H     H_    0.933133 0.408154 0.752289 0.157224
H2    H     H_    0.915676 0.326864 0.230951 0.093096
H3    H     H_    0.080784 0.740181 0.497641 0.169135
H4    H     H_    0.069491 0.613495 0.273798 0.134903
H5    H     H_    0.936652 0.745282 0.501123 0.156186
H6    H     H_    0.604541 0.062277 0.236345 0.152912
H7    H     H_    0.622300 0.906080 0.353009 0.105788
H8    H     H_    0.535046 0.890216 0.174885 0.192876
H9    H     H_    0.309221 0.849256 0.639246 0.334588
H10   H     H_    0.052391 0.035662 0.669340 0.369282
H11   H     H_    0.080552 0.628822 0.783116 0.126349
H12   H     H_    0.936329 0.617495 0.785425 0.125802
H13   H     H_    0.925362 0.624484 0.273185 0.133011
H14   H     H_    0.429380 0.390048 0.951660 0.299087
H15   H     H_    0.569215 0.613541 0.049038 0.228977
H16   H     H_    0.079267 0.423437 0.773267 0.200959
H17   H     H_    0.058902 0.324683 0.237751 0.120598
H18   H     H_    0.913648 0.238531 0.426817 0.182115
N1    N     N_2   0.476670 0.456430 0.038530 -0.222507
N2    N     N_2   0.523330 0.543570 0.961470 -0.260857
O1    O     O_R   0.506050 0.286130 0.619770 -0.465077
O2    O     O_2   0.354447 0.151461 0.662648 -0.265670
O3    O     O_3   0.345531 0.882212 0.756316 -0.478920
O4    O     O_2   0.040515 0.018215 0.301577 -0.309812
O5    O     O_2   0.169206 0.155459 0.469278 -0.228537
O6    O     O_3   0.035578 0.139224 0.649270 -0.560974
O7    O     O_R   0.490330 0.256780 0.308370 -0.458863
O8    O     O_R   0.387300 0.514690 0.655770 -0.471509
O9    O     O_R   0.371580 0.485340 0.344370 -0.490410
O10   O     O_R   0.509670 0.743220 0.691630 -0.466676
O11   O     O_R   0.493950 0.713870 0.380230 -0.541552
O12   O     O_R   0.628420 0.514660 0.655630 -0.512379
O13   O     O_R   0.612700 0.485310 0.344230 -0.520087
O14   O     O_2   0.457967 0.102529 0.903941 -0.263795
S1    S     S_3+6 0.408873 0.031391 0.723701 0.045286
S2    S     S_3+6 0.074219 0.156154 0.449040 -0.022577

loop_
_geom_bond_atom_site_label_1
_geom_bond_atom_site_label_2
_ccdc_geom_bond_type
C14   H13   S    
C7    C10   S    
C2    C4    S    
O14   S1    D    
C1    O7    A    
C6    C10   S    
C8    C13   S    
C8    H18   S    
O6    S2    S    
O3    S1    S    
Cu1   O1    S    
O2    S1    D    
C11   H6    S    
Cu2   O7    S    
C11   C19   S    
C17   C18   T    
C3    O8    A    
C6    H16   S    
C7    C8    S    
C2    S1    S    
C13   C14   S    
C14   H5    S    
C5    C9    S    
C5    O13   A    
H9    O3    S    
H15   N2    S    
Cu1   O8    S    
Cu2   N1    S    
C11   H7    S    
C4    O11   A    
C5    O12   A    
N1    N2    D    
C7    H17   S    
Cu1   N2    S    
Cu1   O10   S    
C10   C15   S    
O5    S2    D    
C6    C12   S    
Cu2   O13   S    
O4    S2    D    
C15   H4    S    
C1    C19   S    
C10   C17   S    
H14   N1    S    
C12   H1    S    
C1    O1    A    
C8    H2    S    
Cu1   Cu2   S    
C11   H8    S    
C3    C18   S    
C3    O9    A    
C6    H11   S    
C13   C16   S    
C14   C15   S    
Cu2   O9    S    
H10   O6    S    
C4    O10   A    
C12   C13   S    
C2    C19   D    
C12   H12   S    
C15   H3    S    
C7    S2    S    
Cu2   O11   S    
C9    C16   T    
Cu1   O12   S    
