data_mof_unit_2058.cif
_audit_creation_date              2012-12-11T17:34:21-0500
_audit_creation_method            fapswitch 2.2
_symmetry_space_group_name_H-M    P1
_symmetry_Int_Tables_number       1
_space_group_crystal_system       triclinic
_cell_length_a                    23.758454
_cell_length_b                    7.223133
_cell_length_c                    20.646083
_cell_angle_alpha                 90.010676
_cell_angle_beta                  105.406507
_cell_angle_gamma                 89.998932
_cell_volume                      3415.76413193

loop_
_atom_site_label
_atom_site_type_symbol
_atom_type_description
_atom_site_fract_x
_atom_site_fract_y
_atom_site_fract_z
_atom_type_partial_charge
O1    O     O_R   0.449110 0.494310 0.552140 -0.537707
O2    O     O_R   0.550890 0.994310 0.447860 -0.537721
O3    O     O_R   0.440010 0.824420 0.415850 -0.532708
O4    O     O_R   0.559990 0.324420 0.584150 -0.532722
C1    C     C_R   0.425359 0.655756 0.390969 0.707571
C2    C     C_R   0.574643 0.155777 0.609030 0.707561
O5    O     O_R   0.442260 0.824040 0.549660 -0.540901
O6    O     O_R   0.557740 0.324040 0.450340 -0.540894
O7    O     O_R   0.553160 0.993960 0.582620 -0.532133
O8    O     O_R   0.446840 0.493960 0.417380 -0.532140
C3    C     C_R   0.428668 0.655515 0.567685 0.677596
C4    C     C_R   0.571331 0.155499 0.432316 0.677619
O9    O     O_3   0.536380 0.660670 0.510660 -0.373389
O10   O     O_3   0.463620 0.160670 0.489340 -0.373387
V1    V     V_3+5 0.493250 0.935680 0.498020 1.406161
V2    V     V_3+5 0.506750 0.435680 0.501980 1.406178
C5    C     C_R   0.798112 0.949456 0.140041 -0.217548
C6    C     C_R   0.202068 0.450096 0.860193 -0.217599
H1    H     H_    0.761484 0.855257 0.133681 0.106217
H2    H     H_    0.238854 0.356435 0.866742 0.106172
C7    C     C_R   0.835276 0.935951 0.097118 -0.015513
C8    C     C_R   0.164890 0.436554 0.903101 -0.015407
C9    C     C_R   0.883516 0.059845 0.105930 -0.064423
C10   C     C_R   0.116461 0.559791 0.894050 -0.064300
C11   C     C_R   0.890805 0.197710 0.155859 -0.198717
C12   C     C_R   0.108972 0.697000 0.843880 -0.198658
H3    H     H_    0.926865 0.294423 0.163905 0.121307
H4    H     H_    0.072754 0.793175 0.835650 0.121139
C13   C     C_R   0.852663 0.211285 0.196960 -0.139631
C14   C     C_R   0.147113 0.710586 0.802781 -0.139382
H5    H     H_    0.859574 0.318730 0.234888 0.113590
H6    H     H_    0.140038 0.817511 0.764656 0.113606
C15   C     C_R   0.806345 0.086831 0.189550 0.129730
C16   C     C_R   0.193639 0.586820 0.810444 0.129655
C17   C     C_1   0.766607 0.101570 0.231959 -0.051780
C18   C     C_1   0.233383 0.601595 0.768041 -0.051754
C19   C     C_1   0.733183 0.112973 0.267155 -0.065057
C20   C     C_1   0.266810 0.613023 0.732849 -0.065052
C21   C     C_R   0.670457 0.962867 0.330056 -0.140231
C22   C     C_R   0.329540 0.462923 0.669933 -0.140247
H7    H     H_    0.683061 0.828418 0.315281 0.106047
H8    H     H_    0.316936 0.328476 0.684696 0.106058
C23   C     C_R   0.631314 0.972953 0.370175 -0.168193
C24   C     C_R   0.368683 0.473001 0.629814 -0.168173
H9    H     H_    0.614749 0.844889 0.385238 0.124296
H10   H     H_    0.385246 0.344932 0.614740 0.124306
C25   C     C_R   0.613779 0.145539 0.390290 -0.050868
C26   C     C_R   0.386219 0.645581 0.609713 -0.050878
C27   C     C_R   0.636785 0.307580 0.368981 -0.169767
C28   C     C_R   0.363214 0.807625 0.631037 -0.169779
H11   H     H_    0.624414 0.442947 0.383076 0.121897
H12   H     H_    0.375586 0.942988 0.616954 0.121882
C29   C     C_R   0.675963 0.296993 0.328774 -0.138467
C30   C     C_R   0.324036 0.797046 0.671245 -0.138456
H13   H     H_    0.692879 0.423547 0.312941 0.106422
H14   H     H_    0.307120 0.923602 0.687090 0.106440
C31   C     C_R   0.692975 0.124606 0.309070 0.131316
C32   C     C_R   0.307022 0.624662 0.690935 0.131285
C33   C     C_R   0.641047 0.190554 0.795854 0.431917
C34   C     C_R   0.358934 0.690860 0.204160 0.431850
H15   H     H_    0.555576 0.224819 0.728696 0.119988
H16   H     H_    0.444418 0.724926 0.271314 0.119964
H17   H     H_    0.728295 0.206886 0.909053 0.156743
H18   H     H_    0.271666 0.707607 0.090994 0.156667
C35   C     C_R   0.618282 0.149768 0.675014 -0.098474
C36   C     C_R   0.381721 0.649718 0.324983 -0.098472
C37   C     C_R   0.901361 0.007532 0.768493 -0.165961
C38   C     C_R   0.098646 0.507356 0.231498 -0.165999
C39   C     C_R   0.862655 0.000177 0.704903 -0.120389
C40   C     C_R   0.137359 0.499872 0.295080 -0.120335
C41   C     C_R   0.803446 0.036080 0.695919 -0.153129
C42   C     C_R   0.196564 0.535871 0.304070 -0.153126
C43   C     C_R   0.781091 0.081836 0.750960 0.099663
C44   C     C_R   0.218905 0.581883 0.249045 0.099613
C45   C     C_R   0.821481 0.092370 0.816217 0.067707
C46   C     C_R   0.178503 0.592591 0.183801 0.067790
C47   C     C_R   0.720079 0.116081 0.743405 0.026649
C48   C     C_R   0.279914 0.616184 0.256601 0.026644
C49   C     C_R   0.700996 0.159032 0.801494 0.023463
C50   C     C_R   0.298985 0.659345 0.198526 0.023490
C51   C     C_R   0.741819 0.171431 0.864474 -0.167245
C52   C     C_R   0.258149 0.671965 0.135563 -0.167363
C53   C     C_R   0.800786 0.138943 0.871707 -0.141861
C54   C     C_R   0.199183 0.639461 0.128331 -0.141678
C55   C     C_R   0.677236 0.110196 0.680269 -0.218102
C56   C     C_R   0.322767 0.610154 0.319727 -0.218098
C57   C     C_R   0.600891 0.192076 0.732662 -0.233700
C58   C     C_R   0.399104 0.692171 0.267344 -0.233635
C59   C     C_R   0.881805 0.053747 0.824563 -0.077921
C60   C     C_R   0.118188 0.553822 0.175444 -0.077973
H19   H     H_    0.688242 0.079633 0.634046 0.106448
H20   H     H_    0.311765 0.579512 0.365946 0.106451
H21   H     H_    0.947022 0.976148 0.774098 0.098820
H22   H     H_    0.052990 0.475846 0.225886 0.098830
H23   H     H_    0.776359 0.025719 0.645185 0.107763
H24   H     H_    0.223658 0.525360 0.354797 0.107763
H25   H     H_    0.878635 0.964528 0.662033 0.119586
H26   H     H_    0.121387 0.464014 0.337939 0.119573
H27   H     H_    0.830191 0.150508 0.921551 0.136849
H28   H     H_    0.169769 0.651239 0.078500 0.136996
O11   O     O_R   0.053190 0.709680 0.082610 -0.542525
O12   O     O_R   0.946810 0.209680 0.917390 -0.542440
O13   O     O_R   0.057740 0.380240 0.950340 -0.515835
O14   O     O_R   0.942260 0.880240 0.049660 -0.515930
C61   C     C_R   0.072556 0.548954 0.934096 0.714620
C62   C     C_R   0.927439 0.048970 0.065900 0.714186
O15   O     O_R   0.060000 0.379940 0.084150 -0.519783
O16   O     O_R   0.940000 0.879940 0.915850 -0.519877
O17   O     O_R   0.949110 0.210100 0.052140 -0.547445
O18   O     O_R   0.050890 0.710100 0.947860 -0.547421
C63   C     C_R   0.074756 0.548263 0.109003 0.686420
C64   C     C_R   0.925241 0.048239 0.891000 0.686194
O19   O     O_3   0.963630 0.543720 0.989330 -0.367970
O20   O     O_3   0.036370 0.043720 0.010670 -0.367953
V3    V     V_3+5 0.006750 0.268680 0.001980 1.480778
V4    V     V_3+5 0.993250 0.768680 0.998020 1.480634
O21   O     O_3   0.621461 0.232150 0.851617 -0.577870
C65   C     C_3   0.611410 0.066139 0.883377 0.056532
H29   H     H_    0.619330 0.096165 0.937843 0.147630
H30   H     H_    0.642043 0.951921 0.879441 0.118225
C66   C     C_3   0.547995 0.002165 0.855964 -0.316441
H31   H     H_    0.518012 0.117205 0.859941 0.205569
H32   H     H_    0.539836 0.963309 0.802220 0.188350
C67   C     C_3   0.534808 0.834985 0.894694 -0.809313
H33   H     H_    0.563794 0.717370 0.890558 0.245778
H34   H     H_    0.488750 0.791529 0.873451 0.232487
H35   H     H_    0.541223 0.870641 0.948512 0.228352
O22   O     O_3   0.378505 0.732632 0.148403 -0.577872
C68   C     C_3   0.388542 0.566718 0.116558 0.056526
H36   H     H_    0.380487 0.596792 0.062078 0.147477
H37   H     H_    0.357994 0.452317 0.120568 0.118150
C69   C     C_3   0.452005 0.503042 0.143780 -0.316146
H38   H     H_    0.481903 0.618217 0.139687 0.205544
H39   H     H_    0.460314 0.464264 0.197547 0.188330
C70   C     C_3   0.465158 0.335895 0.104993 -0.809447
H40   H     H_    0.436278 0.218122 0.109269 0.245708
H41   H     H_    0.511264 0.292711 0.126076 0.232473
H42   H     H_    0.458566 0.371470 0.051140 0.228336
C71   C     C_2   0.819551 0.796245 0.042581 0.343958
H43   H     H_    0.794391 0.675203 0.048801 0.048388
O23   O     O_2   0.831295 0.818537 0.989058 -0.533145
C72   C     C_2   0.180802 0.297553 0.957859 0.343254
H44   H     H_    0.206400 0.177189 0.951983 0.048539
O24   O     O_2   0.168703 0.319718 0.011199 -0.533263

loop_
_geom_bond_atom_site_label_1
_geom_bond_atom_site_label_2
_ccdc_geom_bond_type
C70   H42   S    
C61   O18   A    
C29   H13   S    
O12   C64   A    
O1    C3    A    
O2    C4    A    
O22   C68   S    
C46   C54   A    
C2    O7    A    
O14   C62   A    
O20   V3    S    
C34   C58   A    
C70   H40   S    
C25   C27   A    
O5    C3    A    
C59   C64   S    
C28   C30   A    
C44   C46   A    
H17   C51   S    
C45   C59   A    
C17   C19   T    
C10   C12   A    
C36   C58   A    
C48   C50   A    
C41   H23   S    
C21   C31   A    
C13   C15   A    
C37   C59   A    
C72   H44   S    
C39   C41   A    
C65   H29   S    
C66   C67   S    
O12   V3    S    
H15   C57   S    
C5    H1    S    
O14   V4    S    
C45   C53   A    
C2    C35   S    
C69   H38   S    
C27   H11   S    
C38   C60   A    
C16   C18   S    
O19   V4    S    
C48   C56   A    
C22   H8    S    
C47   C55   A    
O6    V2    S    
C53   H27   S    
C43   C45   A    
C3    C26   S    
C69   H39   S    
C5    C15   A    
C60   C63   S    
C4    C25   S    
C51   C53   A    
C24   H10   S    
C35   C57   A    
C65   H30   S    
C47   C49   A    
C11   C13   A    
C30   H14   S    
C22   C32   A    
C14   C16   A    
C54   H28   S    
C34   O22   S    
C42   C44   A    
C33   C49   A    
C49   C51   A    
C29   C31   A    
C21   C23   A    
O5    V1    S    
C9    C62   S    
H16   C58   S    
C5    C7    A    
O16   C64   A    
C37   C39   A    
C65   C66   S    
C42   H24   S    
O4    V2    S    
O13   V3    S    
C6    C16   A    
C28   H12   S    
O6    C4    A    
H18   C52   S    
C8    C72   S    
O13   C61   A    
O1    V2    S    
C20   C32   S    
O2    V1    S    
C23   H9    S    
O15   V3    S    
C66   H31   S    
C67   H35   S    
O4    C2    A    
C12   C14   A    
C52   C54   A    
C7    C9    A    
C8    C10   A    
O11   C63   A    
C7    C71   S    
C55   H19   S    
O18   V4    S    
C72   O24   D    
O3    V1    S    
C67   H34   S    
C68   H36   S    
C30   C32   A    
C70   H41   S    
C34   C50   A    
C6    C8    A    
O15   C63   A    
C1    C36   S    
O3    C1    A    
C36   C56   A    
C40   C42   A    
C71   H43   S    
C35   C55   A    
C11   H3    S    
C38   H22   S    
C12   H4    S    
C68   C69   S    
C18   C20   T    
O7    V1    S    
C1    O8    A    
C13   H5    S    
C56   H20   S    
O21   C65   S    
C14   H6    S    
C71   O23   D    
O16   V4    S    
C69   C70   S    
C27   C29   A    
C26   C28   A    
C15   C17   S    
C50   C52   A    
C6    H2    S    
C9    C11   A    
C33   C57   A    
C66   H32   S    
O17   V3    S    
C33   O21   S    
C24   C26   A    
C22   C24   A    
C21   H7    S    
C38   C40   A    
C44   C48   A    
O9    V2    S    
C41   C43   A    
C37   H21   S    
O11   V4    S    
C43   C47   A    
O10   V1    S    
O8    V2    S    
C10   C61   S    
C23   C25   A    
C19   C31   S    
C40   H26   S    
C46   C60   A    
C67   H33   S    
C68   H37   S    
C62   O17   A    
C39   H25   S    
