data_mof_unit_2172.cif
_audit_creation_date              2012-12-11T15:17:52-0500
_audit_creation_method            fapswitch 2.2
_symmetry_space_group_name_H-M    P1
_symmetry_Int_Tables_number       1
_space_group_crystal_system       triclinic
_cell_length_a                    15.743887
_cell_length_b                    15.72036
_cell_length_c                    34.472118
_cell_angle_alpha                 90.182217
_cell_angle_beta                  89.701716
_cell_angle_gamma                 119.740481
_cell_volume                      7407.92965983

loop_
_atom_site_label
_atom_site_type_symbol
_atom_type_description
_atom_site_fract_x
_atom_site_fract_y
_atom_site_fract_z
_atom_type_partial_charge
C1    C     C_R   0.578426 0.441481 0.554941 0.555399
C2    C     C_R   0.558615 0.137125 0.554961 0.556391
C3    C     C_R   0.862792 0.421489 0.554973 0.567756
C4    C     C_R   0.441369 0.578351 0.054846 0.553044
C5    C     C_R   0.137238 0.558808 0.055174 0.553446
C6    C     C_R   0.421436 0.863228 0.054844 0.553326
C7    C     C_R   0.987361 0.499579 0.711943 0.348757
C8    C     C_R   0.500033 0.488228 0.711980 0.348860
C9    C     C_R   0.511923 0.012363 0.711936 0.348763
C10   C     C_R   0.507989 0.004119 0.209685 0.350203
C11   C     C_R   0.496933 0.491058 0.209335 0.349244
C12   C     C_R   0.924486 0.470451 0.199336 0.346017
C13   C     C_R   0.010103 0.434787 0.853175 -0.116496
C14   C     C_R   0.566363 0.573538 0.853286 -0.116585
C15   C     C_R   0.426064 0.992008 0.853517 -0.116579
C16   C     C_R   0.440114 0.020044 0.351290 -0.116267
C17   C     C_R   0.584170 0.559423 0.350431 -0.119915
C18   C     C_R   0.838506 0.342444 0.335590 -0.113871
C19   C     C_R   0.042278 0.446795 0.891355 -0.128716
C20   C     C_R   0.554044 0.594182 0.891478 -0.128883
C21   C     C_R   0.405705 0.959534 0.891709 -0.128754
C22   C     C_R   0.449851 0.047423 0.390102 -0.126348
C23   C     C_R   0.601050 0.549910 0.389302 -0.132737
C24   C     C_R   0.827777 0.332602 0.375733 -0.126964
C25   C     C_R   0.074113 0.614249 0.890601 -0.130210
C26   C     C_R   0.387230 0.459083 0.890829 -0.130399
C27   C     C_R   0.540052 0.925705 0.890372 -0.130366
C28   C     C_R   0.616476 0.077640 0.389554 -0.136515
C29   C     C_R   0.463785 0.384136 0.389448 -0.128523
C30   C     C_R   0.828201 0.486609 0.379687 -0.128493
C31   C     C_R   0.041897 0.602237 0.852325 -0.117213
C32   C     C_R   0.399541 0.438428 0.852546 -0.117382
C33   C     C_R   0.560422 0.958180 0.852079 -0.117229
C34   C     C_R   0.606892 0.050583 0.350566 -0.120266
C35   C     C_R   0.446732 0.393746 0.350485 -0.115906
C36   C     C_R   0.839996 0.497042 0.339432 -0.115025
C37   C     C_R   0.014150 0.513858 0.832725 0.034720
C38   C     C_R   0.487626 0.498734 0.832874 0.034890
C39   C     C_R   0.500444 0.986972 0.832762 0.034771
C40   C     C_R   0.520078 0.026082 0.330672 0.036090
C41   C     C_R   0.509639 0.479948 0.330229 0.035169
C42   C     C_R   0.846406 0.425525 0.317021 0.036134
C43   C     C_R   0.079015 0.538048 0.909711 0.022488
C44   C     C_R   0.462839 0.540308 0.909838 0.022399
C45   C     C_R   0.459425 0.921570 0.909760 0.022495
C46   C     C_R   0.539713 0.081314 0.408952 0.025024
C47   C     C_R   0.543929 0.460635 0.408603 0.023788
C48   C     C_R   0.824158 0.405231 0.398297 0.020042
C49   C     C_R   0.578411 0.442094 0.445425 0.542736
C50   C     C_R   0.558084 0.135789 0.445512 0.544499
C51   C     C_R   0.809949 0.392020 0.440680 0.567461
C52   C     C_R   0.442375 0.577881 0.945619 0.552434
C53   C     C_R   0.135739 0.557829 0.945598 0.553510
C54   C     C_R   0.422114 0.864363 0.945609 0.552754
C55   C     C_R   0.916509 0.455151 0.591682 0.022346
C56   C     C_R   0.544226 0.462116 0.591596 0.022457
C57   C     C_R   0.538172 0.082976 0.591643 0.022482
C58   C     C_R   0.456573 0.920478 0.090793 0.022562
C59   C     C_R   0.462965 0.542606 0.090712 0.022737
C60   C     C_R   0.072329 0.533756 0.089349 0.021518
C61   C     C_R   0.947294 0.396555 0.610804 -0.128052
C62   C     C_R   0.602396 0.551221 0.610817 -0.128717
C63   C     C_R   0.449374 0.053296 0.611118 -0.128450
C64   C     C_R   0.399072 0.953249 0.109761 -0.129560
C65   C     C_R   0.553639 0.598551 0.108972 -0.128999
C66   C     C_R   0.026743 0.438347 0.104498 -0.129397
C67   C     C_R   0.976031 0.414681 0.649443 -0.116418
C68   C     C_R   0.584079 0.561953 0.649518 -0.116588
C69   C     C_R   0.438711 0.024470 0.649778 -0.116355
C70   C     C_R   0.419952 0.987038 0.147796 -0.116515
C71   C     C_R   0.566911 0.577543 0.146895 -0.116114
C72   C     C_R   0.974498 0.416741 0.139271 -0.116984
C73   C     C_R   0.974681 0.491842 0.669565 0.035082
C74   C     C_R   0.507184 0.483828 0.669553 0.035321
C75   C     C_R   0.516576 0.024613 0.669542 0.035204
C76   C     C_R   0.498661 0.988573 0.167448 0.035467
C77   C     C_R   0.489696 0.500270 0.167168 0.035009
C78   C     C_R   0.967104 0.490225 0.159801 0.033521
C79   C     C_R   0.952678 0.555901 0.649380 -0.116567
C80   C     C_R   0.443215 0.398322 0.649223 -0.116742
C81   C     C_R   0.601896 0.045265 0.648983 -0.116852
C82   C     C_R   0.561650 0.964763 0.147189 -0.116954
C83   C     C_R   0.402179 0.438709 0.147620 -0.117578
C84   C     C_R   0.008483 0.584540 0.143605 -0.116917
C85   C     C_R   0.923731 0.537643 0.610690 -0.129697
C86   C     C_R   0.461647 0.387519 0.610477 -0.129708
C87   C     C_R   0.612645 0.074316 0.610283 -0.129975
C88   C     C_R   0.540708 0.930888 0.109108 -0.130618
C89   C     C_R   0.388893 0.459766 0.109636 -0.130700
C90   C     C_R   0.060539 0.606072 0.108667 -0.131148
C91   C     C_R   0.999472 0.506968 0.790443 0.348567
C92   C     C_R   0.494144 0.491364 0.790541 0.348734
C93   C     C_R   0.508010 0.001375 0.790457 0.348635
C94   C     C_R   0.514993 0.015161 0.288208 0.348335
C95   C     C_R   0.503202 0.484718 0.287804 0.348205
C96   C     C_R   0.867136 0.439548 0.274923 0.350006
Cr1   Cr    Cr6+3 0.522350 0.263930 0.500020 1.012199
Cr2   Cr    Cr6+3 0.736070 0.258420 0.500020 1.012370
Cr3   Cr    Cr6+3 0.741580 0.477650 0.500020 1.016288
Cr4   Cr    Cr6+3 0.263930 0.522350 0.000020 1.018505
Cr5   Cr    Cr6+3 0.258420 0.736070 0.000020 1.019329
Cr6   Cr    Cr6+3 0.477650 0.741580 0.000020 1.018145
H1    H     H_    0.943393 0.333040 0.596706 0.132592
H2    H     H_    0.665865 0.610377 0.596781 0.131830
H3    H     H_    0.390359 0.058275 0.597301 0.131891
H4    H     H_    0.334476 0.947188 0.096113 0.131141
H5    H     H_    0.612448 0.662096 0.094839 0.131541
H6    H     H_    0.033886 0.380882 0.090080 0.131183
H7    H     H_    0.900989 0.584427 0.596514 0.129640
H8    H     H_    0.415075 0.318295 0.596184 0.129488
H9    H     H_    0.681667 0.096085 0.595812 0.129196
H10   H     H_    0.586882 0.907010 0.094955 0.128967
H11   H     H_    0.318498 0.414827 0.096050 0.129880
H12   H     H_    0.094661 0.680226 0.097575 0.128325
H13   H     H_    0.994575 0.365190 0.664027 0.139990
H14   H     H_    0.633400 0.629606 0.664234 0.139890
H15   H     H_    0.371231 0.006933 0.664665 0.139987
H16   H     H_    0.371167 0.006812 0.162422 0.140004
H17   H     H_    0.635951 0.625186 0.160950 0.140785
H18   H     H_    0.943002 0.343131 0.150722 0.139826
H19   H     H_    0.952179 0.616712 0.664006 0.139679
H20   H     H_    0.382534 0.337384 0.663788 0.139641
H21   H     H_    0.662665 0.044757 0.663329 0.139478
H22   H     H_    0.623604 0.966414 0.161420 0.139735
H23   H     H_    0.341779 0.377845 0.162337 0.139500
H24   H     H_    0.003803 0.642738 0.158577 0.138879
H25   H     H_    0.044567 0.664093 0.837456 0.139784
H26   H     H_    0.338001 0.379345 0.837704 0.139838
H27   H     H_    0.619133 0.954776 0.836969 0.139902
H28   H     H_    0.669301 0.054462 0.335550 0.135261
H29   H     H_    0.387927 0.331678 0.335756 0.140289
H30   H     H_    0.844798 0.561402 0.325937 0.140424
N1    N     N_R   0.993654 0.429570 0.770642 -0.224451
N2    N     N_R   0.570950 0.562876 0.770751 -0.224508
N3    N     N_R   0.437019 0.008244 0.770985 -0.224537
N4    N     N_R   0.438645 0.011342 0.268661 -0.225389
N5    N     N_R   0.576325 0.559292 0.267671 -0.224847
N6    N     N_R   0.865613 0.366753 0.253128 -0.220424
N7    N     N_R   0.987378 0.425787 0.732206 -0.224249
N8    N     N_R   0.574021 0.561134 0.732271 -0.224304
N9    N     N_R   0.439127 0.013988 0.732533 -0.224134
N10   N     N_R   0.435036 0.005579 0.230215 -0.225103
N11   N     N_R   0.573091 0.562577 0.229246 -0.222765
N12   N     N_R   0.893648 0.381866 0.216147 -0.224424
N13   N     N_R   0.992786 0.576965 0.731707 -0.224049
N14   N     N_R   0.423264 0.416321 0.731730 -0.224135
N15   N     N_R   0.583303 0.005905 0.731368 -0.224254
N16   N     N_R   0.584744 0.008372 0.229182 -0.221557
N17   N     N_R   0.423887 0.416062 0.229427 -0.224983
N18   N     N_R   0.923889 0.542710 0.220864 -0.224238
N19   N     N_R   0.999401 0.580906 0.770216 -0.224210
N20   N     N_R   0.420041 0.418239 0.770283 -0.224247
N21   N     N_R   0.581015 0.999828 0.769894 -0.224194
N22   N     N_R   0.588521 0.014476 0.267717 -0.223607
N23   N     N_R   0.427274 0.412605 0.267925 -0.223904
N24   N     N_R   0.895654 0.527529 0.257898 -0.220639
O1    O     O_R   0.498680 0.159540 0.541860 -0.518020
O2    O     O_R   0.840460 0.339140 0.541860 -0.514275
O3    O     O_R   0.660860 0.501320 0.541860 -0.519023
O4    O     O_R   0.159540 0.498680 0.041860 -0.520785
O5    O     O_R   0.339140 0.840460 0.041860 -0.521643
O6    O     O_R   0.501320 0.660860 0.041860 -0.521064
O7    O     O_R   0.532760 0.358060 0.540030 -0.502467
O8    O     O_R   0.641940 0.174700 0.540030 -0.504589
O9    O     O_R   0.825300 0.467240 0.540030 -0.498840
O10   O     O_R   0.358060 0.532760 0.040030 -0.506260
O11   O     O_R   0.174700 0.641940 0.040030 -0.505016
O12   O     O_R   0.467240 0.825300 0.040030 -0.505512
O13   O     O_R   0.498590 0.161190 0.456930 -0.520378
O14   O     O_R   0.838810 0.337400 0.456930 -0.512413
O15   O     O_R   0.662600 0.501410 0.456930 -0.534853
O16   O     O_R   0.161190 0.498590 0.956930 -0.521774
O17   O     O_R   0.337400 0.838810 0.956930 -0.522051
O18   O     O_R   0.501410 0.662600 0.956930 -0.521700
O19   O     O_R   0.532680 0.359580 0.461300 -0.504814
O20   O     O_R   0.640420 0.173100 0.461300 -0.524131
O21   O     O_R   0.826900 0.467320 0.461300 -0.497253
O22   O     O_R   0.359580 0.532680 0.961300 -0.503701
O23   O     O_R   0.173100 0.640420 0.961300 -0.503393
O24   O     O_R   0.467320 0.826900 0.961300 -0.503300
O25   O     O_3   0.666667 0.333333 0.499990 -0.267492
O26   O     O_3   0.333333 0.666667 0.999990 -0.240233
H31   H     H_    0.044026 0.386410 0.905640 0.131099
H32   H     H_    0.614027 0.656284 0.905732 0.131180
H33   H     H_    0.344000 0.958453 0.906236 0.131028
H34   H     H_    0.388965 0.048147 0.404566 0.132817
H35   H     H_    0.662797 0.610417 0.403483 0.131291
H36   H     H_    0.822768 0.268097 0.389146 0.124720
H37   H     H_    0.987115 0.365071 0.839094 0.139926
H38   H     H_    0.635887 0.619933 0.839134 0.139988
H39   H     H_    0.379883 0.015856 0.839656 0.139894
H40   H     H_    0.371441 0.999181 0.336978 0.140129
H41   H     H_    0.632642 0.627549 0.335790 0.139272
H42   H     H_    0.842695 0.285684 0.319253 0.141155
H43   H     H_    0.101400 0.685222 0.904227 0.130107
H44   H     H_    0.316370 0.415768 0.904501 0.130185
H45   H     H_    0.583137 0.897495 0.903775 0.130180
H46   H     H_    0.686105 0.102100 0.403654 0.119124
H47   H     H_    0.418366 0.314560 0.403712 0.131297
H48   H     H_    0.822876 0.542494 0.396216 0.135789

loop_
_geom_bond_atom_site_label_1
_geom_bond_atom_site_label_2
_ccdc_geom_bond_type
C25   C31   A    
C30   H48   S    
C26   C32   A    
Cr1   O19   S    
Cr3   O3    S    
C18   H42   S    
Cr6   O24   S    
C6    C58   S    
Cr5   O17   S    
C27   H45   S    
C36   H30   S    
C31   H25   S    
Cr4   O10   S    
C26   H44   S    
C25   C43   A    
C2    C57   S    
C26   C44   A    
C7    C73   S    
C80   H20   S    
C27   C33   A    
C12   N12   A    
C79   H19   S    
C28   C46   A    
C17   C23   A    
N16   N22   A    
C29   C47   A    
C42   C96   S    
C54   O17   A    
C30   C48   A    
C61   H1    S    
C1    C56   S    
Cr3   O21   S    
C85   H7    S    
C18   C42   A    
N2    N8    A    
C82   C88   A    
C55   C85   A    
C87   H9    S    
C77   C83   A    
C68   C74   A    
C38   C92   S    
Cr2   O14   S    
Cr1   O13   S    
C50   O20   A    
C10   N10   A    
Cr5   O11   S    
C67   H13   S    
C39   C93   S    
N4    N10   A    
C16   H40   S    
C53   O16   A    
C17   H41   S    
C11   N17   A    
C48   C51   S    
C59   C89   A    
Cr2   O2    S    
C19   C43   A    
C29   H47   S    
C12   C78   S    
C92   N20   A    
C3    O2    A    
C94   N4    A    
C6    O5    A    
C67   C73   A    
C32   C38   A    
C63   H3    S    
C11   C77   S    
C13   C37   A    
C25   H43   S    
Cr6   O6    S    
C20   H32   S    
C56   C62   A    
C66   H6    S    
C44   C52   S    
C95   N23   A    
C90   H12   S    
N5    N11   A    
Cr4   O22   S    
Cr5   O5    S    
N18   N24   A    
C84   H24   S    
C41   C95   S    
C84   C90   A    
C83   H23   S    
C35   C41   A    
C53   O23   A    
C82   H22   S    
C20   C44   A    
C43   C53   S    
C46   C50   S    
C57   C63   A    
C21   C45   A    
C58   C64   A    
C83   C89   A    
C66   C72   A    
C95   N5    A    
C17   C41   A    
C23   C47   A    
C37   C91   S    
Cr6   O26   S    
C14   C20   A    
C1    O3    A    
C47   C49   S    
C2    O8    A    
C49   O15   A    
C13   H37   S    
C9    N9    A    
C75   C81   A    
C96   N6    A    
Cr1   O7    S    
C65   C71   A    
C9    N15   A    
C62   H2    S    
C28   H46   S    
C31   C37   A    
N13   N19   A    
Cr1   O1    S    
C22   H34   S    
C21   H33   S    
Cr5   O23   S    
C12   N18   A    
C14   C38   A    
Cr2   O20   S    
C61   C67   A    
C24   C48   A    
C56   C86   A    
C91   N1    A    
C89   H11   S    
C91   N19   A    
C94   N22   A    
C5    O4    A    
C72   H18   S    
C8    C74   S    
C73   C79   A    
C54   O24   A    
C33   C39   A    
C64   H4    S    
C15   C39   A    
C81   C87   A    
C16   C40   A    
C60   C66   A    
N14   N20   A    
C22   C46   A    
C68   H14   S    
C45   C54   S    
N1    N7    A    
C64   C70   A    
C71   H17   S    
C70   C76   A    
C18   C24   A    
C7    N7    A    
C19   H31   S    
C52   O18   A    
C71   C77   A    
Cr4   O26   S    
Cr4   O16   S    
C3    O9    A    
C24   H36   S    
C33   H27   S    
C8    N14   A    
C6    O12   A    
C15   H39   S    
C16   C22   A    
C5    C60   S    
C86   H8    S    
C3    C55   S    
C10   C76   S    
C51   O14   A    
C92   N2    A    
C40   C94   S    
Cr4   O4    S    
C93   N3    A    
C58   C88   A    
C36   C42   A    
Cr2   O8    S    
Cr1   O25   S    
C60   C90   A    
Cr6   O18   S    
C29   C35   A    
C80   C86   A    
C30   C36   A    
C8    N8    A    
C32   H26   S    
Cr2   O25   S    
C93   N21   A    
N17   N23   A    
C35   H29   S    
C63   C69   A    
N6    N12   A    
C59   C65   A    
C88   H10   S    
C23   H35   S    
C27   C45   A    
C96   N24   A    
C15   C21   A    
C70   H16   S    
C2    O1    A    
C76   C82   A    
C55   C61   A    
C4    C59   S    
C69   H15   S    
C79   C85   A    
C4    O10   A    
C69   C75   A    
C50   O13   A    
C4    O6    A    
C62   C68   A    
C5    O11   A    
C1    O7    A    
N15   N21   A    
C52   O22   A    
C78   C84   A    
C81   H21   S    
C28   C34   A    
Cr6   O12   S    
C14   H38   S    
C57   C87   A    
N3    N9    A    
Cr3   O15   S    
C34   H28   S    
C72   C78   A    
C13   C19   A    
C34   C40   A    
Cr3   O25   S    
C74   C80   A    
C9    C75   S    
C7    N13   A    
C51   O21   A    
C11   N11   A    
C65   H5    S    
Cr5   O26   S    
C10   N16   A    
Cr3   O9    S    
C49   O19   A    
