data_mof_unit_4577.cif
_audit_creation_date              2012-12-11T15:43:12-0500
_audit_creation_method            fapswitch 2.2
_symmetry_space_group_name_H-M    P1
_symmetry_Int_Tables_number       1
_space_group_crystal_system       triclinic
_cell_length_a                    19.320861
_cell_length_b                    11.067068
_cell_length_c                    18.812058
_cell_angle_alpha                 89.38866
_cell_angle_beta                  89.515862
_cell_angle_gamma                 89.690876
_cell_volume                      4022.0644432

loop_
_atom_site_label
_atom_site_type_symbol
_atom_type_description
_atom_site_fract_x
_atom_site_fract_y
_atom_site_fract_z
_atom_type_partial_charge
C1    C     C_R   0.727317 0.370757 0.143489 0.553389
C2    C     C_R   0.982488 0.992416 0.032102 -0.124896
C3    C     C_R   0.752605 0.435991 0.573770 0.012600
C4    C     C_R   0.726764 0.370428 0.354931 0.543479
C5    C     C_R   0.270214 0.379588 0.648226 0.522787
C6    C     C_R   0.226765 0.870429 0.354931 0.543482
C7    C     C_R   0.770215 0.879584 0.648225 0.522780
C8    C     C_R   0.530658 0.156873 0.351877 0.551964
C9    C     C_R   0.463919 0.156284 0.644302 0.520810
C10   C     C_R   0.030658 0.656872 0.351877 0.551948
C11   C     C_R   0.963918 0.656284 0.644301 0.520822
C12   C     C_R   0.727113 0.021470 0.360721 0.574716
C13   C     C_R   0.503079 0.495044 0.961157 -0.130645
C14   C     C_R   0.260493 0.976781 0.644934 0.531198
C15   C     C_R   0.227114 0.521467 0.360721 0.574709
C16   C     C_R   0.760494 0.476786 0.644933 0.531183
C17   C     C_R   0.500376 0.163516 0.923439 -0.002247
C18   C     C_R   0.505984 0.163052 0.072627 0.001992
C19   C     C_R   0.000379 0.663515 0.923437 -0.002254
C20   C     C_R   0.005987 0.663049 0.072625 0.001992
C21   C     C_R   0.505143 0.275244 0.959689 -0.013149
C22   C     C_R   0.497178 0.274122 0.035264 -0.021422
C23   C     C_R   0.005144 0.775242 0.959688 -0.013149
C24   C     C_R   0.482507 0.492426 0.032103 -0.124862
C25   C     C_R   0.997177 0.774118 0.035263 -0.021416
C26   C     C_R   0.506566 0.055233 0.034633 -0.179882
C27   C     C_R   0.506237 0.055550 0.961742 -0.186553
C28   C     C_R   0.006572 0.555231 0.034631 -0.179886
C29   C     C_R   0.006242 0.555548 0.961740 -0.186556
C30   C     C_3   0.604211 0.792526 0.440807 -0.112993
C31   C     C_3   0.302174 0.706298 0.636113 -0.105435
C32   C     C_3   0.104153 0.292515 0.440922 -0.113099
C33   C     C_3   0.802139 0.206292 0.636116 -0.105449
C34   C     C_3   0.827054 0.786459 0.415877 -0.089275
C35   C     C_R   0.752822 0.908602 0.926192 -0.010618
C36   C     C_3   0.124107 0.826538 0.611667 -0.090410
C37   C     C_3   0.327051 0.286451 0.415883 -0.089267
C38   C     C_3   0.624088 0.326606 0.611670 -0.090409
C39   C     C_3   0.592120 0.326575 0.833088 -0.103234
C40   C     C_3   0.395821 0.316000 0.150551 -0.081079
C41   C     C_3   0.092117 0.826581 0.833087 -0.103219
C42   C     C_3   0.895811 0.815976 0.150545 -0.081082
C43   C     C_3   0.577406 0.710208 0.135864 -0.112008
C44   C     C_3   0.406533 0.740328 0.858625 -0.116533
C45   C     C_3   0.077377 0.210192 0.135831 -0.112008
C46   C     C_R   0.236953 0.890593 0.067894 0.014697
C47   C     C_3   0.906505 0.240330 0.858619 -0.116516
C48   C     C_R   0.252821 0.408601 0.926192 -0.010621
C49   C     C_R   0.736954 0.390591 0.067894 0.014694
C50   C     C_R   0.717040 0.826499 0.970081 0.001201
C51   C     C_R   0.290113 0.832988 0.030461 -0.017778
C52   C     C_R   0.217044 0.326494 0.970083 0.001196
C53   C     C_R   0.270356 0.374827 0.854229 0.535432
C54   C     C_R   0.790115 0.332989 0.030461 -0.017773
C55   C     C_R   0.715780 0.841015 0.043276 0.055927
C56   C     C_R   0.293539 0.839564 0.956797 0.030514
C57   C     C_R   0.215784 0.341014 0.043277 0.055947
C58   C     C_R   0.793541 0.339567 0.956797 0.030490
C59   C     C_R   0.794571 0.008171 0.030660 -0.143170
C60   C     C_R   0.184708 0.946709 0.956332 -0.164465
C61   C     C_R   0.294567 0.508178 0.030657 -0.143174
C62   C     C_R   0.684709 0.446709 0.956333 -0.164455
C63   C     C_R   0.793231 0.997376 0.957765 -0.152488
C64   C     C_R   0.227316 0.870758 0.143489 0.553396
C65   C     C_R   0.181049 0.937950 0.029206 -0.120914
C66   C     C_R   0.293225 0.497383 0.957762 -0.152482
C67   C     C_R   0.681049 0.437947 0.029206 -0.120912
C68   C     C_3   0.641794 0.795789 0.969462 -0.213152
C69   C     C_3   0.366232 0.846350 0.038312 -0.222243
C70   C     C_3   0.141798 0.295777 0.969468 -0.213166
C71   C     C_3   0.866234 0.346360 0.038311 -0.222244
C72   C     C_3   0.641156 0.811087 0.049581 0.152430
C73   C     C_3   0.370912 0.847856 0.957610 0.146107
C74   C     C_3   0.141162 0.311086 0.049585 0.152429
C75   C     C_R   0.770355 0.874828 0.854229 0.535427
C76   C     C_3   0.870915 0.347873 0.957609 0.146111
C77   C     C_R   0.752312 0.934882 0.074263 -0.029322
C78   C     C_R   0.244158 0.908565 0.919547 -0.031053
C79   C     C_R   0.252313 0.434885 0.074263 -0.029326
C80   C     C_R   0.744159 0.408566 0.919547 -0.031058
C81   C     C_R   0.533651 0.155387 0.145548 0.554463
C82   C     C_R   0.467742 0.154799 0.853259 0.546964
C83   C     C_R   0.033652 0.655386 0.145548 0.554463
C84   C     C_R   0.967742 0.654799 0.853258 0.546960
C85   C     C_R   0.488708 0.161047 0.570904 -0.025614
C86   C     C_R   0.515728 0.388556 0.923941 0.277550
C87   C     C_R   0.499195 0.163142 0.421710 0.016097
C88   C     C_R   0.988703 0.661044 0.570902 -0.025594
C89   C     C_R   0.999193 0.663140 0.421709 0.016093
C90   C     C_R   0.493001 0.053665 0.532847 0.024835
C91   C     C_R   0.495822 0.055616 0.459894 0.109040
C92   C     C_R   0.992988 0.553662 0.532844 0.024810
C93   C     C_R   0.995813 0.555612 0.459891 0.109014
C94   C     C_R   0.497187 0.271498 0.458892 -0.145955
C95   C     C_R   0.493344 0.270182 0.533046 -0.183479
C96   C     C_R   0.997185 0.771496 0.458891 -0.145963
C97   C     C_R   0.478474 0.383582 0.069854 0.274581
C98   C     C_R   0.993343 0.770178 0.533045 -0.183452
C99   C     C_3   0.442225 0.953060 0.532623 -0.216186
C100  C     C_3   0.444364 0.957485 0.452564 -0.269826
C101  C     C_3   0.942197 0.453081 0.532618 -0.216210
C102  C     C_3   0.944340 0.457505 0.452560 -0.269846
C103  C     C_R   0.748709 0.934636 0.581022 -0.056771
C104  C     C_R   0.242776 0.901218 0.427590 -0.043137
C105  C     C_R   0.248708 0.434644 0.581025 -0.056759
C106  C     C_R   0.742775 0.401219 0.427590 -0.043133
C107  C     C_R   0.799286 0.993971 0.541181 -0.029616
C108  C     C_R   0.015724 0.888557 0.923942 0.277550
C109  C     C_R   0.199974 0.983338 0.462128 -0.071180
C110  C     C_R   0.299285 0.493974 0.541182 -0.029641
C111  C     C_R   0.699982 0.483356 0.462125 -0.071197
C112  C     C_R   0.790117 0.023020 0.471165 -0.019686
C113  C     C_R   0.206926 0.003388 0.533416 -0.026763
C114  C     C_R   0.290115 0.523020 0.471165 -0.019693
C115  C     C_R   0.706934 0.503407 0.533412 -0.026777
C116  C     C_R   0.674355 0.945239 0.476721 0.231151
C117  C     C_R   0.291849 0.842425 0.542528 0.216929
C118  C     C_R   0.174353 0.445228 0.476721 0.231160
C119  C     C_R   0.978464 0.883572 0.069853 0.274580
C120  C     C_R   0.791840 0.342418 0.542531 0.216943
C121  C     C_R   0.683972 0.915373 0.549571 -0.159981
C122  C     C_R   0.289546 0.830761 0.468250 -0.143954
C123  C     C_R   0.183971 0.415385 0.549577 -0.160015
C124  C     C_R   0.789539 0.330752 0.468252 -0.143944
C125  C     C_3   0.872506 0.957043 0.530601 -0.218755
C126  C     C_3   0.122655 0.979620 0.469006 -0.228959
C127  C     C_3   0.372505 0.457043 0.530601 -0.218756
C128  C     C_3   0.622660 0.479676 0.468999 -0.228941
C129  C     C_R   0.740881 0.973909 0.146627 0.535374
C130  C     C_R   0.003066 0.995041 0.961157 -0.130659
C131  C     C_R   0.258379 0.968217 0.851814 0.515501
C132  C     C_R   0.240881 0.473910 0.146627 0.535378
C133  C     C_R   0.758379 0.468218 0.851814 0.515499
C134  C     C_3   0.862914 0.985861 0.452682 0.171087
C135  C     C_3   0.130649 0.016299 0.545688 0.172194
C136  C     C_3   0.362912 0.485857 0.452682 0.171091
C137  C     C_3   0.630658 0.516355 0.545682 0.172211
C138  C     C_R   0.729245 0.997673 0.436933 0.013322
C139  C     C_R   0.252606 0.935985 0.573771 0.012612
C140  C     C_R   0.229243 0.497668 0.436934 0.013338
Cr1   Cr    Cr6+3 0.772010 0.169670 0.250090 1.009612
Cr2   Cr    Cr6+3 0.383290 0.010760 0.749160 0.981234
Cr3   Cr    Cr6+3 0.116710 0.510760 0.250840 1.005241
Cr4   Cr    Cr6+3 0.883290 0.510760 0.749160 0.981231
Cr5   Cr    Cr6+3 0.227990 0.169670 0.749910 1.023786
Cr6   Cr    Cr6+3 0.272010 0.669670 0.250090 1.009600
Cr7   Cr    Cr6+3 0.727990 0.669670 0.749910 1.023784
Cr8   Cr    Cr6+3 0.615000 0.323260 0.249260 1.043350
Cr9   Cr    Cr6+3 0.385000 0.323260 0.750740 1.048408
Cr10  Cr    Cr6+3 0.115000 0.823260 0.249260 1.043367
Cr11  Cr    Cr6+3 0.885000 0.823260 0.750740 1.048412
Cr12  Cr    Cr6+3 0.616710 0.010760 0.250840 1.005149
H1    H     H_    0.507625 0.968482 0.061423 0.131016
H2    H     H_    0.966430 0.374622 0.428517 0.152477
H3    H     H_    0.091838 0.271404 0.179675 0.146605
H4    H     H_    0.067122 0.119624 0.159345 0.161810
H5    H     H_    0.935665 0.318719 0.836828 0.156299
H6    H     H_    0.853607 0.236042 0.836078 0.126542
H7    H     H_    0.934144 0.157460 0.841410 0.142393
H8    H     H_    0.392386 0.984510 0.555049 0.180821
H9    H     H_    0.466467 0.874613 0.428520 0.152507
H10   H     H_    0.463905 0.868278 0.555805 0.176402
H11   H     H_    0.395358 0.990022 0.428291 0.111629
H12   H     H_    0.963862 0.368290 0.555803 0.176398
H13   H     H_    0.895340 0.490062 0.428285 0.111636
H14   H     H_    0.643191 0.870292 0.579260 0.134278
H15   H     H_    0.321712 0.763029 0.443096 0.143098
H16   H     H_    0.143191 0.370318 0.579274 0.134250
H17   H     H_    0.505982 0.969126 0.935459 0.144198
H18   H     H_    0.821700 0.263012 0.443101 0.143092
H19   H     H_    0.877432 0.860309 0.544345 0.154639
H20   H     H_    0.106645 0.885543 0.462067 0.157097
H21   H     H_    0.377431 0.360310 0.544347 0.154646
H22   H     H_    0.606633 0.385607 0.462063 0.157102
H23   H     H_    0.908847 0.018979 0.557435 0.133439
H24   H     H_    0.095685 0.047050 0.435061 0.093345
H25   H     H_    0.408847 0.518980 0.557433 0.133442
H26   H     H_    0.595702 0.547117 0.435052 0.093321
H27   H     H_    0.894436 0.064634 0.435116 0.128327
H28   H     H_    0.007632 0.468479 0.061420 0.131013
H29   H     H_    0.117535 0.112628 0.554321 0.127646
H30   H     H_    0.394434 0.564627 0.435114 0.128338
H31   H     H_    0.617563 0.612691 0.554315 0.127672
H32   H     H_    0.009424 0.081381 0.934545 0.166257
H33   H     H_    0.969488 0.076165 0.058191 0.141977
H34   H     H_    0.509443 0.581383 0.934544 0.166231
H35   H     H_    0.469520 0.576180 0.058194 0.142008
H36   H     H_    0.825509 0.080019 0.052122 0.171916
H37   H     H_    0.143707 0.995589 0.929961 0.164461
H38   H     H_    0.325501 0.580031 0.052119 0.171928
H39   H     H_    0.005988 0.469125 0.935457 0.144225
H40   H     H_    0.643709 0.495592 0.929962 0.164463
H41   H     H_    0.825300 0.056961 0.925996 0.190004
H42   H     H_    0.134707 0.972021 0.054854 0.192395
H43   H     H_    0.325288 0.556972 0.925991 0.190032
H44   H     H_    0.634708 0.472018 0.054854 0.192408
H45   H     H_    0.132702 0.201753 0.952212 0.162456
H46   H     H_    0.890555 0.265973 0.063926 0.149364
H47   H     H_    0.632696 0.701768 0.952201 0.162456
H48   H     H_    0.390550 0.765962 0.063929 0.149375
H49   H     H_    0.610727 0.864877 0.940677 0.088397
H50   H     H_    0.499760 0.356977 0.430615 0.171039
H51   H     H_    0.379813 0.934034 0.062675 0.094573
H52   H     H_    0.110728 0.364858 0.940681 0.088409
H53   H     H_    0.879812 0.434045 0.062676 0.094572
H54   H     H_    0.610654 0.889951 0.068227 0.125427
H55   H     H_    0.391017 0.933778 0.935251 0.152199
H56   H     H_    0.110662 0.389954 0.068230 0.125428
H57   H     H_    0.891014 0.433800 0.935253 0.152208
H58   H     H_    0.653853 0.740849 0.437264 0.102822
H59   H     H_    0.574250 0.770857 0.392597 0.135148
H60   H     H_    0.573092 0.763313 0.487597 0.093319
H61   H     H_    0.490612 0.354610 0.560733 0.187896
H62   H     H_    0.250559 0.673328 0.619545 0.089267
H63   H     H_    0.334994 0.628823 0.651741 0.169266
H64   H     H_    0.296169 0.757503 0.685696 0.122651
H65   H     H_    0.153773 0.240775 0.437409 0.102868
H66   H     H_    0.074164 0.270760 0.392750 0.135125
H67   H     H_    0.073044 0.263470 0.487745 0.093374
H68   H     H_    0.750530 0.173315 0.619535 0.089278
H69   H     H_    0.834957 0.128823 0.651761 0.169274
H70   H     H_    0.796118 0.257512 0.685692 0.122624
H71   H     H_    0.784491 0.790854 0.376802 0.149522
H72   H     H_    0.999761 0.856975 0.430616 0.171043
H73   H     H_    0.804827 0.776888 0.470089 0.096065
H74   H     H_    0.856305 0.702365 0.404824 0.121257
H75   H     H_    0.163954 0.828177 0.653124 0.108534
H76   H     H_    0.141712 0.779577 0.562789 0.110265
H77   H     H_    0.084376 0.771339 0.638371 0.130124
H78   H     H_    0.284487 0.290842 0.376810 0.149555
H79   H     H_    0.304825 0.276885 0.470096 0.096074
H80   H     H_    0.356302 0.202356 0.404833 0.121253
H81   H     H_    0.663933 0.328240 0.653129 0.108547
H82   H     H_    0.641689 0.279626 0.562796 0.110268
H83   H     H_    0.990614 0.854607 0.560733 0.187908
H84   H     H_    0.584351 0.271429 0.638379 0.130134
H85   H     H_    0.574823 0.257277 0.795211 0.125168
H86   H     H_    0.619192 0.281628 0.878205 0.090356
H87   H     H_    0.630063 0.381250 0.802814 0.160903
H88   H     H_    0.409982 0.227131 0.173791 0.112899
H89   H     H_    0.365192 0.301887 0.101527 0.105183
H90   H     H_    0.362247 0.359355 0.190863 0.176335
H91   H     H_    0.074820 0.757284 0.795210 0.125180
H92   H     H_    0.119190 0.781634 0.878204 0.090351
H93   H     H_    0.130060 0.881257 0.802814 0.160914
H94   H     H_    0.892361 0.484554 0.555041 0.180778
H95   H     H_    0.909974 0.727103 0.173779 0.112892
H96   H     H_    0.865182 0.801869 0.101519 0.105183
H97   H     H_    0.862235 0.859321 0.190860 0.176322
H98   H     H_    0.528901 0.742635 0.110284 0.090657
H99   H     H_    0.591912 0.771413 0.179700 0.146613
H100  H     H_    0.567156 0.619643 0.159385 0.161797
H101  H     H_    0.435726 0.818696 0.836865 0.156242
H102  H     H_    0.353652 0.736094 0.836052 0.126579
H103  H     H_    0.434158 0.657446 0.841416 0.142394
H104  H     H_    0.028890 0.242600 0.110211 0.090654
O1    O     O_R   0.787520 0.042810 0.170440 -0.522746
O2    O     O_R   0.454050 0.051210 0.669140 -0.521412
O3    O     O_R   0.045950 0.551210 0.330860 -0.490581
O4    O     O_R   0.954050 0.551210 0.669140 -0.521417
O5    O     O_R   0.681390 0.959480 0.325510 -0.470319
O6    O     O_R   0.318610 0.959480 0.674490 -0.502607
O7    O     O_R   0.181390 0.459480 0.325510 -0.470238
O8    O     O_R   0.818610 0.459480 0.674490 -0.502596
O9    O     O_3   0.667900 0.167900 0.250060 -0.291882
O10   O     O_3   0.332100 0.167900 0.749940 -0.260768
O11   O     O_3   0.167900 0.667900 0.250060 -0.291900
O12   O     O_R   0.212480 0.042810 0.829560 -0.521421
O13   O     O_3   0.832100 0.667900 0.749940 -0.260772
O14   O     O_R   0.765640 0.292100 0.175020 -0.505248
O15   O     O_R   0.234360 0.292100 0.824980 -0.498241
O16   O     O_R   0.265640 0.792100 0.175020 -0.505252
O17   O     O_R   0.734360 0.792100 0.824980 -0.498242
O18   O     O_R   0.670190 0.408840 0.168540 -0.511391
O19   O     O_R   0.329810 0.408840 0.831460 -0.521175
O20   O     O_R   0.170190 0.908840 0.168540 -0.511377
O21   O     O_R   0.829810 0.908840 0.831460 -0.521180
O22   O     O_R   0.556620 0.251410 0.175160 -0.446624
O23   O     O_R   0.287520 0.542810 0.170440 -0.522765
O24   O     O_R   0.443380 0.251410 0.824840 -0.436938
O25   O     O_R   0.056620 0.751410 0.175160 -0.446629
O26   O     O_R   0.943380 0.751410 0.824840 -0.436940
O27   O     O_R   0.545960 0.049620 0.170320 -0.557503
O28   O     O_R   0.454040 0.049620 0.829680 -0.559919
O29   O     O_R   0.045960 0.549620 0.170320 -0.557505
O30   O     O_R   0.954040 0.549620 0.829680 -0.559921
O31   O     O_R   0.681390 0.958010 0.176690 -0.509760
O32   O     O_R   0.318610 0.958010 0.823310 -0.531557
O33   O     O_R   0.181390 0.458010 0.176690 -0.509722
O34   O     O_R   0.712480 0.542810 0.829560 -0.521421
O35   O     O_R   0.818610 0.458010 0.823310 -0.531568
O36   O     O_R   0.787510 0.044390 0.330970 -0.493120
O37   O     O_R   0.212490 0.044390 0.669030 -0.492883
O38   O     O_R   0.287510 0.544390 0.330970 -0.493130
O39   O     O_R   0.712490 0.544390 0.669030 -0.492887
O40   O     O_R   0.765630 0.293570 0.323840 -0.531100
O41   O     O_R   0.234370 0.293570 0.676160 -0.505634
O42   O     O_R   0.265630 0.793570 0.323840 -0.531103
O43   O     O_R   0.734370 0.793570 0.676160 -0.505634
O44   O     O_R   0.670190 0.410420 0.329080 -0.515558
O45   O     O_R   0.556610 0.252880 0.323980 -0.507370
O46   O     O_R   0.329810 0.410420 0.670920 -0.537837
O47   O     O_R   0.170190 0.910420 0.329080 -0.515538
O48   O     O_R   0.829810 0.910420 0.670920 -0.537833
O49   O     O_3   0.613427 0.918474 0.442923 -0.540712
O50   O     O_3   0.337353 0.770405 0.581275 -0.581149
O51   O     O_3   0.113432 0.418436 0.442914 -0.540688
O52   O     O_3   0.837333 0.270385 0.581282 -0.581140
O53   O     O_3   0.871964 0.886398 0.405332 -0.550593
O54   O     O_3   0.096261 0.943235 0.598323 -0.558293
O55   O     O_3   0.371960 0.386391 0.405334 -0.550603
O56   O     O_R   0.443390 0.252880 0.676020 -0.496271
O57   O     O_3   0.596254 0.443308 0.598313 -0.558290
O58   O     O_3   0.535914 0.402316 0.852884 -0.549800
O59   O     O_3   0.455068 0.388901 0.139819 -0.552669
O60   O     O_3   0.035911 0.902322 0.852885 -0.549800
O61   O     O_3   0.955056 0.888884 0.139818 -0.552665
O62   O     O_3   0.631944 0.699966 0.086072 -0.571802
O63   O     O_3   0.404154 0.741558 0.933480 -0.610457
O64   O     O_3   0.131952 0.199975 0.086086 -0.571785
O65   O     O_3   0.904167 0.241586 0.933476 -0.610459
O66   O     O_R   0.056610 0.752880 0.323980 -0.507374
O67   O     O_R   0.943390 0.752880 0.676020 -0.496259
O68   O     O_R   0.545950 0.051210 0.330860 -0.490604

loop_
_geom_bond_atom_site_label_1
_geom_bond_atom_site_label_2
_ccdc_geom_bond_type
Cr12  O5    S    
C37   H80   S    
C105  C110  A    
C76   O65   S    
C87   C91   A    
C107  C112  A    
C31   H62   S    
C5    C105  S    
C116  O49   S    
C121  H14   S    
C75   O21   A    
Cr10  O20   S    
C137  O57   S    
Cr5   O41   S    
C87   C94   A    
C105  C123  A    
Cr2   O2    S    
Cr9   O24   S    
C132  O33   A    
Cr2   O28   S    
Cr3   O33   S    
C41   O60   S    
C53   O15   A    
C70   C74   S    
Cr5   O10   S    
C122  H15   S    
C6    C104  S    
C91   C100  S    
C27   H17   S    
Cr12  O27   S    
C33   H70   S    
C9    O2    A    
C117  C139  A    
C118  C140  A    
C101  H94   S    
C25   C119  A    
Cr4   O35   S    
C70   H52   S    
C116  C121  A    
C41   H92   S    
C37   O55   S    
C126  H20   S    
C112  C138  A    
C34   H73   S    
C127  C136  S    
C46   C65   A    
Cr11  O13   S    
C72   H54   S    
C20   C28   A    
C17   C21   A    
C80   C133  S    
C119  O61   S    
C43   O62   S    
Cr8   O9    S    
C19   C23   A    
C99   H10   S    
C68   C72   S    
Cr10  O47   S    
C77   C129  S    
Cr1   O14   S    
C28   H28   S    
C72   O62   S    
Cr8   O44   S    
C60   C65   A    
Cr8   O18   S    
C103  C121  A    
C65   H42   S    
C21   C86   A    
C56   C73   S    
C82   O24   A    
C112  C134  S    
C85   C90   A    
C1    O14   A    
C59   C63   A    
C89   C96   A    
C11   O4    A    
C71   C76   S    
C11   O67   A    
C100  H11   S    
Cr6   O11   S    
C125  H19   S    
C15   O7    A    
C43   H99   S    
C48   C52   A    
C117  O50   S    
C113  C135  S    
C106  C124  A    
C114  C136  S    
C10   O3    A    
C103  C107  A    
C51   C69   S    
C32   H66   S    
C32   O51   S    
C81   O27   A    
C128  C137  S    
C82   O28   A    
C38   H81   S    
C39   H87   S    
Cr6   O38   S    
C58   C76   S    
C47   H7    S    
C42   O61   S    
C60   C78   A    
C24   H35   S    
C133  O35   A    
C62   C80   A    
C8    O68   A    
C129  O1    A    
C104  C122  A    
C56   C78   A    
C17   C82   S    
C64   O16   A    
C9    C85   S    
C115  C137  S    
C10   C89   S    
C96   C98   A    
C113  C139  A    
C114  C140  A    
Cr5   O12   S    
C110  C114  A    
C108  C130  A    
C12   O5    A    
C7    C103  S    
C75   O17   A    
C14   O37   A    
C73   O63   S    
C74   O64   S    
C106  C111  A    
Cr6   O42   S    
C48   C53   S    
Cr4   O30   S    
C17   C27   A    
C129  O31   A    
Cr3   O3    S    
C107  C125  S    
Cr11  O67   S    
C30   H59   S    
Cr1   O40   S    
C45   H104  S    
C4    C106  S    
C46   C51   A    
Cr10  O25   S    
C117  C122  A    
C3    C115  A    
C71   H53   S    
C118  O51   S    
C45   H4    S    
C1    O18   A    
Cr7   O17   S    
C123  H16   S    
Cr7   O43   S    
C36   H75   S    
C134  H27   S    
C12   C138  S    
C135  H29   S    
C67   H44   S    
C90   C99   S    
C39   H85   S    
C34   H71   S    
C71   H46   S    
C47   H5    S    
C37   H79   S    
C8    O45   A    
C18   C22   A    
Cr2   O10   S    
C35   C63   A    
C137  H31   S    
C70   H45   S    
C4    O44   A    
C128  H22   S    
C99   C100  S    
C2    H33   S    
C40   H88   S    
C40   O59   S    
C85   C95   A    
C61   C79   A    
Cr8   O22   S    
C89   C93   A    
C109  C126  S    
C136  H30   S    
C111  C128  S    
Cr1   O1    S    
C26   H1    S    
C48   C66   A    
C21   C22   A    
C88   C98   A    
C3    C16   S    
C19   C84   S    
C33   H69   S    
C125  C134  S    
Cr9   O56   S    
C15   O38   A    
C101  C102  S    
C18   C26   A    
C66   H43   S    
C26   C27   A    
C41   H91   S    
C68   H47   S    
C28   C29   A    
C34   H74   S    
C38   H84   S    
C131  O32   A    
C44   H101  S    
C20   C25   A    
C5    O41   A    
C54   C71   S    
C36   H77   S    
C69   H48   S    
C69   C73   S    
C94   H50   S    
C102  H2    S    
C40   H89   S    
C83   O29   A    
C58   C80   A    
C73   H55   S    
C6    O47   A    
C100  H9    S    
Cr9   O10   S    
C24   C97   A    
C127  H25   S    
C4    O40   A    
Cr11  O26   S    
C131  O12   A    
C16   O39   A    
C84   O26   A    
C47   O65   S    
C81   O22   A    
C42   H96   S    
C33   O52   S    
C92   C101  S    
C34   O53   S    
C136  O55   S    
C126  C135  S    
Cr3   O29   S    
C61   H38   S    
C12   O36   A    
C19   C29   A    
Cr1   O36   S    
C15   C140  S    
C13   H34   S    
C41   H93   S    
C68   H49   S    
C101  H12   S    
C93   C102  S    
C38   H82   S    
C44   H103  S    
Cr12  O9    S    
C133  O34   A    
Cr4   O13   S    
Cr7   O13   S    
C130  H32   S    
C90   C91   A    
Cr7   O39   S    
C23   C108  A    
C92   C93   A    
C2    C130  A    
C108  O60   S    
C118  C123  A    
C10   O66   A    
C94   C95   A    
C52   C57   A    
C134  O53   S    
C31   H63   S    
Cr9   O46   S    
Cr2   O6    S    
C50   C68   S    
Cr2   O32   S    
Cr7   O34   S    
C76   H57   S    
C127  H21   S    
C38   O57   S    
C57   C79   A    
C59   C77   A    
Cr12  O31   S    
C9    O56   A    
C74   H56   S    
C64   O20   A    
C35   C75   S    
C62   C67   A    
Cr9   O19   S    
C30   O49   S    
C30   H60   S    
C104  C109  A    
C55   C77   A    
Cr12  O68   S    
C31   O50   S    
C49   C54   A    
C18   C81   S    
C51   C56   A    
C135  O54   S    
C61   C66   A    
C98   H83   S    
C88   C92   A    
C60   H37   S    
C96   H72   S    
C13   C86   A    
C63   H41   S    
C45   H3    S    
C14   O6    A    
C5    O46   A    
C45   O64   S    
C32   H65   S    
C109  C113  A    
C110  C127  S    
C7    O48   A    
C36   H76   S    
C22   C97   A    
C99   H8    S    
C43   H100  S    
C86   O58   S    
C116  C138  A    
C37   H78   S    
C42   H95   S    
C36   O54   S    
C42   H97   S    
C6    O42   A    
Cr10  O66   S    
C62   H40   S    
C31   H64   S    
C13   C24   A    
C46   C64   S    
Cr1   O9    S    
C57   C74   S    
C78   C131  S    
C83   O25   A    
Cr8   O45   S    
C11   C88   S    
C35   C50   A    
C29   H39   S    
C120  O52   S    
C124  H18   S    
C59   H36   S    
C69   H51   S    
C102  H13   S    
C95   H61   S    
C128  H26   S    
Cr6   O23   S    
C125  H23   S    
C126  H24   S    
C54   C58   A    
C33   H68   S    
C132  O23   A    
C84   O30   A    
C49   C67   A    
C55   C72   S    
C30   H58   S    
C2    C119  A    
C7    O43   A    
C50   C55   A    
Cr5   O15   S    
C8    C87   S    
Cr6   O16   S    
Cr11  O21   S    
Cr5   O37   S    
C43   H98   S    
C44   H102  S    
C79   C132  S    
Cr3   O11   S    
C23   C25   A    
C44   O63   S    
Cr4   O4    S    
C32   H67   S    
C52   C70   S    
C3    C120  A    
C16   O8    A    
C53   O19   A    
Cr3   O7    S    
C14   C139  S    
C20   C83   S    
C97   O59   S    
C111  C115  A    
Cr11  O48   S    
C39   O58   S    
C1    C49   S    
Cr10  O11   S    
C39   H86   S    
C40   H90   S    
C120  C124  A    
C47   H6    S    
Cr4   O8    S    
