data_mof_unit_1244.cif
_audit_creation_date              2013-03-05T16:31:47-0500
_audit_creation_method            fapswitch 2.2
_symmetry_space_group_name_H-M    P1
_symmetry_Int_Tables_number       1
_space_group_crystal_system       triclinic
_cell_length_a                    11.702676
_cell_length_b                    10.880614
_cell_length_c                    9.575663
_cell_angle_alpha                 90.021016
_cell_angle_beta                  90.617375
_cell_angle_gamma                 90.721835
_cell_volume                      1219.12350458

loop_
_atom_site_label
_atom_site_type_symbol
_atom_site_description
_atom_site_fract_x
_atom_site_fract_y
_atom_site_fract_z
_atom_type_partial_charge
O1    O     O_R   0.500000 0.319640 0.618810 -0.547725
O2    O     O_R   0.500010 0.319680 0.381230 -0.515765
C1    C     C_R   0.504015 0.262782 0.499679 0.823201
O3    O     O_R   0.337190 0.499990 0.618790 -0.582801
O4    O     O_R   0.337200 0.500030 0.381210 -0.522329
C2    C     C_R   0.284069 0.499826 0.499423 0.848656
Cu1   Cu    Cu3+1 0.499990 0.499980 0.640670 1.021057
Cu2   Cu    Cu3+1 0.500010 0.500020 0.359330 1.027368
O5    O     O_R   0.499990 0.680320 0.618770 -0.572582
O6    O     O_R   0.500000 0.680360 0.381190 -0.596129
O7    O     O_R   0.662800 0.499970 0.618790 -0.572120
O8    O     O_R   0.662810 0.500010 0.381210 -0.587849
C3    C     C_R   0.500792 0.737094 0.499864 0.831708
C4    C     C_R   0.715931 0.500008 0.500572 0.791576
C5    C     C_1   0.162368 0.499703 0.498531 -0.090755
C6    C     C_1   0.059888 0.499661 0.499193 0.053055
C7    C     C_1   0.940104 0.499716 0.500638 0.028084
C8    C     C_1   0.837627 0.499836 0.501386 -0.159548
C9    C     C_R   0.492349 0.061978 0.617861 -0.054247
C10   C     C_R   0.512898 0.129992 0.497708 -0.113240
C11   C     C_R   0.538537 0.063325 0.373784 0.245764
C12   C     C_R   0.533796 0.933816 0.375337 -0.252670
H1    H     H_    0.552072 0.884305 0.280237 0.157920
C13   C     C_R   0.506693 0.869432 0.498434 -0.077793
C14   C     C_R   0.488440 0.937811 0.617643 -0.016345
C15   C     C_3   0.448388 0.927643 0.764777 0.072822
C16   C     C_3   0.456650 0.070709 0.767538 0.434595
H2    H     H_    0.509784 0.881155 0.835367 0.118698
C17   C     C_R   0.597216 0.527767 0.074744 0.207086
N1    N     N_R   0.500710 0.500930 0.147930 -0.246330
C18   C     C_R   0.407676 0.457193 0.071226 0.423242
C19   C     C_R   0.407458 0.460626 0.923161 -0.008428
H3    H     H_    0.333014 0.427875 0.865938 0.170552
N2    N     N_R   0.500710 0.500890 0.852020 -0.204121
C20   C     C_R   0.597681 0.526232 0.927903 0.290822
C21   C     C_3   0.668486 0.640795 0.921957 -0.470808
C22   C     C_3   0.666054 0.643801 0.080688 -0.475113
H4    H     H_    0.754994 0.623489 0.879958 0.214112
H5    H     H_    0.622982 0.717983 0.871840 0.213045
H6    H     H_    0.751440 0.630047 0.129753 0.215869
H7    H     H_    0.617156 0.722181 0.122747 0.208859
N3    N     N_2   0.568544 0.124234 0.247579 -0.382688
H8    H     H_    0.542936 0.077536 0.158607 0.278944
C23   C     C_3   0.687073 0.163094 0.241603 -0.531155
H9    H     H_    0.743443 0.081629 0.239882 0.212467
H10   H     H_    0.710229 0.221776 0.332875 0.204321
H11   H     H_    0.701162 0.217647 0.145181 0.259670
N4    N     N_R   0.332598 0.875319 0.772229 0.129508
O9    O     O_R   0.308876 0.795817 0.869423 -0.349488
O10   O     O_R   0.256444 0.897330 0.675546 -0.359220
N5    N     N_2   0.349610 0.136268 0.784660 -0.430222
H12   H     H_    0.293380 0.133108 0.700968 0.266952
C24   C     C_3   0.294778 0.127902 0.919335 -0.504571
H13   H     H_    0.237548 0.207561 0.932251 0.240397
H14   H     H_    0.358455 0.128797 0.006032 0.254796
H15   H     H_    0.242121 0.042727 0.926102 0.250303
N6    N     N_R   0.550483 0.119255 0.855865 0.109831
O11   O     O_R   0.647582 0.062302 0.863025 -0.398889
O12   O     O_R   0.543429 0.227389 0.912677 -0.373778
N7    N     N_R   0.310102 0.403845 0.137267 0.121855
O13   O     O_R   0.320329 0.300985 0.205001 -0.355494
O14   O     O_R   0.208396 0.440744 0.102378 -0.374932

loop_
_geom_bond_atom_site_label_1
_geom_bond_atom_site_label_2
_geom_bond_distance
_ccdc_geom_bond_type
C18   N7    1.428233 S    
O4    Cu2   1.919042 S    
O6    C3    1.292911 A    
C17   N1    1.364105 A    
C9    C16   1.500530 S    
C17   C20   1.406262 A    
C15   H2    1.108113 S    
C18   C19   1.418305 A    
C23   H11   1.110503 S    
C15   N4    1.465632 S    
Cu2   O8    1.914438 S    
Cu2   N1    2.024428 S    
C19   H3    1.080723 S    
C10   C11   1.427183 A    
N4    O10   1.302480 A    
O2    C1    1.293070 A    
N6    O11   1.302315 A    
Cu1   Cu2   2.694019 S    
C14   C15   1.493318 S    
O1    Cu1   1.973269 S    
C24   H13   1.109702 S    
C13   C14   1.382329 A    
Cu1   O7    1.919041 S    
C15   C16   1.558626 S    
O4    C2    1.297339 A    
N3    C23   1.446748 S    
N7    O13   1.299931 A    
O3    Cu1   1.914437 S    
C5    C6    1.199364 T    
C21   H4    1.111583 S    
N4    O9    1.300639 A    
Cu1   N2    2.023764 S    
C16   N5    1.460038 S    
C7    C8    1.199374 T    
C22   H6    1.111449 S    
C24   H14   1.109541 S    
C22   H7    1.110835 S    
N1    C18   1.385916 A    
C9    C14   1.351212 A    
O7    C4    1.297389 A    
C12   C13   1.408480 A    
N6    O12   1.300003 A    
O3    C2    1.295229 A    
N3    H8    1.031583 S    
C11   N3    1.423675 S    
O8    C4    1.295197 A    
C1    C10   1.450009 S    
N5    H12   1.031748 S    
C23   H9    1.111796 S    
N7    O14   1.301162 A    
N2    C20   1.366023 A    
C16   N6    1.471468 S    
C24   H15   1.108743 S    
C17   C22   1.489811 S    
Cu1   O5    1.973462 S    
C4    C8    1.424132 S    
C12   H1    1.082578 S    
C21   C22   1.520883 S    
O5    C3    1.295647 A    
N5    C24   1.448987 S    
C2    C5    1.424148 S    
C11   C12   1.409624 A    
C21   H5    1.106932 S    
Cu2   O6    1.973269 S    
O2    Cu2   1.973461 S    
C9    C10   1.389722 A    
C3    C13   1.440789 S    
C23   H10   1.111346 S    
C6    C7    1.402015 S    
O1    C1    1.299094 A    
C20   C21   1.489525 S    
C19   N2    1.360553 A    
