data_mof_unit_3309.cif
_audit_creation_date              2012-12-10T16:57:06-0500
_audit_creation_method            fapswitch 2.2
_symmetry_space_group_name_H-M    P1
_symmetry_Int_Tables_number       1
_space_group_crystal_system       triclinic
_cell_length_a                    7.790724
_cell_length_b                    8.685286
_cell_length_c                    16.862947
_cell_angle_alpha                 92.652409
_cell_angle_beta                  82.213312
_cell_angle_gamma                 93.023301
_cell_volume                      1128.04791042

loop_
_atom_site_label
_atom_site_type_symbol
_atom_type_description
_atom_site_fract_x
_atom_site_fract_y
_atom_site_fract_z
_atom_type_partial_charge
C1    C     C_R   0.545260 0.793739 0.499510 1.017587
C2    C     C_R   0.455641 0.205944 0.502522 0.906931
C3    C     C_2   0.571986 0.954773 0.494226 -0.223240
C4    C     C_2   0.436060 0.046911 0.517625 -0.254988
C5    C     C_R   0.479781 0.498712 0.653298 0.923292
C6    C     C_R   0.518974 0.493262 0.346722 0.934615
C7    C     C_R   0.476972 0.480585 0.738313 -0.226225
C8    C     C_R   0.513139 0.461765 0.262251 -0.212934
C9    C     C_R   0.558745 0.352674 0.762241 0.281633
C10   C     C_R   0.416580 0.559355 0.223075 0.287431
C11   C     C_R   0.588387 0.345337 0.840595 -0.131350
C12   C     C_R   0.374042 0.515549 0.148417 -0.158794
C13   C     C_R   0.536065 0.462717 0.895688 -0.035113
C14   C     C_R   0.433238 0.378990 0.110403 -0.034068
C15   C     C_R   0.450485 0.589785 0.874132 0.349869
C16   C     C_R   0.528288 0.278572 0.148188 0.364603
C17   C     C_R   0.419743 0.599233 0.794350 -0.198940
C18   C     C_R   0.566539 0.318217 0.225874 -0.178783
C19   C     C_2   0.556137 0.442333 0.978084 0.202949
C20   C     C_2   0.430558 0.365360 0.025069 0.224972
H1    H     H_    0.303781 0.593198 0.117542 0.227681
H2    H     H_    0.650106 0.246432 0.859149 0.220402
N1    N     N_2   0.953500 0.457650 0.478520 -0.190196
N2    N     N_2   0.046500 0.542350 0.521480 -0.177280
O1    O     O_R   0.388470 0.738640 0.505270 -0.604268
O2    O     O_R   0.611530 0.261360 0.494730 -0.649030
O3    O     O_R   0.679650 0.711510 0.491500 -0.590663
O4    O     O_R   0.320350 0.288490 0.508500 -0.617154
O5    O     O_R   0.337210 0.515200 0.623500 -0.657559
O6    O     O_R   0.662790 0.484800 0.376500 -0.658651
O7    O     O_R   0.628380 0.488060 0.609730 -0.618956
O8    O     O_R   0.371620 0.511940 0.390270 -0.617591
Zn1   Zn    Zn3+2 0.305580 0.518120 0.509190 1.013634
Zn2   Zn    Zn3+2 0.694420 0.481880 0.490810 1.000421
Br1   Br    Br    0.632394 0.182528 0.690895 -0.431115
Br2   Br    Br    0.341751 0.756064 0.268405 -0.323303
C21   C     C_2   0.656601 0.208849 0.269390 0.535139
H3    H     H_    0.755264 0.250061 0.305676 0.089591
O9    O     O_2   0.618788 0.070778 0.266311 -0.443752
C22   C     C_2   0.329959 0.731394 0.769241 0.581655
H4    H     H_    0.232871 0.711666 0.729154 0.107847
O10   O     O_2   0.365462 0.863361 0.791854 -0.436138
Br3   Br    Br    0.227904 0.267954 0.986771 -0.309131
Br4   Br    Br    0.758178 0.541958 0.016457 -0.336995
Br5   Br    Br    0.368064 0.743221 0.955248 -0.282406
Br6   Br    Br    0.616422 0.096043 0.089739 -0.236977
C23   C     C_2   0.748816 0.005359 0.454714 0.515126
H5    H     H_    0.831660 0.084888 0.485716 0.120577
O11   O     O_2   0.805770 0.951298 0.388849 -0.485682
C24   C     C_2   0.269754 0.999420 0.567169 0.559487
H6    H     H_    0.147695 0.039127 0.553396 0.093414
O12   O     O_2   0.269543 0.924256 0.626475 -0.529696
C25   C     C_2   0.036331 0.407044 0.402946 0.656919
H7    H     H_    0.056224 0.485138 0.353773 0.059319
O13   O     O_2   0.078774 0.273756 0.391745 -0.587081
C26   C     C_2   0.963530 0.593855 0.596841 0.709826
H8    H     H_    0.940115 0.515437 0.645840 0.023076
O14   O     O_2   0.924891 0.728151 0.608051 -0.569938

loop_
_geom_bond_atom_site_label_1
_geom_bond_atom_site_label_2
_ccdc_geom_bond_type
C1    C3    S    
C6    O8    A    
N1    N2    D    
C15   C17   A    
C21   H3    S    
N2    Zn1   S    
C14   C20   S    
N2    C26   S    
C5    C7    S    
C11   H2    S    
C2    C4    S    
C19   C20   D    
C4    C24   S    
N1    Zn2   S    
O8    Zn1   S    
O1    Zn1   S    
C25   O13   D    
C24   H6    S    
O7    Zn2   S    
C2    O2    A    
C16   C18   A    
C25   H7    S    
C26   H8    S    
C1    O1    A    
C9    C11   A    
C10   C12   A    
C6    C8    S    
C3    C23   S    
C22   H4    S    
C6    O6    A    
C18   C21   S    
C26   O14   D    
O4    Zn1   S    
N1    C25   S    
C7    C9    A    
C13   C15   A    
O3    Zn2   S    
C21   O9    D    
C14   C16   A    
C2    O4    A    
O6    Zn2   S    
C9    Br1   S    
C3    C4    D    
C5    O5    A    
O5    Zn1   S    
C11   C13   A    
C20   Br3   S    
C19   Br4   S    
C23   O11   D    
C16   Br6   S    
C24   O12   D    
C1    O3    A    
C13   C19   S    
C10   Br2   S    
C7    C17   A    
C17   C22   S    
C12   H1    S    
O2    Zn2   S    
C8    C10   A    
C8    C18   A    
C23   H5    S    
C12   C14   A    
C22   O10   D    
C5    O7    A    
C15   Br5   S    
