data_mof_unit_1702.cif
_audit_creation_date              2012-12-11T15:54:02-0500
_audit_creation_method            fapswitch 2.2
_symmetry_space_group_name_H-M    P1
_symmetry_Int_Tables_number       1
_space_group_crystal_system       triclinic
_cell_length_a                    10.669247
_cell_length_b                    10.718866
_cell_length_c                    17.039584
_cell_angle_alpha                 80.398311
_cell_angle_beta                  99.533707
_cell_angle_gamma                 118.726759
_cell_volume                      1676.65504734

loop_
_atom_site_label
_atom_site_type_symbol
_atom_type_description
_atom_site_fract_x
_atom_site_fract_y
_atom_site_fract_z
_atom_type_partial_charge
C1    C     C_R   0.356198 0.219085 0.625024 0.548025
C2    C     C_1   0.289490 0.106117 0.770911 0.019925
C3    C     C_1   0.335865 0.663714 0.277696 -0.049761
C4    C     C_R   0.370760 0.654202 0.586726 0.561158
C5    C     C_1   0.323414 0.672889 0.206935 -0.051981
C6    C     C_R   0.814199 0.660691 0.153265 0.016518
C7    C     C_R   0.785908 0.533290 0.202197 0.019456
C8    C     C_R   0.778007 0.526431 0.281896 0.037996
C9    C     C_R   0.800379 0.763640 0.265746 -0.153949
C10   C     C_R   0.808301 0.771634 0.183941 -0.150246
C11   C     C_3   0.860030 0.440890 0.217594 -0.264547
C12   C     C_R   0.404791 0.828508 0.676537 -0.121260
C13   C     C_3   0.849591 0.433915 0.305658 -0.269766
C14   C     C_R   0.797555 0.644418 0.316254 0.017369
C15   C     C_R   0.307185 0.134657 0.168026 0.020125
C16   C     C_R   0.782262 0.621543 0.625941 0.538092
C17   C     C_R   0.189444 0.120749 0.200952 0.038012
C18   C     C_R   0.195167 0.130220 0.280254 0.019184
C19   C     C_R   0.430431 0.142388 0.301285 -0.152462
C20   C     C_R   0.423815 0.133084 0.219793 -0.155417
C21   C     C_3   0.101216 0.196816 0.175545 -0.274412
C22   C     C_3   0.107720 0.209595 0.263211 -0.261012
C23   C     C_R   0.391839 0.852060 0.752171 0.176838
C24   C     C_R   0.320821 0.154109 0.330288 0.016213
C25   C     C_R   0.948166 0.725391 0.851673 0.519377
C26   C     C_R   0.281821 0.751968 0.882816 0.575813
C27   C     C_R   0.251416 0.057402 0.851323 0.519823
C28   C     C_R   0.350391 0.224463 0.400848 0.545414
C29   C     C_R   0.884472 0.689937 0.082431 0.563710
C30   C     C_R   0.313163 0.700507 0.123784 0.560084
C31   C     C_R   0.283999 0.104653 0.086304 0.553908
C32   C     C_R   0.365208 0.654156 0.360766 0.545376
C33   C     C_R   0.768166 0.620534 0.398238 0.543595
C34   C     C_3   0.085394 0.467467 0.783040 0.171448
C35   C     C_R   0.280691 0.743846 0.797630 -0.011924
C36   C     C_R   0.173388 0.625850 0.758126 -0.064063
C37   C     C_R   0.201598 0.597273 0.688500 -0.053141
C38   C     C_3   0.023048 0.281769 0.885748 0.020104
C39   C     C_3   0.911969 0.290928 0.928123 -0.276072
C40   C     C_3   0.812108 0.144907 0.968126 -0.449445
C41   C     C_3   0.356758 0.451076 0.789295 0.058677
C42   C     C_3   0.501797 0.487196 0.762346 -0.280474
C43   C     C_3   0.588480 0.433705 0.826247 -0.438005
C44   C     C_3   0.138414 0.440235 0.712218 0.195850
C45   C     C_R   0.320017 0.693629 0.648277 -0.028954
C46   C     C_1   0.853860 0.671266 0.702011 -0.062228
C47   C     C_1   0.900819 0.705973 0.768738 -0.061909
C48   C     C_1   0.325307 0.151219 0.704216 0.034382
Cl1   Cl    Cl    0.533779 0.009374 0.789379 -0.660472
Cr1   Cr    Cr6+3 0.608440 0.389080 0.519680 1.022135
Cr2   Cr    Cr6+3 0.288640 0.400090 0.490760 1.022634
Cr3   Cr    Cr6+3 0.602940 0.710800 0.489510 1.019743
Cr4   Cr    Cr6+3 0.052530 0.947560 0.964210 0.982943
Cr5   Cr    Cr6+3 0.059970 0.626800 0.992920 0.984388
Cr6   Cr    Cr6+3 0.373320 0.938440 0.995370 1.023312
H1    H     H_    0.494459 0.909996 0.645163 0.180252
H2    H     H_    0.001349 0.147225 0.287268 0.130789
H3    H     H_    0.968996 0.438492 0.773369 0.090465
H4    H     H_    0.048775 0.378504 0.668226 0.110750
H5    H     H_    0.801404 0.851781 0.289531 0.134324
H6    H     H_    0.823662 0.869313 0.146809 0.130848
H7    H     H_    0.973565 0.497477 0.203313 0.167722
H8    H     H_    0.078025 0.232020 0.930440 0.201121
H9    H     H_    0.969666 0.210844 0.836488 0.156143
H10   H     H_    0.968103 0.366738 0.974550 0.196637
H11   H     H_    0.845923 0.329952 0.884453 0.182082
H12   H     H_    0.793259 0.335961 0.192998 0.128693
H13   H     H_    0.756213 0.066149 0.923305 0.215619
H14   H     H_    0.730462 0.153677 0.996474 0.152801
H15   H     H_    0.874136 0.105574 0.014894 0.129717
H16   H     H_    0.333707 0.373002 0.843439 0.200494
H17   H     H_    0.369411 0.550595 0.807878 0.165599
H18   H     H_    0.486778 0.441455 0.706044 0.204439
H19   H     H_    0.565324 0.605001 0.749285 0.153934
H20   H     H_    0.523215 0.320253 0.847796 0.186304
H21   H     H_    0.627161 0.498374 0.877874 0.178261
H22   H     H_    0.680776 0.440444 0.800836 0.177322
H23   H     H_    0.776216 0.325379 0.331854 0.138637
H24   H     H_    0.955756 0.488462 0.340740 0.140842
H25   H     H_    0.526238 0.153678 0.339531 0.131497
H26   H     H_    0.511009 0.129415 0.197245 0.132302
H27   H     H_    0.991454 0.125781 0.149522 0.130909
H28   H     H_    0.159103 0.301272 0.139832 0.143369
H29   H     H_    0.168496 0.322773 0.277072 0.167076
O1    O     O_R   0.754020 0.497590 0.609930 -0.513217
O2    O     O_R   0.406180 0.826930 0.920660 -0.453401
O3    O     O_R   0.358620 0.062870 0.901950 -0.484388
O4    O     O_R   0.481420 0.271390 0.600630 -0.488733
O5    O     O_R   0.163910 0.085460 0.050210 -0.533718
O6    O     O_R   0.935200 0.815170 0.045770 -0.497889
O7    O     O_R   0.916120 0.596690 0.069430 -0.525980
O8    O     O_R   0.192310 0.631200 0.086170 -0.511025
O9    O     O_R   0.406770 0.819480 0.096420 -0.507815
O10   O     O_R   0.359170 0.055960 0.064880 -0.502590
O11   O     O_3   0.161940 0.837600 0.984160 -0.306420
O12   O     O_R   0.295080 0.533620 0.397890 -0.515041
O13   O     O_R   0.263810 0.254550 0.589590 -0.489417
O14   O     O_R   0.300820 0.531200 0.560890 -0.473576
O15   O     O_R   0.491480 0.744020 0.564270 -0.529136
O16   O     O_R   0.726290 0.693800 0.583010 -0.490669
O17   O     O_R   0.747830 0.500190 0.434090 -0.518397
O18   O     O_R   0.475680 0.273800 0.437630 -0.506554
O19   O     O_R   0.257620 0.257160 0.413750 -0.527015
O20   O     O_3   0.129866 0.418948 0.859421 -0.555841
O21   O     O_3   0.242651 0.388572 0.728401 -0.537672
O22   O     O_R   0.485280 0.746620 0.388440 -0.511272
O23   O     O_R   0.720550 0.696220 0.420010 -0.505845
O24   O     O_3   0.500010 0.499990 0.499980 -0.252781
O25   O     O_R   0.163320 0.092900 0.874450 -0.532731
O26   O     O_R   0.934650 0.822080 0.882840 -0.486697
O27   O     O_R   0.915520 0.604140 0.893670 -0.539158
O28   O     O_R   0.191760 0.638110 0.923230 -0.462104

loop_
_geom_bond_atom_site_label_1
_geom_bond_atom_site_label_2
_ccdc_geom_bond_type
Cr4   O26   S    
Cr2   O13   S    
C13   H24   S    
C8    C13   S    
C4    O14   A    
Cr4   O11   S    
C41   C42   S    
C19   C20   A    
C33   O23   A    
Cr6   O9    S    
C11   H7    S    
C14   C33   S    
C7    C8    A    
C44   O21   S    
C7    C11   S    
C12   C23   A    
C40   H15   S    
C18   C24   A    
C36   C37   A    
C5    C30   S    
C30   O9    A    
C38   C39   S    
C23   Cl1   S    
C44   H4    S    
Cr2   O19   S    
C38   O20   S    
Cr1   O1    S    
C46   C47   T    
C21   H28   S    
Cr3   O23   S    
Cr2   O24   S    
C31   O5    A    
C2    C27   S    
C9    C10   A    
C25   C47   S    
Cr1   O4    S    
Cr2   O12   S    
C41   H16   S    
Cr2   O14   S    
Cr3   O22   S    
C32   O22   A    
C21   C22   S    
Cr1   O24   S    
C39   H10   S    
C3    C32   S    
C22   H2    S    
Cr6   O10   S    
C29   O6    A    
C11   H12   S    
C38   H9    S    
C4    C45   S    
C43   H20   S    
C15   C20   A    
C42   H19   S    
C40   H14   S    
C34   C44   S    
Cr6   O11   S    
C1    O13   A    
C39   C40   S    
C16   O16   A    
C2    C48   T    
Cr3   O16   S    
C34   O20   S    
C35   C36   A    
C22   H29   S    
C9    C14   A    
Cr5   O8    S    
C26   O2    A    
C17   C18   A    
Cr5   O28   S    
C27   O3    A    
C27   O25   A    
Cr5   O11   S    
C12   H1    S    
C41   O21   S    
C25   O26   A    
C41   H17   S    
C30   O8    A    
C32   O12   A    
Cr1   O18   S    
C23   C35   A    
Cr4   O5    S    
C16   O1    A    
C39   H11   S    
C33   O17   A    
C10   H6    S    
C42   C43   S    
C16   C46   S    
C26   O28   A    
C29   O7    A    
C38   H8    S    
Cr4   O25   S    
C43   H21   S    
C15   C17   A    
C13   H23   S    
C42   H18   S    
C8    C14   A    
C18   C22   S    
C24   C28   S    
C12   C45   A    
C3    C5    T    
C6    C10   A    
C1    C48   S    
C15   C31   S    
C6    C7    A    
C43   H22   S    
C31   O10   A    
Cr3   O15   S    
C9    H5    S    
Cr6   O2    S    
C19   C24   A    
Cr5   O7    S    
C11   C13   S    
C28   O19   A    
C1    O4    A    
Cr5   O27   S    
C34   C36   S    
Cr6   O3    S    
C19   H25   S    
C17   C21   S    
C25   O27   A    
C37   C44   S    
C28   O18   A    
C26   C35   S    
C6    C29   S    
C21   H27   S    
Cr3   O24   S    
Cr1   O17   S    
C40   H13   S    
C4    O15   A    
Cr4   O6    S    
C34   H3    S    
C20   H26   S    
C37   C45   A    
