data_mof_unit_879.cif
_audit_creation_date              2012-12-11T15:09:40-0500
_audit_creation_method            fapswitch 2.2
_symmetry_space_group_name_H-M    P1
_symmetry_Int_Tables_number       1
_space_group_crystal_system       triclinic
_cell_length_a                    20.889391
_cell_length_b                    7.122386
_cell_length_c                    14.033651
_cell_angle_alpha                 89.999753
_cell_angle_beta                  98.047121
_cell_angle_gamma                 90.000332
_cell_volume                      2067.399401

loop_
_atom_site_label
_atom_site_type_symbol
_atom_type_description
_atom_site_fract_x
_atom_site_fract_y
_atom_site_fract_z
_atom_type_partial_charge
O1    O     O_R   0.447130 0.507140 0.597350 -0.547819
O2    O     O_R   0.552870 0.007140 0.402650 -0.547817
O3    O     O_R   0.578910 0.181280 0.586990 -0.537089
O4    O     O_R   0.421090 0.681280 0.413010 -0.537092
C1    C     C_R   0.604395 0.344537 0.607628 0.739811
C2    C     C_R   0.395605 0.844536 0.392372 0.739812
O5    O     O_R   0.449230 0.177860 0.608640 -0.540964
O6    O     O_R   0.550770 0.677860 0.391360 -0.540970
O7    O     O_R   0.422260 0.000770 0.424450 -0.540141
O8    O     O_R   0.577740 0.500770 0.575550 -0.540142
C3    C     C_R   0.433646 0.346583 0.635623 0.749945
C4    C     C_R   0.566353 0.846584 0.364376 0.749943
O9    O     O_3   0.491310 0.336980 0.439550 -0.381457
O10   O     O_3   0.508690 0.836980 0.560450 -0.381451
V1    V     V_3+5 0.501610 0.064760 0.511210 1.401592
V2    V     V_3+5 0.498390 0.564760 0.488790 1.401576
C5    C     C_R   0.619348 0.884175 0.119723 -0.257105
C6    C     C_R   0.380653 0.384091 0.880279 -0.257097
H1    H     H_    0.704125 0.892891 0.995988 0.125111
H2    H     H_    0.295876 0.392746 0.004016 0.125109
H3    H     H_    0.598003 0.893258 0.045015 0.121198
H4    H     H_    0.401999 0.393139 0.954988 0.121190
C7    C     C_R   0.606573 0.856398 0.287444 -0.113029
C8    C     C_R   0.393427 0.356390 0.712555 -0.113035
C9    C     C_R   0.920551 0.845947 0.305337 -0.167872
C10   C     C_R   0.079448 0.346020 0.694661 -0.167871
C11   C     C_R   0.883341 0.836449 0.379749 -0.120713
C12   C     C_R   0.116658 0.336554 0.620247 -0.120713
C13   C     C_R   0.816103 0.839356 0.360153 -0.158124
C14   C     C_R   0.183895 0.339433 0.639843 -0.158123
C15   C     C_R   0.784077 0.851462 0.264334 0.093520
C16   C     C_R   0.215922 0.351476 0.735665 0.093520
C17   C     C_R   0.822628 0.861517 0.188355 0.061095
C18   C     C_R   0.177372 0.361494 0.811645 0.061093
C19   C     C_R   0.715259 0.856088 0.241449 0.078150
C20   C     C_R   0.284740 0.356078 0.758550 0.078151
C21   C     C_R   0.686746 0.873402 0.143803 0.087889
C22   C     C_R   0.313254 0.373337 0.856199 0.087889
C23   C     C_R   0.725585 0.880865 0.070684 -0.177737
C24   C     C_R   0.274416 0.380764 0.929319 -0.177733
C25   C     C_R   0.792416 0.874849 0.092401 -0.192671
C26   C     C_R   0.207585 0.374769 0.907602 -0.192670
C27   C     C_R   0.673562 0.843598 0.312084 -0.293765
C28   C     C_R   0.326437 0.343616 0.687913 -0.293765
C29   C     C_R   0.578977 0.884432 0.191530 0.404562
C30   C     C_R   0.421023 0.384376 0.808472 0.404567
C31   C     C_R   0.890893 0.858690 0.210017 -0.071852
C32   C     C_R   0.109107 0.358698 0.789982 -0.071851
H5    H     H_    0.691361 0.824305 0.387269 0.117783
H6    H     H_    0.308637 0.324358 0.612726 0.117783
H7    H     H_    0.972791 0.843551 0.322090 0.102601
H8    H     H_    0.027208 0.343653 0.677906 0.102601
H9    H     H_    0.790873 0.833222 0.421891 0.109402
H10   H     H_    0.209125 0.333333 0.578105 0.109402
H11   H     H_    0.906796 0.827179 0.453454 0.120143
H12   H     H_    0.093203 0.327335 0.546541 0.120142
H13   H     H_    0.820271 0.882136 0.032997 0.121593
H14   H     H_    0.179729 0.382026 0.967007 0.121592
C33   C     C_1   0.166715 0.857137 0.168051 -0.192957
C34   C     C_1   0.833285 0.357136 0.831949 -0.192958
C35   C     C_1   0.219180 0.854916 0.219015 0.001839
C36   C     C_1   0.780820 0.354915 0.780985 0.001839
C37   C     C_1   0.280959 0.853524 0.278959 0.001871
C38   C     C_1   0.719041 0.353525 0.721041 0.001871
C39   C     C_1   0.333300 0.851206 0.330235 -0.192516
C40   C     C_1   0.666700 0.351207 0.669765 -0.192517
O11   O     O_R   0.922300 0.202240 0.924350 -0.533408
O12   O     O_R   0.077700 0.702240 0.075650 -0.533407
O13   O     O_R   0.050780 0.535130 0.891350 -0.540110
O14   O     O_R   0.949220 0.035130 0.108650 -0.540111
C41   C     C_R   0.067734 0.367977 0.865735 0.684847
C42   C     C_R   0.932266 0.867975 0.134265 0.684847
O15   O     O_R   0.921100 0.531560 0.912990 -0.538237
O16   O     O_R   0.078900 0.031560 0.087010 -0.538238
O17   O     O_R   0.947120 0.708470 0.097370 -0.537338
O18   O     O_R   0.052880 0.208470 0.902630 -0.537340
C43   C     C_R   0.895830 0.363556 0.893520 0.716237
C44   C     C_R   0.104170 0.863557 0.106480 0.716237
O19   O     O_3   0.008710 0.375800 0.060400 -0.373784
O20   O     O_3   0.991290 0.875800 0.939600 -0.373783
V3    V     V_3+5 0.998380 0.648080 0.988790 1.427941
V4    V     V_3+5 0.001620 0.148080 0.011210 1.427935
O21   O     O_3   0.512253 0.894224 0.168352 -0.586825
C45   C     C_3   0.493214 0.071209 0.127480 0.017709
H15   H     H_    0.443371 0.055587 0.088650 0.154116
H16   H     H_    0.523485 0.119018 0.072840 0.125482
C46   C     C_3   0.492237 0.220810 0.205941 -0.294494
H17   H     H_    0.461343 0.171222 0.259147 0.215338
H18   H     H_    0.542067 0.243561 0.243555 0.195605
C47   C     C_3   0.465915 0.407665 0.164088 -0.783825
H19   H     H_    0.495340 0.459138 0.109349 0.231238
H20   H     H_    0.467894 0.513572 0.222500 0.256869
H21   H     H_    0.414797 0.391490 0.130731 0.210363
O22   O     O_3   0.487747 0.394153 0.831651 -0.586827
C48   C     C_3   0.506789 0.571132 0.872528 0.017704
H22   H     H_    0.556632 0.555501 0.911358 0.154121
H23   H     H_    0.476520 0.618934 0.927171 0.125483
C49   C     C_3   0.507768 0.720743 0.794072 -0.294494
H24   H     H_    0.538658 0.671157 0.740861 0.215334
H25   H     H_    0.457937 0.743509 0.756463 0.195601
C50   C     C_3   0.534096 0.907588 0.835929 -0.783825
H26   H     H_    0.504675 0.959058 0.890675 0.231243
H27   H     H_    0.532116 0.013504 0.777521 0.256867
H28   H     H_    0.585215 0.891400 0.869279 0.210363

loop_
_geom_bond_atom_site_label_1
_geom_bond_atom_site_label_2
_ccdc_geom_bond_type
C14   C16   A    
C46   H17   S    
C37   C39   T    
C50   H26   S    
C7    C29   A    
C11   C13   A    
C48   H22   S    
O11   C43   A    
C45   C46   S    
O2    C4    A    
C26   H14   S    
C2    O7    A    
C12   H12   S    
C48   C49   S    
C23   C25   A    
O5    C3    A    
C14   H10   S    
C4    C7    S    
O12   V3    S    
C16   C20   A    
C19   C21   A    
C45   H16   S    
C41   O18   A    
H2    C24   S    
C11   H11   S    
C3    C8    S    
C7    C27   A    
C34   C36   T    
O13   C41   A    
C36   C38   S    
C2    C39   S    
C18   C26   A    
O1    C3    A    
C15   C17   A    
C19   C27   A    
C9    C31   A    
C10   C32   A    
C24   C26   A    
O6    V2    S    
C29   O21   S    
O16   V4    S    
C42   O17   A    
C6    C30   A    
C33   C44   S    
O15   V3    S    
O12   C44   A    
C34   C43   S    
C33   C35   T    
C45   H15   S    
O20   V4    S    
O18   V4    S    
O19   V3    S    
C27   H5    S    
C5    H3    S    
C16   C18   A    
O4    V2    S    
C9    H7    S    
C10   H8    S    
C47   H20   S    
O21   C45   S    
C30   O22   S    
O6    C4    A    
C35   C37   S    
O1    V2    S    
C5    C21   A    
O2    V1    S    
H1    C23   S    
O4    C2    A    
C50   H28   S    
C49   H25   S    
C46   H18   S    
C17   C31   A    
C15   C19   A    
C20   C28   A    
C18   C32   A    
C32   C41   S    
C20   C22   A    
O3    V1    S    
C47   H21   S    
C50   H27   S    
C28   H6    S    
C6    H4    S    
O17   V3    S    
C5    C29   A    
O20   V3    S    
O3    C1    A    
O19   V4    S    
C48   H23   S    
O9    V2    S    
C9    C11   A    
C49   C50   S    
C10   C12   A    
C8    C30   A    
C12   C14   A    
C6    C22   A    
C17   C25   A    
C1    O8    A    
C21   C23   A    
O8    V2    S    
C1    C40   S    
C22   C24   A    
C47   H19   S    
C13   H9    S    
C8    C28   A    
O5    V1    S    
O7    V1    S    
O22   C48   S    
O14   V4    S    
C31   C42   S    
O13   V3    S    
C25   H13   S    
O11   V4    S    
C13   C15   A    
C49   H24   S    
O16   C44   A    
C46   C47   S    
O15   C43   A    
O10   V1    S    
O14   C42   A    
C38   C40   T    
