data_mof_unit_571.cif
_audit_creation_date              2012-10-26T20:21:34-0400
_audit_creation_method            fapswitch 2.2
_symmetry_space_group_name_H-M    P1
_symmetry_Int_Tables_number       1
_space_group_crystal_system       triclinic
_cell_length_a                    10.773072
_cell_length_b                    9.743511
_cell_length_c                    11.669191
_cell_angle_alpha                 88.066584
_cell_angle_beta                  94.314389
_cell_angle_gamma                 91.703975
_cell_volume                      1220.26534514

loop_
_atom_site_label
_atom_site_type_symbol
_atom_type_description
_atom_site_fract_x
_atom_site_fract_y
_atom_site_fract_z
_atom_type_partial_charge
C1    C     C_R   0.262795 0.499025 0.499654 0.535344
C2    C     C_R   0.934315 0.608920 0.444021 -0.141019
C3    C     C_R   0.938195 0.399281 0.562596 -0.139203
C4    C     C_R   0.062704 0.605779 0.441589 -0.138961
C5    C     C_R   0.871729 0.504150 0.503095 0.021020
C6    C     C_R   0.128756 0.499685 0.500426 0.019588
C7    C     C_R   0.416736 0.073682 0.427151 0.125108
C8    C     C_R   0.585225 0.927846 0.568593 0.111180
C9    C     C_R   0.569552 0.071267 0.582461 0.111189
C10   C     C_R   0.421923 0.926091 0.422653 0.122923
C11   C     C_3   0.303701 0.142449 0.365045 -0.213173
C12   C     C_R   0.737317 0.501558 0.500953 0.528882
C13   C     C_3   0.189831 0.136849 0.438483 -0.285322
C14   C     C_3   0.111700 0.003716 0.435055 -0.466783
C15   C     C_3   0.713780 0.875311 0.609156 -0.199706
C16   C     C_3   0.721098 0.785748 0.721037 -0.260367
C17   C     C_3   0.841211 0.814338 0.795545 -0.483771
C18   C     C_3   0.588279 0.115173 0.707310 -0.200562
C19   C     C_3   0.707993 0.199482 0.740416 -0.280794
C20   C     C_3   0.725963 0.215608 0.870406 -0.468286
C21   C     C_3   0.353471 0.856460 0.319926 -0.216413
C22   C     C_3   0.422691 0.882889 0.210234 -0.300371
C23   C     C_R   0.499891 0.501725 0.284521 0.539196
C24   C     C_3   0.347600 0.827259 0.104809 -0.454511
C25   C     C_R   0.499697 0.498305 0.715444 0.533775
C26   C     C_1   0.500373 0.504225 0.162581 -0.039626
C27   C     C_1   0.499461 0.496143 0.837375 -0.046280
C28   C     C_1   0.500266 0.502375 0.059921 -0.059494
C29   C     C_1   0.499691 0.498471 0.940019 -0.063630
C30   C     C_R   0.066578 0.399081 0.563822 -0.149479
Cu1   Cu    Cu3+1 0.500000 0.640660 0.500000 0.893389
Cu2   Cu    Cu3+1 0.500000 0.359340 0.500000 0.893890
H1    H     H_    0.117014 0.320979 0.614494 0.109706
H2    H     H_    0.324826 0.249385 0.341931 0.192542
H3    H     H_    0.277794 0.103774 0.278334 0.095805
H4    H     H_    0.923399 0.795937 0.746595 0.157119
H5    H     H_    0.845193 0.922108 0.823752 0.150626
H6    H     H_    0.844622 0.744838 0.873064 0.142669
H7    H     H_    0.640762 0.802123 0.772661 0.164805
H8    H     H_    0.720984 0.675778 0.700676 0.193225
H9    H     H_    0.757578 0.828242 0.538471 0.158523
H10   H     H_    0.778686 0.964422 0.621026 0.098357
H11   H     H_    0.643066 0.261699 0.902863 0.166620
H12   H     H_    0.883858 0.690322 0.397283 0.113738
H13   H     H_    0.741010 0.114135 0.914682 0.146072
H14   H     H_    0.808631 0.283433 0.891461 0.139578
H15   H     H_    0.791067 0.149272 0.713449 0.130634
H16   H     H_    0.705590 0.302906 0.699627 0.203569
H17   H     H_    0.503471 0.163200 0.732888 0.167338
H18   H     H_    0.589946 0.022460 0.765040 0.105768
H19   H     H_    0.323258 0.716759 0.118524 0.158315
H20   H     H_    0.260436 0.884973 0.087515 0.143102
H21   H     H_    0.403243 0.839346 0.028587 0.149266
H22   H     H_    0.439921 0.994796 0.195215 0.147493
H23   H     H_    0.891459 0.318300 0.609050 0.104899
H24   H     H_    0.514987 0.834458 0.219626 0.190648
H25   H     H_    0.334531 0.747431 0.334503 0.203416
H26   H     H_    0.257438 0.890220 0.303338 0.100745
H27   H     H_    0.110204 0.685014 0.392840 0.102180
H28   H     H_    0.076263 0.981820 0.345542 0.141842
H29   H     H_    0.166206 0.917088 0.474370 0.163973
H30   H     H_    0.029915 0.014812 0.486259 0.137175
H31   H     H_    0.221103 0.153925 0.529816 0.184948
H32   H     H_    0.127284 0.220531 0.406533 0.163039
N1    N     N_R   0.500000 0.852070 0.500000 -0.234124
N2    N     N_R   0.500000 0.147930 0.500000 -0.236638
O1    O     O_R   0.319640 0.618740 0.499990 -0.514432
O2    O     O_R   0.680360 0.381260 0.500010 -0.497731
O3    O     O_R   0.680360 0.618740 0.500010 -0.520906
O4    O     O_R   0.319640 0.381260 0.499990 -0.526271
O5    O     O_R   0.500010 0.618790 0.337200 -0.513954
O6    O     O_R   0.499990 0.381210 0.662800 -0.511588
O7    O     O_R   0.499990 0.618790 0.662800 -0.494766
O8    O     O_R   0.500010 0.381210 0.337200 -0.505059

loop_
_geom_bond_atom_site_label_1
_geom_bond_atom_site_label_2
_ccdc_geom_bond_type
C24   H20   S    
C7    C10   A    
C2    C4    A    
C12   O3    A    
C21   H25   S    
C17   H4    S    
C25   C27   S    
C11   C13   S    
C19   C20   S    
C26   C28   T    
C1    O4    A    
C13   H31   S    
Cu1   O3    S    
Cu2   O2    S    
C24   H19   S    
Cu1   O5    S    
C18   H17   S    
C21   H26   S    
Cu2   O6    S    
C25   O6    A    
C17   H5    S    
C13   C14   S    
C9    N2    A    
C7    N2    A    
Cu1   O1    S    
C12   O2    A    
C15   H9    S    
C16   C17   S    
C13   H32   S    
C16   H8    S    
C4    H27   S    
C11   H3    S    
C28   C29   S    
C6    C30   A    
C14   H29   S    
C7    C11   S    
C8    C15   S    
C25   O7    A    
C17   H6    S    
C10   C21   S    
Cu2   O8    S    
Cu1   Cu2   S    
C22   C24   S    
Cu1   O7    S    
C2    C5    A    
C27   C29   T    
C16   H7    S    
C15   C16   S    
C14   H30   S    
C22   H24   S    
C23   O5    A    
C9    C18   S    
C8    N1    A    
C20   H11   S    
C14   H28   S    
C18   H18   S    
C5    C12   S    
Cu2   N2    S    
C4    C6    A    
C19   H15   S    
C23   C26   S    
Cu1   N1    S    
C19   H16   S    
C18   C19   S    
C3    C30   A    
Cu2   O4    S    
C23   O8    A    
C30   H1    S    
C1    O1    A    
C24   H21   S    
C21   C22   S    
C20   H13   S    
C3    H23   S    
C22   H22   S    
C11   H2    S    
C20   H14   S    
C1    C6    S    
C15   H10   S    
C2    H12   S    
C8    C9    A    
C3    C5    A    
C10   N1    A    
