data_mof_unit_604.cif
_audit_creation_date              2012-12-11T15:25:38-0500
_audit_creation_method            fapswitch 2.2
_symmetry_space_group_name_H-M    P1
_symmetry_Int_Tables_number       1
_space_group_crystal_system       triclinic
_cell_length_a                    6.945448
_cell_length_b                    23.210474
_cell_length_c                    25.725888
_cell_angle_alpha                 104.531025
_cell_angle_beta                  90.046938
_cell_angle_gamma                 90.38879
_cell_volume                      4014.42992496

loop_
_atom_site_label
_atom_site_type_symbol
_atom_type_description
_atom_site_fract_x
_atom_site_fract_y
_atom_site_fract_z
_atom_type_partial_charge
O1    O     O_R   0.494330 0.439230 0.438150 -0.540721
O2    O     O_R   0.820190 0.446230 0.546380 -0.543198
O3    O     O_R   0.994320 0.560770 0.561850 -0.534526
C1    C     C_R   0.651493 0.434065 0.562953 0.692924
O4    O     O_R   0.823790 0.432220 0.437600 -0.539834
O5    O     O_R   0.997940 0.546660 0.452300 -0.540127
C2    C     C_R   0.654586 0.415727 0.417455 0.713931
O6    O     O_R   0.490700 0.453340 0.547700 -0.538625
O7    O     O_3   0.662060 0.537560 0.504950 -0.366478
V1    V     V_3+5 0.935420 0.493030 0.499080 1.408248
O8    O     O_R   0.327880 0.553770 0.453620 -0.542427
C3    C     C_R   0.159274 0.565904 0.436981 0.684462
O9    O     O_R   0.324280 0.567780 0.562400 -0.537875
C4    C     C_R   0.156004 0.584247 0.582401 0.711699
V2    V     V_3+5 0.435890 0.506970 0.500920 1.409896
O10   O     O_3   0.159380 0.462440 0.495050 -0.369280
C5    C     C_R   0.139677 0.878446 0.819359 0.306911
C6    C     C_R   0.078890 0.866266 0.868056 -0.252930
C7    C     C_R   0.019128 0.808138 0.868810 0.299650
C8    C     C_R   0.043988 0.760510 0.822198 -0.004995
C9    C     C_R   0.111849 0.772579 0.774099 -0.060174
C10   C     C_R   0.163018 0.831289 0.772934 0.017283
C11   C     C_R   0.005926 0.700849 0.822673 -0.161289
C12   C     C_R   0.016831 0.655072 0.775710 -0.193737
C13   C     C_R   0.074610 0.667062 0.727389 0.109036
C14   C     C_R   0.128184 0.725654 0.726784 0.099094
C15   C     C_R   0.197188 0.737309 0.678768 0.109182
C16   C     C_R   0.252573 0.795392 0.678565 -0.207135
C17   C     C_R   0.236159 0.841749 0.725019 -0.152792
C18   C     C_R   0.081703 0.621316 0.679812 -0.220383
C19   C     C_R   0.148262 0.632902 0.631927 -0.069156
C20   C     C_R   0.209232 0.690692 0.631799 -0.217066
H1    H     H_    0.966462 0.688905 0.859238 0.143901
H2    H     H_    0.980924 0.610043 0.777312 0.128092
H3    H     H_    0.038012 0.576438 0.680076 0.109374
H4    H     H_    0.262173 0.699474 0.594873 0.111536
H5    H     H_    0.307620 0.805127 0.642275 0.128306
H6    H     H_    0.280512 0.885989 0.723130 0.159609
C21   C     C_R   0.257334 0.878123 0.118363 -0.160165
H7    H     H_    0.390838 0.894026 0.105056 0.120158
C22   C     C_R   0.266150 0.841844 0.154413 -0.132108
H8    H     H_    0.406118 0.831009 0.167741 0.132573
C23   C     C_R   0.096918 0.820193 0.173183 0.019082
C24   C     C_R   0.918624 0.835442 0.154410 -0.130244
H9    H     H_    0.785195 0.819558 0.167754 0.137026
C25   C     C_R   0.909763 0.871726 0.118342 -0.156078
H10   H     H_    0.769790 0.882633 0.105048 0.115084
C26   C     C_R   0.078979 0.893894 0.100030 -0.045212
N1    N     N_R   0.942971 0.761632 0.230660 -0.277295
N2    N     N_R   0.951328 0.728173 0.265869 -0.281239
C27   C     C_R   0.123400 0.713895 0.284420 0.512142
N3    N     N_R   0.286737 0.734610 0.266033 -0.277448
N4    N     N_R   0.278380 0.768064 0.230819 -0.281075
C28   C     C_R   0.106300 0.782374 0.212296 0.512710
C29   C     C_R   0.310825 0.661942 0.343258 -0.132679
H11   H     H_    0.444267 0.677862 0.329953 0.137387
C30   C     C_R   0.319497 0.626506 0.380051 -0.161478
H12   H     H_    0.459366 0.616187 0.393845 0.118762
C31   C     C_R   0.150248 0.604525 0.398534 -0.051883
C32   C     C_R   0.972099 0.619218 0.379247 -0.159925
H13   H     H_    0.838588 0.603152 0.392391 0.119801
C33   C     C_R   0.963463 0.654659 0.342484 -0.134565
H14   H     H_    0.823616 0.664805 0.328563 0.132740
C34   C     C_R   0.132688 0.676456 0.323851 0.019685
C35   C     C_R   0.468719 0.384446 0.624710 -0.159926
H15   H     H_    0.335805 0.403462 0.614844 0.118521
C36   C     C_R   0.463249 0.349217 0.661686 -0.136543
H16   H     H_    0.325930 0.341932 0.678980 0.133862
C37   C     C_R   0.632394 0.323744 0.676043 0.027341
C38   C     C_R   0.806982 0.334314 0.652277 -0.135555
H17   H     H_    0.940076 0.315536 0.662306 0.135371
C39   C     C_R   0.812646 0.369761 0.615541 -0.161028
H18   H     H_    0.950203 0.377096 0.598390 0.122372
C40   C     C_R   0.643661 0.395402 0.601263 -0.050726
N5    N     N_R   0.784390 0.256438 0.725284 -0.294310
N6    N     N_R   0.777550 0.222637 0.760272 -0.299653
C41   C     C_R   0.612438 0.217373 0.787066 0.555793
N7    N     N_R   0.455762 0.248239 0.777900 -0.234212
N8    N     N_R   0.462260 0.281840 0.742866 -0.296169
C42   C     C_R   0.626432 0.286527 0.715553 0.500351
C43   C     C_R   0.424479 0.160497 0.842288 0.354041
C44   C     C_R   0.416280 0.132312 0.884879 0.351932
C45   C     C_R   0.584955 0.107545 0.900932 -0.189064
C46   C     C_R   0.761695 0.121789 0.880716 -0.273581
H19   H     H_    0.893349 0.103959 0.892212 0.201402
C47   C     C_R   0.770697 0.160117 0.846439 -0.237307
H20   H     H_    0.909052 0.174352 0.835367 0.220063
C48   C     C_R   0.602524 0.178945 0.825666 -0.121522
C49   C     C_R   0.432580 0.143876 0.168456 -0.203061
C50   C     C_R   0.584398 0.134481 0.131200 -0.079416
C51   C     C_R   0.746801 0.172220 0.141369 -0.222435
C52   C     C_R   0.757417 0.219107 0.188017 0.105195
C53   C     C_R   0.605854 0.227546 0.225740 0.047527
C54   C     C_R   0.443796 0.189460 0.216020 0.053236
C55   C     C_R   0.917436 0.257535 0.197745 -0.186264
C56   C     C_R   0.927686 0.303900 0.244416 -0.182572
C57   C     C_R   0.779154 0.312285 0.282519 0.103788
C58   C     C_R   0.617196 0.273832 0.273329 0.007138
C59   C     C_R   0.467983 0.281283 0.311859 0.072151
C60   C     C_R   0.308352 0.241720 0.302569 0.199158
C61   C     C_R   0.296951 0.196737 0.254392 -0.214355
C62   C     C_R   0.790983 0.358188 0.329817 -0.228630
C63   C     C_R   0.643174 0.366418 0.368134 -0.091265
C64   C     C_R   0.482810 0.327909 0.358932 -0.194713
H21   H     H_    0.307697 0.114636 0.161079 0.125110
H22   H     H_    0.863931 0.165507 0.112663 0.127687
H23   H     H_    0.035116 0.251635 0.169301 0.132198
H24   H     H_    0.053229 0.332822 0.251044 0.129095
H25   H     H_    0.914844 0.387855 0.336653 0.121831
H26   H     H_    0.370870 0.334304 0.389068 0.152696
H27   H     H_    0.173740 0.166842 0.247082 0.132140
O11   O     O_R   0.738220 0.046730 0.952360 -0.545689
O12   O     O_R   0.404950 0.067790 0.062410 -0.550009
O13   O     O_R   0.230980 0.953320 0.047680 -0.543507
C65   C     C_R   0.574116 0.084701 0.082267 0.699127
O14   O     O_R   0.408720 0.053790 0.953630 -0.509914
O15   O     O_R   0.234780 0.939210 0.938130 -0.528443
C66   C     C_R   0.577421 0.067062 0.937924 0.744473
O16   O     O_R   0.734430 0.060840 0.061910 -0.538604
O17   O     O_3   0.566930 0.962480 0.995080 -0.381626
V3    V     V_3+5 0.293490 0.006960 0.000910 1.423468
O18   O     O_R   0.904820 0.932150 0.937550 -0.552815
C67   C     C_R   0.072972 0.915118 0.917931 0.813720
O19   O     O_R   0.901050 0.946150 0.046320 -0.545050
C68   C     C_R   0.069747 0.933571 0.062545 0.690127
V4    V     V_3+5 0.793050 0.992940 0.999010 1.382154
O20   O     O_3   0.069480 0.037520 0.004920 -0.370916
O21   O     O_3   0.181842 0.936357 0.817150 -0.578389
C69   C     C_3   0.009036 0.968552 0.816502 0.079222
H28   H     H_    0.044093 0.016500 0.832013 0.150885
H29   H     H_    0.895492 0.958268 0.843403 0.110050
C70   C     C_3   0.928187 0.958561 0.759393 -0.348367
H30   H     H_    0.038031 0.971808 0.733159 0.197699
H31   H     H_    0.892868 0.910702 0.743040 0.203813
C71   C     C_3   0.744866 0.994308 0.758565 -0.831810
H32   H     H_    0.633255 0.981924 0.784815 0.246801
H33   H     H_    0.687546 0.984820 0.716955 0.231416
H34   H     H_    0.775457 0.042678 0.772389 0.238134
O22   O     O_3   0.954198 0.798273 0.916976 -0.574387
C72   C     C_3   0.759497 0.778442 0.913024 0.038517
H35   H     H_    0.752150 0.737995 0.928674 0.147412
H36   H     H_    0.699934 0.766060 0.871328 0.111206
C73   C     C_3   0.630383 0.826018 0.947419 -0.270568
H37   H     H_    0.699408 0.844935 0.987084 0.212713
H38   H     H_    0.609994 0.861882 0.926437 0.208643
C74   C     C_3   0.433331 0.800614 0.956229 -0.793272
H39   H     H_    0.364569 0.779533 0.917049 0.241020
H40   H     H_    0.339415 0.836888 0.978707 0.243398
H41   H     H_    0.448026 0.766913 0.979912 0.227250
O23   O     O_3   0.257746 0.167006 0.815231 -0.563180
C75   C     C_3   0.220641 0.113590 0.775129 0.072811
H42   H     H_    0.081277 0.094999 0.784372 0.143378
H43   H     H_    0.329502 0.077629 0.772653 0.102740
C76   C     C_3   0.206899 0.127235 0.720115 -0.261845
H44   H     H_    0.108400 0.165229 0.722325 0.252093
H45   H     H_    0.351656 0.139814 0.708075 0.196688
C77   C     C_3   0.132759 0.073525 0.677451 -0.844754
H46   H     H_    0.229136 0.034839 0.674523 0.227380
H47   H     H_    0.128842 0.084492 0.637868 0.243481
H48   H     H_    0.984728 0.061519 0.687470 0.242155
O24   O     O_3   0.241763 0.128045 0.909524 -0.573076
C78   C     C_3   0.200296 0.183444 0.946142 0.081247
H49   H     H_    0.041649 0.188245 0.948944 0.145263
H50   H     H_    0.254102 0.222802 0.932722 0.123877
C79   C     C_3   0.277866 0.185250 0.002379 -0.310372
H51   H     H_    0.219968 0.146622 0.015632 0.228167
H52   H     H_    0.437507 0.182683 0.001372 0.170166
C80   C     C_3   0.219130 0.242133 0.043270 -0.851099
H53   H     H_    0.276096 0.281779 0.031370 0.242422
H54   H     H_    0.278893 0.241950 0.083294 0.234802
H55   H     H_    0.059759 0.244928 0.046395 0.229842
N9    N     N_3   0.160922 0.246213 0.342602 -0.660863
H56   H     H_    0.090722 0.286633 0.346313 0.228431
H57   H     H_    0.056698 0.212885 0.330028 0.238524

loop_
_geom_bond_atom_site_label_1
_geom_bond_atom_site_label_2
_ccdc_geom_bond_type
C73   C74   S    
O11   C66   A    
C29   H11   S    
C79   H51   S    
C10   C17   A    
C71   H34   S    
C22   H8    S    
C55   C56   A    
C72   C73   S    
C4    C19   S    
C1    O6    A    
O21   C69   S    
O24   C78   S    
C30   H12   S    
C71   H32   S    
C21   C22   A    
N4    C28   A    
N9    H56   S    
C14   C15   A    
V4    O20   S    
C18   H3    S    
C20   H4    S    
C45   C66   S    
C16   C17   A    
C46   C47   A    
V3    O20   S    
O13   V3    S    
C74   H40   S    
O5    C3    A    
C18   C19   A    
C58   C59   A    
C47   C48   A    
C30   C31   A    
C60   N9    S    
N1    C28   A    
C78   C79   S    
C57   C58   A    
C32   C33   A    
C6    C7    A    
C75   C76   S    
C49   C54   A    
O15   V3    S    
C52   C53   A    
C33   C34   A    
C26   C68   S    
C3    C31   S    
O8    V2    S    
C77   H46   S    
C73   H38   S    
C7    C8    A    
C54   C61   A    
C24   C25   A    
C70   H30   S    
C11   H1    S    
C17   H6    S    
C75   H42   S    
C12   C13   A    
C38   H17   S    
O1    V2    S    
N5    C42   A    
C1    C40   S    
C57   C62   A    
C6    C67   S    
C69   C70   S    
O15   C67   A    
C80   H54   S    
C59   C64   A    
C56   H24   S    
C31   C32   A    
C77   H47   S    
C2    C63   S    
O9    C4    A    
C56   C57   A    
C22   C23   A    
C51   H22   S    
C62   C63   A    
C9    C14   A    
N9    H57   S    
C43   C44   A    
C78   H50   S    
N6    C41   A    
C80   H55   S    
O22   C72   S    
C25   C26   A    
O14   V3    S    
C74   H39   S    
C27   N3    A    
C46   H19   S    
C41   C48   S    
C76   C77   S    
C39   C40   A    
C49   C50   A    
C51   C52   A    
O4    C2    A    
O13   C68   A    
C47   H20   S    
C35   C36   A    
C13   C14   A    
C41   N7    A    
C52   C55   A    
C12   H2    S    
C35   C40   A    
C36   H16   S    
O12   C65   A    
C32   H13   S    
C36   C37   A    
O18   V4    S    
O2    C1    A    
N5    N6    A    
C33   H14   S    
C74   H41   S    
C23   C28   S    
C45   C46   A    
C8    C11   A    
C11   C12   A    
C29   C34   A    
C5    C6    A    
O17   V3    S    
N2    C27   A    
C53   C54   A    
C50   C65   S    
C72   H35   S    
C76   H44   S    
O3    C4    A    
C55   H23   S    
O11   V4    S    
C70   H31   S    
C80   H53   S    
C44   C45   A    
O6    V2    S    
C65   O16   A    
O9    V2    S    
C23   C24   A    
C61   H27   S    
C43   O23   S    
O2    V1    S    
C21   H7    S    
C24   H9    S    
O19   V4    S    
C78   H49   S    
O7    V1    S    
C13   C18   A    
C71   H33   S    
C25   H10   S    
C15   C20   A    
O1    C2    A    
C76   H45   S    
C19   C20   A    
C27   C34   S    
C72   H36   S    
C39   H18   S    
C62   H25   S    
O5    V1    S    
O8    C3    A    
C5    O21   S    
C79   C80   S    
C44   O24   S    
C77   H48   S    
C5    C10   A    
C59   C60   A    
C29   C30   A    
C69   H28   S    
O4    V1    S    
C35   H15   S    
O3    V1    S    
V1    O10   S    
C64   H26   S    
N7    N8    A    
C50   C51   A    
C16   H5    S    
C70   C71   S    
V2    O10   S    
C60   C61   A    
O14   C66   A    
O17   V4    S    
C75   H43   S    
O7    V2    S    
C37   C38   A    
C43   C48   A    
N8    C42   A    
O16   V4    S    
O12   V3    S    
C8    C9    A    
C79   H52   S    
N1    N2    A    
C49   H21   S    
C63   C64   A    
O23   C75   S    
C21   C26   A    
C37   C42   S    
C38   C39   A    
C69   H29   S    
O18   C67   A    
C9    C10   A    
C53   C58   A    
C7    O22   S    
C73   H37   S    
N3    N4    A    
O19   C68   A    
C15   C16   A    
