data_mof_unit_3079.cif
_audit_creation_date              2012-12-11T14:06:47-0500
_audit_creation_method            fapswitch 2.2
_symmetry_space_group_name_H-M    P1
_symmetry_Int_Tables_number       1
_space_group_crystal_system       triclinic
_cell_length_a                    6.916163
_cell_length_b                    17.387385
_cell_length_c                    24.04316
_cell_angle_alpha                 103.804452
_cell_angle_beta                  90.330503
_cell_angle_gamma                 89.97526
_cell_volume                      2807.72520592

loop_
_atom_site_label
_atom_site_type_symbol
_atom_type_description
_atom_site_fract_x
_atom_site_fract_y
_atom_site_fract_z
_atom_type_partial_charge
O1    O     O_R   0.494290 0.391990 0.999150 -0.507923
O2    O     O_R   0.827170 0.534410 0.082350 -0.538546
O3    O     O_R   0.994360 0.608010 0.000850 -0.558238
C1    C     C_R   0.658481 0.551197 0.105973 0.722162
O4    O     O_R   0.824210 0.388010 0.004470 -0.555391
O5    O     O_R   0.991370 0.460560 0.922410 -0.542071
C2    C     C_R   0.654170 0.355205 0.001959 0.766627
O6    O     O_R   0.497270 0.539440 0.077590 -0.537670
O7    O     O_3   0.659770 0.523970 0.973170 -0.367261
V1    V     V_3+5 0.935840 0.495550 0.004980 1.479317
O8    O     O_R   0.320910 0.465590 0.917650 -0.508465
C3    C     C_R   0.151618 0.449988 0.893853 0.796119
O9    O     O_R   0.323870 0.611990 0.995530 -0.532885
C4    C     C_R   0.154784 0.644720 0.998166 0.773318
V2    V     V_3+5 0.435470 0.504450 0.995020 1.542029
O10   O     O_3   0.161670 0.476030 0.026830 -0.367465
C5    C     C_2   0.148755 0.728815 0.996482 0.022684
C6    C     C_2   0.978433 0.769970 0.001868 -0.375817
H1    H     H_    0.844450 0.739850 0.006977 0.142138
C7    C     C_R   0.120441 0.260527 0.626531 0.599618
N1    N     N_R   0.095242 0.340119 0.647358 -0.577759
C8    C     C_R   0.059021 0.389032 0.611711 0.671810
C9    C     C_R   0.049880 0.358481 0.551552 -0.095511
C10   C     C_R   0.070273 0.275729 0.529214 -0.118640
C11   C     C_R   0.103664 0.225532 0.566995 -0.072758
C12   C     C_R   0.018301 0.408401 0.513669 0.305847
C13   C     C_R   0.021043 0.376541 0.453573 0.297802
C14   C     C_R   0.030920 0.293538 0.431247 -0.091225
C15   C     C_R   0.054629 0.243132 0.469173 -0.136550
C16   C     C_R   0.064671 0.160130 0.446894 -0.055723
C17   C     C_R   0.100194 0.110454 0.484677 0.229087
C18   C     C_R   0.119013 0.142425 0.543932 0.141534
C19   C     C_R   0.021062 0.259270 0.371495 0.654860
N2    N     N_R   0.024896 0.178821 0.350838 -0.575393
C20   C     C_R   0.039853 0.129293 0.387104 0.609101
O11   O     O_2   0.161364 0.216151 0.664008 -0.506379
O12   O     O_2   0.033400 0.467008 0.634788 -0.448151
O13   O     O_2   0.006947 0.305721 0.334019 -0.463380
O14   O     O_2   0.027650 0.050446 0.365156 -0.484698
C21   C     C_R   0.168462 0.109114 0.257458 0.255129
C22   C     C_R   0.149867 0.079427 0.198109 -0.166180
H2    H     H_    0.273541 0.050436 0.174611 0.189016
C23   C     C_R   0.975564 0.086668 0.169090 -0.234690
C24   C     C_R   0.818460 0.127128 0.201435 0.343251
C25   C     C_R   0.836073 0.153967 0.261047 -0.081933
H3    H     H_    0.716264 0.184800 0.285293 0.158044
C26   C     C_R   0.009188 0.145774 0.289633 0.226074
C27   C     C_R   0.270706 0.414744 0.734326 0.371255
C28   C     C_R   0.283595 0.441087 0.794427 0.123555
C29   C     C_R   0.139268 0.420774 0.830039 -0.297537
C30   C     C_R   0.978726 0.374718 0.803867 0.267925
C31   C     C_R   0.956253 0.355017 0.744172 0.407342
C32   C     C_R   0.105142 0.372240 0.708743 0.065712
C33   C     C_R   0.537256 0.869196 0.612725 0.593044
N3    N     N_R   0.516429 0.818813 0.648301 -0.534725
C34   C     C_R   0.520192 0.738442 0.627092 0.596005
C35   C     C_R   0.522537 0.705296 0.567278 -0.120193
C36   C     C_R   0.554068 0.756356 0.530138 -0.082015
C37   C     C_R   0.565599 0.839365 0.552819 -0.077339
C38   C     C_R   0.499796 0.622615 0.543339 0.394508
C39   C     C_R   0.521965 0.592001 0.484570 -0.160457
C40   C     C_R   0.558543 0.641513 0.447621 -0.091744
C41   C     C_R   0.575345 0.723981 0.470256 -0.072172
C42   C     C_R   0.612340 0.773689 0.432866 -0.079689
C43   C     C_R   0.623049 0.856462 0.455431 0.213323
C44   C     C_R   0.603239 0.889100 0.514685 0.129520
C45   C     C_R   0.572821 0.610275 0.388012 0.590296
N4    N     N_R   0.611987 0.658877 0.352349 -0.569993
C46   C     C_R   0.636201 0.738694 0.373590 0.640722
O15   O     O_2   0.529354 0.947777 0.635695 -0.527231
O16   O     O_2   0.527817 0.691069 0.664042 -0.491438
H4    H     H_    0.504899 0.528729 0.467774 0.188189
O17   O     O_2   0.545057 0.532137 0.365854 -0.502841
O18   O     O_2   0.682295 0.783714 0.337010 -0.463612
C47   C     C_R   0.465626 0.645034 0.255773 0.409304
C48   C     C_R   0.483842 0.625232 0.195903 0.338833
C49   C     C_R   0.646640 0.581583 0.169499 -0.293951
C50   C     C_R   0.794841 0.563850 0.204712 -0.163412
H5    H     H_    0.921227 0.531317 0.185667 0.186978
C51   C     C_R   0.782369 0.586880 0.264601 0.228880
C52   C     C_R   0.617041 0.627388 0.290832 0.134100
C53   C     C_R   0.324418 0.843116 0.738726 0.209233
C54   C     C_R   0.312704 0.872013 0.798617 0.354331
C55   C     C_R   0.467231 0.917477 0.829872 -0.327690
C56   C     C_R   0.634669 0.930245 0.798865 0.332436
C57   C     C_R   0.650565 0.894165 0.740450 -0.072587
H6    H     H_    0.781547 0.902586 0.718109 0.177836
C58   C     C_R   0.497255 0.851322 0.709588 0.169325
C59   C     C_2   0.640278 0.272090 0.007248 -0.030588
C60   C     C_2   0.475802 0.228096 0.991763 0.175553
O19   O     O_R   0.618210 0.960470 0.922400 -0.526067
O20   O     O_R   0.291310 0.111960 0.995450 -0.552191
O21   O     O_R   0.124210 0.039530 0.077580 -0.539202
C61   C     C_R   0.461469 0.144678 0.997363 0.692424
O22   O     O_R   0.288310 0.965490 0.917650 -0.525932
O23   O     O_R   0.121180 0.892010 0.999220 -0.548158
C62   C     C_R   0.456860 0.949574 0.893736 0.709919
O24   O     O_R   0.621230 0.107990 0.000760 -0.522842
O25   O     O_3   0.455770 0.976060 0.026840 -0.378590
V3    V     V_3+5 0.179680 0.004440 0.995020 1.472278
O26   O     O_R   0.791670 0.888040 0.004570 -0.543067
C63   C     C_R   0.962143 0.854874 0.001334 0.779673
O27   O     O_R   0.794680 0.034510 0.082370 -0.532470
C64   C     C_R   0.963528 0.052545 0.105863 0.731026
V4    V     V_3+5 0.680070 0.995560 0.005010 1.481458
O28   O     O_3   0.953840 0.023940 0.973160 -0.355568
N5    N     N_3   0.332257 0.763836 0.988785 -0.653335
H7    H     H_    0.365605 0.808865 0.024865 0.255995
H8    H     H_    0.328996 0.784971 0.951563 0.236648
O29   O     O_3   0.423849 0.431745 0.702437 -0.605127
H9    H     H_    0.409158 0.402848 0.661929 0.322208
N6    N     N_3   0.445105 0.489160 0.819322 -0.598171
H10   H     H_    0.446920 0.539917 0.803180 0.259440
H11   H     H_    0.572143 0.457397 0.806592 0.293656
O30   O     O_3   0.840448 0.346685 0.835220 -0.598713
H12   H     H_    0.906135 0.331407 0.867695 0.293765
O31   O     O_3   0.789447 0.315207 0.721954 -0.582458
H13   H     H_    0.776810 0.314854 0.680876 0.311039
O32   O     O_3   0.448405 0.569909 0.575312 -0.589082
H14   H     H_    0.341423 0.594264 0.600743 0.350825
N7    N     N_3   0.648914 0.908522 0.417797 -0.544121
H15   H     H_    0.532247 0.947625 0.422474 0.251268
H16   H     H_    0.775301 0.941203 0.429272 0.274722
N8    N     N_3   0.626771 0.973231 0.534311 -0.680871
H17   H     H_    0.738905 0.985480 0.564470 0.274168
H18   H     H_    0.497130 0.998287 0.551833 0.280652
O33   O     O_3   0.300455 0.685107 0.278373 -0.588611
H19   H     H_    0.294631 0.688563 0.319985 0.297670
O34   O     O_3   0.340301 0.651297 0.164769 -0.601869
H20   H     H_    0.401374 0.666703 0.131863 0.286765
N9    N     N_3   0.941277 0.569625 0.298099 -0.597900
H21   H     H_    0.985412 0.622286 0.326256 0.246664
H22   H     H_    0.893174 0.531159 0.322467 0.287090
N10   N     N_3   0.157616 0.805533 0.708242 -0.586395
H23   H     H_    0.125585 0.833271 0.675204 0.224228
H24   H     H_    0.188965 0.746134 0.690216 0.266039
O35   O     O_3   0.148617 0.853360 0.825000 -0.586947
H25   H     H_    0.188526 0.840161 0.861232 0.284677
O36   O     O_3   0.785020 0.978770 0.823549 -0.596538
H26   H     H_    0.729651 0.024584 0.851533 0.299458
N11   N     N_3   0.802952 0.240028 0.031580 -0.671905
H27   H     H_    0.922894 0.241401 0.005637 0.245139
H28   H     H_    0.831881 0.276773 0.071972 0.222769
O37   O     O_3   0.322396 0.260874 0.968102 -0.647513
H29   H     H_    0.225940 0.219187 0.952400 0.282438
O38   O     O_3   0.984054 0.488129 0.535929 -0.595652
H30   H     H_    0.898413 0.508054 0.509309 0.306082
O39   O     O_3   0.014950 0.425891 0.416232 -0.594638
H31   H     H_    0.079778 0.476535 0.434448 0.304531
N12   N     N_3   0.125011 0.026698 0.462958 -0.587777
H32   H     H_    0.264947 0.012009 0.473235 0.239322
H33   H     H_    0.028660 0.997240 0.484027 0.250917
N13   N     N_3   0.150961 0.087572 0.579228 -0.668394
H34   H     H_    0.036915 0.091167 0.608069 0.285372
H35   H     H_    0.283403 0.099829 0.600612 0.289987
N14   N     N_3   0.352470 0.103668 0.283838 -0.626024
H36   H     H_    0.390659 0.160085 0.307785 0.231712
H37   H     H_    0.339482 0.066462 0.311863 0.271722
O40   O     O_3   0.648376 0.144212 0.176759 -0.628626
H38   H     H_    0.679481 0.155868 0.139477 0.297149

loop_
_geom_bond_atom_site_label_1
_geom_bond_atom_site_label_2
_ccdc_geom_bond_type
C21   C26   A    
C27   O29   S    
N3    C34   A    
C47   C48   A    
O26   C63   A    
O23   C63   A    
C22   C23   A    
C22   H2    S    
O19   V4    S    
C20   O14   S    
C1    O6    A    
C14   C15   A    
N6    H11   S    
C49   C50   A    
C31   C32   A    
O20   V3    S    
C12   C13   A    
C13   O39   S    
O24   V4    S    
C40   C45   A    
C55   C62   S    
N1    C8    A    
N14   H36   S    
N2    C20   A    
C5    N5    S    
C37   C44   A    
O5    C3    A    
C16   C17   A    
C50   C51   A    
C7    C11   A    
C61   O24   A    
V2    O10   S    
C2    C59   S    
C34   C35   A    
C38   O32   S    
C5    C6    D    
C6    H1    S    
C6    C63   S    
C9    C12   A    
N3    C58   S    
C12   O38   S    
C23   C64   S    
O29   H9    S    
O8    V2    S    
C55   C56   A    
O40   H38   S    
N4    C46   A    
N5    H7    S    
O33   H19   S    
C45   O17   S    
C43   N7    S    
N13   H35   S    
C15   C16   A    
O7    V1    S    
C56   O36   S    
C53   C58   A    
C31   O31   S    
C11   C18   A    
C41   C42   A    
C51   N9    S    
O9    C4    A    
N5    H8    S    
C4    C5    S    
O21   C64   A    
O4    V1    S    
N6    H10   S    
O19   C62   A    
C60   C61   S    
C33   C37   A    
C25   C26   A    
O26   V4    S    
C27   C32   A    
O25   V4    S    
C57   C58   A    
C30   C31   A    
C10   C11   A    
C59   C60   D    
O4    C2    A    
C17   N12   S    
O22   V3    S    
C47   C52   A    
C35   C38   A    
N10   H24   S    
C29   C30   A    
C36   C37   A    
C56   C57   A    
C8    O12   S    
C53   C54   A    
C30   O30   S    
C45   N4    A    
C38   C39   A    
C53   N10   S    
O2    C1    A    
C23   C24   A    
C40   C41   A    
N12   H33   S    
C48   O34   S    
C54   C55   A    
C33   O15   S    
C9    C10   A    
C34   O16   S    
O20   C61   A    
C19   N2    A    
C46   O18   S    
O27   V4    S    
C42   C46   A    
O39   H31   S    
O32   H14   S    
O21   V3    S    
N7    H15   S    
O3    C4    A    
C28   N6    S    
O1    V2    S    
C16   C20   A    
C39   H4    S    
C27   C28   A    
C14   C19   A    
C43   C44   A    
O6    V2    S    
O9    V2    S    
C44   N8    S    
N4    C52   S    
N9    H21   S    
O2    V1    S    
C54   O35   S    
C24   C25   A    
C57   H6    S    
N8    H18   S    
O38   H30   S    
V4    O28   S    
C36   C41   A    
C33   N3    A    
C21   C22   A    
O1    C2    A    
C17   C18   A    
C51   C52   A    
N9    H22   S    
O5    V1    S    
C3    C29   S    
O36   H26   S    
O22   C62   A    
N10   H23   S    
O35   H25   S    
V3    O28   S    
C19   O13   S    
N12   H32   S    
O25   V3    S    
O37   H29   S    
C42   C43   A    
N11   H28   S    
O34   H20   S    
C1    C49   S    
O3    V1    S    
V1    O10   S    
N11   H27   S    
N1    C32   S    
C48   C49   A    
C50   H5    S    
C35   C36   A    
C59   N11   S    
O23   V3    S    
N14   H37   S    
C47   O33   S    
O7    V2    S    
C39   C40   A    
N7    H16   S    
C18   N13   S    
C7    O11   S    
C25   H3    S    
C10   C15   A    
C7    N1    A    
C28   C29   A    
O27   C64   A    
C24   O40   S    
C8    C9    A    
C21   N14   S    
N2    C26   S    
N13   H34   S    
O31   H13   S    
C60   O37   S    
O30   H12   S    
O8    C3    A    
N8    H17   S    
C13   C14   A    
