data_mof_unit_4957.cif
_audit_creation_date              2012-12-10T20:30:15-0500
_audit_creation_method            fapswitch 2.2
_symmetry_space_group_name_H-M    P1
_symmetry_Int_Tables_number       1
_space_group_crystal_system       triclinic
_cell_length_a                    9.886092
_cell_length_b                    10.769539
_cell_length_c                    13.184271
_cell_angle_alpha                 90.657854
_cell_angle_beta                  73.145999
_cell_angle_gamma                 91.68251
_cell_volume                      1342.8318256

loop_
_atom_site_label
_atom_site_type_symbol
_atom_type_description
_atom_site_fract_x
_atom_site_fract_y
_atom_site_fract_z
_atom_type_partial_charge
C1    C     C_R   0.500226 0.740219 0.502811 0.901205
C2    C     C_R   0.445388 0.410613 0.972498 0.062796
C3    C     C_R   0.488921 0.404945 0.861202 0.042321
C4    C     C_R   0.548620 0.443636 0.024543 0.042619
C5    C     C_R   0.692378 0.462449 0.964439 0.124066
C6    C     C_R   0.734143 0.417471 0.860797 -0.298178
C7    C     C_R   0.632946 0.381192 0.811053 0.196625
C8    C     C_R   0.513342 0.460695 0.133665 -0.259667
C9    C     C_R   0.753441 0.526497 0.122482 -0.219344
C10   C     C_R   0.385866 0.414501 0.806053 -0.161151
C11   C     C_R   0.380424 0.933095 0.497870 0.093810
C12   C     C_R   0.425416 0.470589 0.698070 0.891969
C13   C     C_R   0.495698 0.872843 0.514152 -0.136707
C14   C     C_R   0.597768 0.943295 0.547614 0.181791
C15   C     C_R   0.597782 0.071185 0.541194 -0.238661
C16   C     C_R   0.491821 0.129205 0.510088 -0.147787
C17   C     C_R   0.377162 0.059958 0.497444 0.135084
C18   C     C_3   0.309906 0.061033 0.409561 -0.487851
C19   C     C_3   0.313420 0.920225 0.410094 -0.460131
C20   C     C_R   0.917876 0.599776 0.539177 0.219895
C21   C     C_R   0.943224 0.406710 0.453185 -0.161616
C22   C     C_R   0.086746 0.406311 0.453799 -0.136407
C23   C     C_R   0.498558 0.260281 0.499315 0.866979
C24   C     C_R   0.061782 0.600799 0.536081 0.228957
C25   C     C_3   0.037054 0.652891 0.643435 -0.512107
C26   C     C_3   0.881610 0.643576 0.652327 -0.549280
C27   C     C_R   0.575675 0.501198 0.297154 0.886580
C28   C     C_R   0.791395 0.515273 0.012667 0.216177
C29   C     C_R   0.616122 0.495677 0.182622 -0.103422
C30   C     C_R   0.246900 0.370273 0.857790 0.198286
C31   C     C_R   0.207868 0.351378 0.967558 -0.161157
C32   C     C_R   0.302219 0.380655 0.025359 -0.229159
H1    H     H_    0.830034 0.562327 0.160726 0.166041
H2    H     H_    0.683898 0.124591 0.557018 0.179749
H3    H     H_    0.200906 0.096904 0.436088 0.196883
H4    H     H_    0.379826 0.103663 0.335738 0.200092
H5    H     H_    0.385567 0.880619 0.336603 0.201051
H6    H     H_    0.900824 0.330168 0.416998 0.156563
H7    H     H_    0.079140 0.750034 0.641343 0.205785
H8    H     H_    0.823140 0.571864 0.708050 0.231529
H9    H     H_    0.844533 0.403222 0.820284 0.166043
H10   H     H_    0.406415 0.445369 0.182521 0.164981
H11   H     H_    0.261871 0.371398 0.110161 0.137532
H12   H     H_    0.102046 0.318267 0.009455 0.147840
N1    N     N_R   0.856940 0.500860 0.500710 -0.113976
N2    N     N_R   0.142580 0.500820 0.500710 -0.107052
O1    O     O_R   0.385310 0.683210 0.499990 -0.613996
O2    O     O_R   0.614650 0.683240 0.500000 -0.606363
O3    O     O_R   0.328390 0.499940 0.653610 -0.613004
O4    O     O_R   0.557730 0.499980 0.653620 -0.604006
O5    O     O_R   0.385350 0.316760 0.500000 -0.625123
O6    O     O_R   0.614690 0.316790 0.500010 -0.641569
O7    O     O_R   0.442270 0.500020 0.346380 -0.622547
O8    O     O_R   0.671610 0.500060 0.346390 -0.615676
Zn1   Zn    Zn3+2 0.346870 0.499980 0.499990 0.934493
Zn2   Zn    Zn3+2 0.653130 0.500020 0.500010 0.931966
H13   H     H_    0.206494 0.875029 0.436969 0.202960
H14   H     H_    0.152124 0.329496 0.418179 0.143336
H15   H     H_    0.070645 0.590564 0.696718 0.218391
H16   H     H_    0.836005 0.735593 0.668302 0.218505
C33   C     C_3   0.931760 0.571456 0.951240 -0.949137
H17   H     H_    0.944786 0.573988 0.865543 0.243129
H18   H     H_    0.939820 0.669297 0.976905 0.248667
H19   H     H_    0.018283 0.519963 0.966971 0.259426
C34   C     C_3   0.144475 0.331070 0.797526 -0.891925
H20   H     H_    0.052256 0.277782 0.848421 0.228865
H21   H     H_    0.103598 0.412904 0.767944 0.247028
H22   H     H_    0.197726 0.270494 0.729824 0.246040
C35   C     C_3   0.677439 0.294513 0.718246 -0.844047
H23   H     H_    0.584393 0.258102 0.695621 0.230727
H24   H     H_    0.753440 0.341872 0.650627 0.265059
H25   H     H_    0.729842 0.213428 0.740188 0.217824
C36   C     C_3   0.704982 0.887158 0.591407 -0.895483
H26   H     H_    0.647846 0.822279 0.655343 0.247030
H27   H     H_    0.785132 0.839577 0.527267 0.257945
H28   H     H_    0.761762 0.957716 0.627216 0.221888

loop_
_geom_bond_atom_site_label_1
_geom_bond_atom_site_label_2
_ccdc_geom_bond_type
C27   C29   S    
C36   H26   S    
C4    C8    A    
C12   O3    A    
C27   O8    A    
C19   H13   S    
C11   C19   S    
C20   C26   S    
C8    C29   A    
C8    H10   S    
C3    C7    A    
C5    C6    A    
C15   C16   A    
C2    C32   A    
C18   C19   S    
C35   H24   S    
C19   H5    S    
C21   H6    S    
C20   C24   A    
N1    Zn2   S    
C16   C17   A    
C34   H21   S    
C6    H9    S    
N2    Zn1   S    
C18   H3    S    
C15   H2    S    
C20   N1    A    
C9    C29   A    
C28   C33   S    
C13   C14   A    
C9    H1    S    
C36   H27   S    
C35   H23   S    
C21   N1    A    
O7    Zn1   S    
O8    Zn2   S    
C31   H12   S    
C14   C36   S    
C24   C25   S    
C1    O1    A    
C25   C26   S    
O3    Zn1   S    
O4    Zn2   S    
C35   H25   S    
C2    C4    A    
C7    C35   S    
C5    C28   A    
C10   C30   A    
C23   O5    A    
C31   C32   A    
C34   H22   S    
C33   H18   S    
C17   C18   S    
C10   C12   S    
C22   N2    A    
C16   C23   S    
C36   H28   S    
C1    C13   S    
O1    Zn1   S    
O2    Zn2   S    
C11   C17   A    
C4    C5    A    
C22   H14   S    
C12   O4    A    
C27   O7    A    
C1    O2    A    
C6    C7    A    
C24   N2    A    
C2    C3    A    
C3    C10   A    
C25   H7    S    
C33   H19   S    
C11   C13   A    
C26   H8    S    
C23   O6    A    
C30   C31   A    
C18   H4    S    
C32   H11   S    
O5    Zn1   S    
C33   H17   S    
C30   C34   S    
C34   H20   S    
C14   C15   A    
C25   H15   S    
C21   C22   A    
C26   H16   S    
O6    Zn2   S    
C9    C28   A    
