data_mof_unit_3725.cif
_audit_creation_date              2012-12-10T16:56:33-0500
_audit_creation_method            fapswitch 2.2
_symmetry_space_group_name_H-M    P1
_symmetry_Int_Tables_number       1
_space_group_crystal_system       triclinic
_cell_length_a                    7.764336
_cell_length_b                    8.574622
_cell_length_c                    15.708912
_cell_angle_alpha                 90.4994
_cell_angle_beta                  87.429691
_cell_angle_gamma                 93.40897
_cell_volume                      1042.92030857

loop_
_atom_site_label
_atom_site_type_symbol
_atom_type_description
_atom_site_fract_x
_atom_site_fract_y
_atom_site_fract_z
_atom_type_partial_charge
C1    C     C_R   0.545583 0.794621 0.497809 0.964213
C2    C     C_3   0.398638 0.375170 0.024389 -0.022984
C3    C     C_1   0.516372 0.500915 0.750354 -0.130909
C4    C     C_1   0.483628 0.499085 0.249646 -0.130910
C5    C     C_3   0.345372 0.508445 0.968180 -0.042144
C6    C     C_3   0.654628 0.491555 0.031820 -0.042144
C7    C     C_3   0.517168 0.501866 0.916583 0.063037
C8    C     C_3   0.482832 0.498134 0.083417 0.063037
C9    C     C_1   0.522367 0.501513 0.825486 0.048693
C10   C     C_1   0.477633 0.498487 0.174514 0.048693
C11   C     C_2   0.715926 0.764537 0.949237 0.933438
C12   C     C_R   0.454416 0.205379 0.502191 0.964213
C13   C     C_2   0.284074 0.235462 0.050763 0.933438
C14   C     C_1   0.821651 0.481449 0.071221 0.234060
C15   C     C_1   0.178349 0.518551 0.928778 0.234060
C16   C     C_R   0.504730 0.500278 0.661851 0.898251
C17   C     C_R   0.495270 0.499722 0.338149 0.898251
C18   C     C_2   0.569642 0.958012 0.496567 -0.362869
C19   C     C_2   0.430358 0.041988 0.503433 -0.362869
C20   C     C_3   0.428397 0.633033 0.028009 -0.257826
C21   C     C_3   0.571603 0.366967 0.971991 -0.257826
C22   C     C_3   0.601361 0.624830 0.975611 -0.022984
H1    H     H_    0.368417 0.740210 0.052057 0.186818
H2    H     H_    0.631583 0.259790 0.947943 0.186818
H3    H     H_    0.701341 0.008678 0.490015 0.183287
H4    H     H_    0.298659 0.991322 0.509985 0.183287
H5    H     H_    0.012860 0.383007 0.436610 0.201524
H6    H     H_    0.987140 0.616993 0.563390 0.201524
H7    H     H_    0.833875 0.890791 0.853442 0.353976
H8    H     H_    0.166125 0.109209 0.146558 0.353976
N1    N     N_2   0.950320 0.457950 0.477300 -0.170226
N2    N     N_2   0.049680 0.542050 0.522700 -0.170226
N3    N     N_1   0.952362 0.473566 0.103039 -0.174329
N4    N     N_1   0.047638 0.526434 0.896960 -0.174329
O1    O     O_R   0.389250 0.738570 0.505570 -0.613478
O2    O     O_R   0.755330 0.793196 0.862948 -0.797913
O3    O     O_2   0.225690 0.147061 0.996348 -0.610116
O4    O     O_R   0.244670 0.206804 0.137052 -0.797913
O5    O     O_R   0.610750 0.261430 0.494430 -0.613478
O6    O     O_R   0.678390 0.711630 0.491020 -0.629542
O7    O     O_R   0.321610 0.288370 0.508980 -0.629543
O8    O     O_R   0.355460 0.513480 0.630490 -0.607236
O9    O     O_R   0.644540 0.486520 0.369510 -0.607235
O10   O     O_R   0.644600 0.486540 0.615950 -0.616484
O11   O     O_R   0.355400 0.513460 0.384050 -0.616483
O12   O     O_2   0.774310 0.852939 0.003652 -0.610116
Zn1   Zn    Zn3+2 0.306940 0.517990 0.509710 0.968756
Zn2   Zn    Zn3+2 0.693060 0.482010 0.490290 0.968756

loop_
_geom_bond_atom_site_label_1
_geom_bond_atom_site_label_2
_ccdc_geom_bond_type
C17   O9    A    
C12   O7    A    
C3    C9    T    
C6    C14   S    
C7    C22   S    
O9    Zn2   S    
C16   O10   A    
C11   C22   S    
C13   O3    D    
N1    N2    D    
C20   H1    S    
N1    Zn2   S    
O1    Zn1   S    
C2    C21   S    
O7    Zn1   S    
C5    C20   S    
H7    O2    S    
H8    O4    S    
C13   O4    S    
C8    C20   S    
C18   H3    S    
C14   N3    T    
C4    C17   S    
C12   C19   S    
C11   O2    S    
C20   C22   S    
C7    C9    S    
O8    Zn1   S    
O11   Zn1   S    
N2    Zn1   S    
C5    C15   S    
C2    C5    S    
C4    C10   T    
C6    C22   S    
C16   O8    A    
H6    N2    S    
C1    O1    A    
C8    C10   S    
C18   C19   D    
C21   H2    S    
C5    C7    S    
C2    C13   S    
C1    C18   S    
O6    Zn2   S    
C11   O12   D    
C6    C8    S    
C15   N4    T    
C1    O6    A    
C7    C21   S    
C6    C21   S    
H5    N1    S    
C12   O5    A    
C2    C8    S    
C3    C16   S    
O10   Zn2   S    
C17   O11   A    
O5    Zn2   S    
C19   H4    S    
