data_mof_unit_2848.cif
_audit_creation_date              2012-12-10T20:25:44-0500
_audit_creation_method            fapswitch 2.2
_symmetry_space_group_name_H-M    P1
_symmetry_Int_Tables_number       1
_space_group_crystal_system       triclinic
_cell_length_a                    8.593848
_cell_length_b                    10.747193
_cell_length_c                    9.927427
_cell_angle_alpha                 89.254646
_cell_angle_beta                  96.510723
_cell_angle_gamma                 91.285195
_cell_volume                      910.701516305

loop_
_atom_site_label
_atom_site_type_symbol
_atom_type_description
_atom_site_fract_x
_atom_site_fract_y
_atom_site_fract_z
_atom_type_partial_charge
C1    C     C_R   0.503398 0.259742 0.500811 0.972651
C2    C     C_R   0.392512 0.430377 0.920138 0.204549
C3    C     C_3   0.380823 0.292013 0.921754 -0.492321
C4    C     C_R   0.201984 0.497228 0.466120 1.038582
C5    C     C_3   0.370412 0.295416 0.072340 0.263996
C6    C     C_R   0.505188 0.739468 0.499400 0.863098
C7    C     C_R   0.796800 0.492794 0.533296 0.852719
C8    C     C_2   0.038297 0.504005 0.450302 -0.479587
C9    C     C_2   0.954367 0.459430 0.545323 0.161855
C10   C     C_R   0.582987 0.061706 0.615119 0.194797
C11   C     C_R   0.521249 0.127362 0.499862 -0.101584
C12   C     C_R   0.492548 0.935933 0.374890 -0.226151
C13   C     C_R   0.489467 0.063924 0.376788 -0.164378
C14   C     C_3   0.712675 0.773455 0.115113 -0.314965
C15   C     C_R   0.527296 0.870638 0.496777 -0.094259
C16   C     C_R   0.586216 0.934102 0.613259 0.129592
C17   C     C_3   0.546357 0.919833 0.754709 -0.491159
C18   C     C_3   0.539882 0.060102 0.756466 -0.463011
C19   C     C_R   0.390303 0.432251 0.062226 0.075828
C20   C     C_R   0.597849 0.578201 0.081436 0.566857
C21   C     C_R   0.598592 0.576297 0.936438 -0.228820
H1    H     H_    0.986889 0.560119 0.365194 0.190889
H2    H     H_    0.418852 0.092534 0.760795 0.227236
H3    H     H_    0.634137 0.101887 0.828902 0.235327
H4    H     H_    0.082478 0.213718 0.308294 0.386664
H5    H     H_    0.080607 0.510310 0.791957 0.331290
H6    H     H_    0.595521 0.809691 0.075672 0.141659
H7    H     H_    0.794836 0.780931 0.036622 0.171172
H8    H     H_    0.760462 0.834038 0.200265 0.210292
H9    H     H_    0.681581 0.633466 0.888002 0.164852
H10   H     H_    0.275049 0.252934 0.862379 0.303216
H11   H     H_    0.493049 0.253908 0.899501 0.161763
H12   H     H_    0.471922 0.251243 0.131092 0.077184
H13   H     H_    0.450417 0.110902 0.283591 0.204445
H14   H     H_    0.455117 0.888875 0.280501 0.183311
H15   H     H_    0.430482 0.873395 0.761459 0.224544
H16   H     H_    0.645105 0.881815 0.823815 0.200140
N1    N     N_R   0.498950 0.499140 0.142680 -0.184083
N2    N     N_R   0.498950 0.499180 0.857030 -0.131887
O1    O     O_R   0.500020 0.316790 0.614690 -0.588464
O2    O     O_2   0.132359 0.126072 0.055600 -0.294141
O3    O     O_3   0.191601 0.231679 0.289679 -0.561008
O4    O     O_2   0.879564 0.259922 0.690841 -0.277118
O5    O     O_2   0.147291 0.271843 0.630048 -0.311145
O6    O     O_3   0.067887 0.421407 0.816693 -0.487444
O7    O     O_3   0.704391 0.649975 0.164352 -0.569825
O8    O     O_R   0.500000 0.316760 0.385350 -0.621454
O9    O     O_R   0.271760 0.500010 0.587850 -0.593231
O10   O     O_R   0.271740 0.499970 0.358500 -0.578908
O11   O     O_R   0.500000 0.683240 0.614650 -0.640728
O12   O     O_R   0.499980 0.683210 0.385310 -0.600645
O13   O     O_R   0.728260 0.500030 0.641500 -0.587610
O14   O     O_R   0.728240 0.499990 0.412150 -0.593511
O15   O     O_2   0.061500 0.344319 0.075802 -0.222423
S1    S     S_3+6 0.181709 0.248444 0.120453 0.054412
S2    S     S_3+6 0.014857 0.346624 0.670799 0.058578
Zn1   Zn    Zn3+2 0.500010 0.500020 0.653130 1.011020
Zn2   Zn    Zn3+2 0.499990 0.499980 0.346870 1.037344

loop_
_geom_bond_atom_site_label_1
_geom_bond_atom_site_label_2
_ccdc_geom_bond_type
H4    O3    S    
C8    C9    D    
C8    H1    S    
O14   Zn2   S    
C5    C19   S    
C19   N1    A    
O3    S1    S    
C20   N1    A    
C21   H9    S    
O5    S2    D    
C21   N2    A    
C12   C15   A    
C4    O10   A    
C4    C8    S    
H5    O6    S    
C17   C18   S    
C2    C19   A    
O9    Zn1   S    
C14   O7    S    
C9    S2    S    
C17   H16   S    
C6    O11   A    
O8    Zn2   S    
C3    H10   S    
C12   C13   A    
C11   C13   A    
C10   C18   S    
C18   H3    S    
C17   H15   S    
C7    O13   A    
C2    C3    S    
C10   C11   A    
C3    H11   S    
C14   H6    S    
C20   O7    S    
O13   Zn1   S    
C7    O14   A    
C14   H8    S    
C18   H2    S    
N2    Zn1   S    
C3    C5    S    
O4    S2    D    
C13   H13   S    
C20   C21   A    
C7    C9    S    
C4    O9    A    
C6    O12   A    
O12   Zn2   S    
O15   S1    D    
C1    O8    A    
C10   C16   A    
O1    Zn1   S    
C1    O1    A    
C14   H7    S    
C6    C15   S    
N1    Zn2   S    
O11   Zn1   S    
C2    N2    A    
C5    S1    S    
O2    S1    D    
O10   Zn2   S    
C15   C16   A    
O6    S2    S    
C5    H12   S    
C16   C17   S    
C12   H14   S    
C1    C11   S    
