data_mof_unit_787.cif
_audit_creation_date              2012-12-11T16:52:13-0500
_audit_creation_method            fapswitch 2.2
_symmetry_space_group_name_H-M    P1
_symmetry_Int_Tables_number       1
_space_group_crystal_system       triclinic
_cell_length_a                    7.197584
_cell_length_b                    26.061783
_cell_length_c                    28.72965
_cell_angle_alpha                 89.999911
_cell_angle_beta                  89.999614
_cell_angle_gamma                 90.000794
_cell_volume                      5389.1615378

loop_
_atom_site_label
_atom_site_type_symbol
_atom_type_description
_atom_site_fract_x
_atom_site_fract_y
_atom_site_fract_z
_atom_type_partial_charge
O1    O     O_R   0.601030 0.796770 0.202460 -0.539547
O2    O     O_R   0.398970 0.203230 0.797540 -0.539768
O3    O     O_R   0.398970 0.203230 0.702460 -0.539546
O4    O     O_R   0.601030 0.796770 0.297540 -0.539770
O5    O     O_R   0.101030 0.703230 0.297540 -0.539547
O6    O     O_R   0.898970 0.296770 0.702460 -0.539770
O7    O     O_R   0.898970 0.296770 0.797540 -0.539547
O8    O     O_R   0.101030 0.703230 0.202460 -0.539769
O9    O     O_R   0.271290 0.802910 0.297210 -0.537851
O10   O     O_R   0.728710 0.197090 0.702790 -0.538415
O11   O     O_R   0.728710 0.197090 0.797210 -0.537856
O12   O     O_R   0.271290 0.802910 0.202790 -0.538417
O13   O     O_R   0.771290 0.697090 0.202790 -0.537851
O14   O     O_R   0.228710 0.302910 0.797210 -0.538417
O15   O     O_R   0.228710 0.302910 0.702790 -0.537851
O16   O     O_R   0.771290 0.697090 0.297210 -0.538416
C1    C     C_R   0.439922 0.815421 0.312596 0.694918
C2    C     C_R   0.560108 0.184609 0.687386 0.694187
C3    C     C_R   0.560077 0.184578 0.812595 0.694918
C4    C     C_R   0.439893 0.815391 0.187386 0.694190
C5    C     C_R   0.939921 0.684579 0.187404 0.694921
C6    C     C_R   0.060109 0.315391 0.812614 0.694177
C7    C     C_R   0.060080 0.315422 0.687405 0.694914
C8    C     C_R   0.939890 0.684609 0.312614 0.694182
O17   O     O_3   0.434520 0.717290 0.250000 -0.374541
O18   O     O_3   0.565480 0.282710 0.750000 -0.374540
O19   O     O_3   0.934520 0.782710 0.250000 -0.374541
O20   O     O_3   0.065480 0.217290 0.750000 -0.374539
V1    V     V_3+5 0.159680 0.756060 0.250000 1.426018
V2    V     V_3+5 0.840320 0.243940 0.750000 1.426007
V3    V     V_3+5 0.659680 0.743940 0.250000 1.426022
V4    V     V_3+5 0.340320 0.256060 0.750000 1.426015
C9    C     C_R   0.209991 0.368221 0.624047 -0.147454
C10   C     C_R   0.118612 0.621626 0.361829 -0.153868
C11   C     C_R   0.790009 0.631777 0.124049 -0.147513
C12   C     C_R   0.881388 0.378374 0.861829 -0.153893
C13   C     C_R   0.710002 0.131755 0.875933 -0.147339
C14   C     C_R   0.618637 0.878362 0.138160 -0.153824
C15   C     C_R   0.290008 0.868227 0.375947 -0.147514
C16   C     C_R   0.381381 0.121629 0.638168 -0.153883
H1    H     H_    0.342886 0.350523 0.631433 0.122882
H2    H     H_    0.244356 0.630606 0.342800 0.135839
H3    H     H_    0.657112 0.649472 0.131438 0.122896
H4    H     H_    0.755646 0.369396 0.842799 0.135840
H5    H     H_    0.842917 0.149434 0.868532 0.122872
H6    H     H_    0.744390 0.869373 0.157181 0.135824
H7    H     H_    0.157106 0.850535 0.368556 0.122893
H8    H     H_    0.255637 0.130608 0.657197 0.135840
C17   C     C_R   0.199339 0.404290 0.587941 -0.020189
C18   C     C_R   0.127889 0.585347 0.397695 -0.087972
C19   C     C_R   0.800660 0.595709 0.087943 -0.020062
C20   C     C_R   0.872111 0.414653 0.897696 -0.087947
C21   C     C_R   0.699349 0.095686 0.912038 -0.020329
C22   C     C_R   0.627919 0.914642 0.102294 -0.087967
C23   C     C_R   0.300660 0.904295 0.412053 -0.020068
C24   C     C_R   0.372103 0.085350 0.602301 -0.087936
H9    H     H_    0.323089 0.413067 0.568079 0.142382
H10   H     H_    0.259891 0.567369 0.405503 0.164140
H11   H     H_    0.676906 0.586928 0.068085 0.142578
H12   H     H_    0.740110 0.432631 0.905503 0.164150
H13   H     H_    0.823121 0.086888 0.931884 0.142095
H14   H     H_    0.759932 0.932610 0.094478 0.164065
H15   H     H_    0.176900 0.913082 0.431907 0.142559
H16   H     H_    0.240100 0.067373 0.594493 0.164139
C25   C     C_R   0.029970 0.428322 0.577188 0.159171
C26   C     C_R   0.968463 0.572223 0.423234 0.170238
C27   C     C_R   0.970029 0.571678 0.077188 0.159167
C28   C     C_R   0.031535 0.427774 0.923235 0.170281
C29   C     C_R   0.529956 0.071676 0.922811 0.159197
C30   C     C_R   0.468481 0.927777 0.076767 0.170187
C31   C     C_R   0.470037 0.928321 0.422812 0.159176
C32   C     C_R   0.531529 0.072227 0.576764 0.170283
C33   C     C_R   0.870406 0.414381 0.602303 -0.092888
C34   C     C_R   0.799968 0.596834 0.412741 -0.043911
C35   C     C_R   0.129595 0.585623 0.102299 -0.092967
C36   C     C_R   0.200027 0.403162 0.912744 -0.044016
C37   C     C_R   0.370372 0.085640 0.897716 -0.092765
C38   C     C_R   0.299971 0.903180 0.087270 -0.043883
C39   C     C_R   0.629607 0.914373 0.397704 -0.092959
C40   C     C_R   0.700025 0.096837 0.587257 -0.044038
H17   H     H_    0.737725 0.431788 0.594272 0.167688
H18   H     H_    0.676456 0.588648 0.432909 0.141638
H19   H     H_    0.262277 0.568218 0.094266 0.167734
H20   H     H_    0.323537 0.411346 0.932912 0.141593
H21   H     H_    0.237674 0.068250 0.905763 0.167472
H22   H     H_    0.176448 0.911376 0.067111 0.141673
H23   H     H_    0.762294 0.931776 0.405740 0.167698
H24   H     H_    0.823537 0.088652 0.567090 0.141582
C41   C     C_R   0.880270 0.377960 0.638020 -0.146413
C42   C     C_R   0.789875 0.632699 0.376480 -0.159692
C43   C     C_R   0.119733 0.622044 0.138016 -0.146398
C44   C     C_R   0.210121 0.367297 0.876483 -0.159693
C45   C     C_R   0.380239 0.122061 0.861999 -0.146410
C46   C     C_R   0.289874 0.867314 0.123530 -0.159713
C47   C     C_R   0.619742 0.877952 0.361987 -0.146397
C48   C     C_R   0.710120 0.132702 0.623518 -0.159690
H25   H     H_    0.754256 0.368399 0.656701 0.138433
H26   H     H_    0.657625 0.650865 0.369305 0.124001
H27   H     H_    0.245749 0.631607 0.156694 0.138430
H28   H     H_    0.342369 0.349130 0.869307 0.123997
H29   H     H_    0.254208 0.131640 0.843334 0.138403
H30   H     H_    0.157611 0.849158 0.130714 0.124011
H31   H     H_    0.745762 0.868386 0.343312 0.138424
H32   H     H_    0.842371 0.150867 0.630695 0.123999
C49   C     C_R   0.050377 0.354483 0.649563 -0.057114
C50   C     C_R   0.949262 0.645683 0.350561 -0.051524
C51   C     C_R   0.949624 0.645518 0.149562 -0.057098
C52   C     C_R   0.050737 0.354315 0.850562 -0.051514
C53   C     C_R   0.550368 0.145516 0.850437 -0.057144
C54   C     C_R   0.449272 0.854317 0.149439 -0.051533
C55   C     C_R   0.449628 0.854481 0.350438 -0.057096
C56   C     C_R   0.550733 0.145685 0.649437 -0.051515
C57   C     C_R   0.122367 0.511928 0.537024 0.427619
C58   C     C_R   0.874715 0.488936 0.463588 0.484642
C59   C     C_R   0.877618 0.488073 0.037024 0.428091
C60   C     C_R   0.125293 0.511059 0.963590 0.484606
C61   C     C_R   0.622286 0.988060 0.962961 0.426972
C62   C     C_R   0.374800 0.011076 0.036427 0.484686
C63   C     C_R   0.377642 0.011928 0.462972 0.428093
C64   C     C_R   0.625275 0.988940 0.536412 0.484606
C65   C     C_R   0.104888 0.545016 0.498697 -0.256250
C66   C     C_R   0.892537 0.455751 0.501850 -0.265818
C67   C     C_R   0.895099 0.454984 0.998697 -0.256342
C68   C     C_R   0.107471 0.544245 0.001852 -0.265712
C69   C     C_R   0.604825 0.954973 0.001290 -0.256236
C70   C     C_R   0.392610 0.044261 0.998163 -0.265911
C71   C     C_R   0.395114 0.045018 0.501299 -0.256377
C72   C     C_R   0.607458 0.955753 0.498151 -0.265700
H33   H     H_    0.186521 0.579928 0.497609 0.181148
H34   H     H_    0.810941 0.420835 0.502905 0.188504
H35   H     H_    0.813457 0.420074 0.997608 0.181103
H36   H     H_    0.189075 0.579160 0.002907 0.188572
H37   H     H_    0.686402 0.920051 0.002368 0.181198
H38   H     H_    0.311068 0.079186 0.997118 0.188420
H39   H     H_    0.313483 0.079929 0.502385 0.181092
H40   H     H_    0.689051 0.920838 0.497097 0.188569
C73   C     C_R   0.981306 0.534569 0.462081 -0.111795
C74   C     C_R   0.016374 0.466150 0.538457 -0.108347
C75   C     C_R   0.018692 0.465429 0.962082 -0.111916
C76   C     C_R   0.983623 0.533849 0.038457 -0.108477
C77   C     C_R   0.481324 0.965433 0.037921 -0.111652
C78   C     C_R   0.516364 0.033849 0.961543 -0.108213
C79   C     C_R   0.518688 0.034571 0.537917 -0.111920
C80   C     C_R   0.483630 0.966151 0.461542 -0.108490
S1    S     S_3+6 0.273278 0.530683 0.582741 0.077761
O21   O     O_2   0.294615 0.588064 0.583383 -0.276895
O22   O     O_2   0.197892 0.513558 0.628983 -0.265907
O23   O     O_3   0.483208 0.503976 0.574402 -0.500024
H41   H     H_    0.521025 0.514843 0.542742 0.332242
S2    S     S_3+6 0.723009 0.470661 0.417935 0.033703
O24   O     O_2   0.699538 0.413345 0.417528 -0.277230
O25   O     O_2   0.536800 0.495234 0.425880 -0.367250
O26   O     O_3   0.808058 0.489530 0.366151 -0.475948
H42   H     H_    0.704253 0.484817 0.343923 0.389442
S3    S     S_3+6 0.726685 0.469322 0.082736 0.077476
O27   O     O_2   0.705402 0.411940 0.083392 -0.277143
O28   O     O_2   0.801991 0.486464 0.128981 -0.265958
O29   O     O_3   0.516752 0.496015 0.074371 -0.500244
H43   H     H_    0.478461 0.484862 0.042831 0.332561
S4    S     S_3+6 0.277013 0.529332 0.917939 0.033823
O30   O     O_2   0.300491 0.586647 0.917530 -0.277153
O31   O     O_2   0.463217 0.504757 0.925889 -0.367202
O32   O     O_3   0.191981 0.510461 0.866154 -0.475940
H44   H     H_    0.295820 0.515146 0.843933 0.389434
S5    S     S_3+6 0.773055 0.969282 0.917222 0.078154
O33   O     O_2   0.794246 0.911899 0.916578 -0.276552
O34   O     O_2   0.697590 0.986423 0.870993 -0.265869
O35   O     O_3   0.983083 0.995947 0.925522 -0.499604
H45   H     H_    0.020302 0.985442 0.957336 0.331766
S6    S     S_3+6 0.223193 0.029363 0.082096 0.033678
O36   O     O_2   0.199784 0.086680 0.082505 -0.277211
O37   O     O_2   0.036944 0.004803 0.074171 -0.367281
O38   O     O_3   0.308311 0.010487 0.133870 -0.475933
H46   H     H_    0.204517 0.015173 0.156103 0.389455
S7    S     S_3+6 0.226750 0.030685 0.417255 0.077495
O39   O     O_2   0.205585 0.088070 0.416584 -0.277119
O40   O     O_2   0.302019 0.013518 0.371014 -0.265975
O41   O     O_3   0.016760 0.004026 0.425626 -0.500196
H47   H     H_    0.978462 0.015189 0.457164 0.332550
S8    S     S_3+6 0.776973 0.970667 0.582066 0.033845
O42   O     O_2   0.800435 0.913351 0.582476 -0.277145
O43   O     O_2   0.963186 0.995239 0.574120 -0.367195
O44   O     O_3   0.691926 0.989539 0.633849 -0.475928
H48   H     H_    0.795769 0.984867 0.656070 0.389439

loop_
_geom_bond_atom_site_label_1
_geom_bond_atom_site_label_2
_ccdc_geom_bond_type
O17   V3    S    
C32   C79   S    
O18   V4    S    
S5    O33   D    
O12   V1    S    
C12   C52   A    
C29   C37   A    
O32   H44   S    
C10   H2    S    
C62   C77   A    
C21   C29   A    
C36   H20   S    
C31   C39   A    
O41   H47   S    
C27   C35   A    
C25   C33   A    
O15   V4    S    
S7    O40   D    
O14   V4    S    
O38   H46   S    
O16   V3    S    
C48   C56   A    
O11   C3    A    
C17   C25   A    
O8    V1    S    
C42   H26   S    
C2    C56   S    
C60   S4    S    
C72   H40   S    
C30   C38   A    
S6    O36   D    
C62   S6    S    
C9    C17   A    
C7    C49   S    
C67   C75   A    
O1    V3    S    
C17   H9    S    
O19   V1    S    
C68   H36   S    
O3    C2    A    
O2    V4    S    
C58   C73   A    
C65   C73   A    
C68   C76   A    
C20   H12   S    
C63   S7    S    
C21   H13   S    
C44   C52   A    
C15   C23   A    
O11   V2    S    
C61   S5    S    
C16   C24   A    
S2    O26   S    
C23   H15   S    
C24   H16   S    
C14   C54   A    
C11   H3    S    
C13   C53   A    
C12   C20   A    
S8    O44   S    
O9    V1    S    
C60   C75   A    
C67   H35   S    
C38   H22   S    
O15   C7    A    
C37   H21   S    
C14   C22   A    
O16   C8    A    
O7    V2    S    
C39   H23   S    
S3    O29   S    
O14   C6    A    
C63   C80   A    
C64   C79   A    
C34   H18   S    
C1    C55   S    
C70   H38   S    
C33   H17   S    
S1    O22   D    
C47   H31   S    
S1    O21   D    
S7    O41   S    
O5    V1    S    
C3    C53   S    
O10   C2    A    
C10   C18   A    
C59   C67   A    
C10   C50   A    
S4    O32   S    
C43   C51   A    
C9    C49   A    
O23   H41   S    
C66   C74   A    
C16   C56   A    
C8    C50   S    
C69   C77   A    
C19   C27   A    
C22   H14   S    
C24   C32   A    
C29   C78   S    
C46   C54   A    
C32   C40   A    
C41   H25   S    
S4    O31   D    
C40   C48   A    
O44   H48   S    
C39   C47   A    
C27   C76   S    
C26   C34   A    
C72   C80   A    
O10   V2    S    
S7    O39   D    
C22   C30   A    
O12   C4    A    
O8    C5    A    
C18   H10   S    
O13   C5    A    
C71   C79   A    
S3    O28   D    
C18   C26   A    
C42   C50   A    
C5    C51   S    
C36   C44   A    
C4    C54   S    
C25   C74   S    
O9    C1    A    
O35   H45   S    
O6    V2    S    
S5    O35   S    
C57   S1    S    
C48   H32   S    
C11   C19   A    
O29   H43   S    
S2    O25   D    
C12   H4    S    
C19   H11   S    
O4    C1    A    
C45   H29   S    
S1    O23   S    
S8    O42   D    
C44   H28   S    
C15   H7    S    
C69   H37   S    
C16   H8    S    
C30   C77   S    
C60   C68   A    
C59   S3    S    
O2    C3    A    
C57   C74   A    
O13   V3    S    
C65   H33   S    
O1    C4    A    
C20   C28   A    
C64   C72   A    
C35   C43   A    
C28   C36   A    
O7    C6    A    
C9    H1    S    
S4    O30   D    
C34   C42   A    
O20   V2    S    
C61   C78   A    
C64   S8    S    
C13   C21   A    
C40   H24   S    
C47   C55   A    
S8    O43   D    
C37   C45   A    
C35   H19   S    
O5    C8    A    
S6    O37   D    
C38   C46   A    
C6    C52   S    
O6    C7    A    
C15   C55   A    
C70   C78   A    
O3    V4    S    
C71   H39   S    
C14   H6    S    
O4    V3    S    
C11   C51   A    
C33   C41   A    
C58   C66   A    
C57   C65   A    
C59   C76   A    
C46   H30   S    
S5    O34   D    
C28   C75   S    
C41   C49   A    
S3    O27   D    
C58   S2    S    
S2    O24   D    
C26   C73   S    
C62   C70   A    
C43   H27   S    
O26   H42   S    
C61   C69   A    
C13   H5    S    
C66   H34   S    
C23   C31   A    
C45   C53   A    
C31   C80   S    
S6    O38   S    
C63   C71   A    
