data_mof_unit_2454.cif
_audit_creation_date              2012-12-11T16:26:15-0500
_audit_creation_method            fapswitch 2.2
_symmetry_space_group_name_H-M    P1
_symmetry_Int_Tables_number       1
_space_group_crystal_system       triclinic
_cell_length_a                    13.952581
_cell_length_b                    13.952444
_cell_length_c                    31.952092
_cell_angle_alpha                 89.999176
_cell_angle_beta                  90.000683
_cell_angle_gamma                 120.000889
_cell_volume                      5386.80034952

loop_
_atom_site_label
_atom_site_type_symbol
_atom_type_description
_atom_site_fract_x
_atom_site_fract_y
_atom_site_fract_z
_atom_type_partial_charge
C1    C     C_R   0.566603 0.444568 0.810492 0.576646
C2    C     C_R   0.877949 0.433386 0.689502 0.576512
C3    C     C_R   0.555435 0.122042 0.810494 0.576625
C4    C     C_R   0.566613 0.444566 0.689503 0.576522
C5    C     C_R   0.877966 0.433397 0.810491 0.576638
C6    C     C_R   0.555436 0.122053 0.689502 0.576512
C7    C     C_R   0.444565 0.566615 0.310498 0.576539
C8    C     C_R   0.433382 0.877942 0.189502 0.576611
C9    C     C_R   0.122053 0.555435 0.310498 0.576540
C10   C     C_R   0.444555 0.566620 0.189499 0.576603
C11   C     C_R   0.433385 0.877949 0.310497 0.576534
C12   C     C_R   0.122065 0.555444 0.189500 0.576611
C13   C     C_1   0.001862 0.519580 0.018676 0.071512
C14   C     C_1   0.518708 0.998968 0.481232 0.071527
C15   C     C_1   0.480402 0.481965 0.018707 0.071542
C16   C     C_1   0.001105 0.519762 0.481240 0.071548
C17   C     C_1   0.518051 0.998544 0.018721 0.071571
C18   C     C_1   0.480171 0.481315 0.481244 0.071512
C19   C     C_1   0.519763 0.001082 0.518761 0.071521
C20   C     C_1   0.999750 0.518555 0.981147 0.071599
C21   C     C_1   0.481222 0.480258 0.518774 0.071503
C22   C     C_1   0.519122 0.000663 0.981193 0.071521
C23   C     C_1   0.998995 0.518709 0.518770 0.071533
C24   C     C_1   0.481444 0.480891 0.981177 0.071503
C25   C     C_R   0.938116 0.474399 0.851082 -0.033474
C26   C     C_R   0.536359 0.062070 0.648873 -0.033546
C27   C     C_R   0.525624 0.463689 0.851093 -0.033485
C28   C     C_R   0.937949 0.474306 0.648877 -0.033547
C29   C     C_R   0.536323 0.061970 0.851102 -0.033488
C30   C     C_R   0.525685 0.463651 0.648880 -0.033545
C31   C     C_R   0.474299 0.937947 0.351123 -0.033545
C32   C     C_R   0.062207 0.536417 0.148847 -0.033467
C33   C     C_R   0.463644 0.525710 0.351127 -0.033549
C34   C     C_R   0.474254 0.937868 0.148863 -0.033487
C35   C     C_R   0.062070 0.536354 0.351127 -0.033544
C36   C     C_R   0.463593 0.525762 0.148855 -0.033492
C37   C     C_R   0.944988 0.568125 0.871538 0.183886
C38   C     C_R   0.623106 0.054787 0.628522 0.184090
C39   C     C_R   0.431829 0.376851 0.871524 0.183910
C40   C     C_R   0.945211 0.568323 0.628521 0.184090
C41   C     C_R   0.623172 0.055057 0.871542 0.183887
C42   C     C_R   0.431632 0.376914 0.628535 0.184098
C43   C     C_R   0.568336 0.945243 0.371473 0.184105
C44   C     C_R   0.055530 0.623351 0.128374 0.183904
C45   C     C_R   0.376911 0.431651 0.371470 0.184107
C46   C     C_R   0.567979 0.944714 0.128420 0.183917
C47   C     C_R   0.054775 0.623094 0.371477 0.184103
C48   C     C_R   0.376710 0.432025 0.128416 0.183902
C49   C     C_R   0.971070 0.585451 0.914241 0.235343
C50   C     C_R   0.614655 0.028988 0.585796 0.235346
C51   C     C_R   0.414510 0.385521 0.914235 0.235320
C52   C     C_R   0.971035 0.585679 0.585797 0.235348
C53   C     C_R   0.614506 0.029102 0.914256 0.235329
C54   C     C_R   0.414253 0.385374 0.585812 0.235358
C55   C     C_R   0.585693 0.971056 0.414198 0.235345
C56   C     C_R   0.030000 0.614841 0.085624 0.235235
C57   C     C_R   0.385340 0.414303 0.414199 0.235346
C58   C     C_R   0.585117 0.970385 0.085683 0.235283
C59   C     C_R   0.028983 0.614645 0.414204 0.235342
C60   C     C_R   0.385221 0.414890 0.085676 0.235240
C61   C     C_R   0.994945 0.513157 0.936279 -0.053490
C62   C     C_R   0.518854 0.005777 0.563629 -0.053592
C63   C     C_R   0.486902 0.481584 0.936309 -0.053550
C64   C     C_R   0.994294 0.513113 0.563638 -0.053595
C65   C     C_R   0.518435 0.005422 0.936325 -0.053532
C66   C     C_R   0.486839 0.481172 0.563643 -0.053592
C67   C     C_R   0.513105 0.994271 0.436364 -0.053595
C68   C     C_R   0.006459 0.518817 0.063548 -0.053540
C69   C     C_R   0.481109 0.486927 0.436376 -0.053598
C70   C     C_R   0.512631 0.993892 0.063591 -0.053516
C71   C     C_R   0.005789 0.518849 0.436372 -0.053590
C72   C     C_R   0.481192 0.487392 0.063577 -0.053520
C73   C     C_R   0.005659 0.430340 0.914979 0.205827
C74   C     C_R   0.425340 0.995484 0.584810 0.205616
C75   C     C_R   0.569823 0.575119 0.915039 0.205852
C76   C     C_R   0.004615 0.429915 0.584826 0.205635
C77   C     C_R   0.424893 0.994774 0.915049 0.205838
C78   C     C_R   0.570082 0.574682 0.584820 0.205631
C79   C     C_R   0.429881 0.004560 0.415182 0.205628
C80   C     C_R   0.995553 0.425179 0.084838 0.206036
C81   C     C_R   0.574621 0.570182 0.415203 0.205623
C82   C     C_R   0.429770 0.004621 0.084857 0.205981
C83   C     C_R   0.995502 0.425336 0.415192 0.205613
C84   C     C_R   0.574783 0.570274 0.084835 0.205928
C85   C     C_R   0.977517 0.411249 0.872134 0.267501
C86   C     C_R   0.434102 0.023347 0.627676 0.267164
C87   C     C_R   0.588872 0.566164 0.872183 0.267513
C88   C     C_R   0.976720 0.410800 0.627689 0.267188
C89   C     C_R   0.433846 0.022742 0.872189 0.267466
C90   C     C_R   0.589211 0.565911 0.627683 0.267184
C91   C     C_R   0.410768 0.976677 0.372318 0.267178
C92   C     C_R   0.023095 0.433987 0.127740 0.267494
C93   C     C_R   0.565881 0.589277 0.372335 0.267171
C94   C     C_R   0.410908 0.976928 0.127743 0.267514
C95   C     C_R   0.023363 0.434099 0.372327 0.267151
C96   C     C_R   0.565976 0.589137 0.127723 0.267450
Cr1   Cr    Cr6+3 0.504240 0.249200 0.750000 1.206447
Cr2   Cr    Cr6+3 0.744960 0.495760 0.750000 1.206442
Cr3   Cr    Cr6+3 0.750800 0.255040 0.750000 1.206453
Cr4   Cr    Cr6+3 0.249200 0.504240 0.250000 1.206437
Cr5   Cr    Cr6+3 0.495760 0.744960 0.250000 1.206432
Cr6   Cr    Cr6+3 0.255040 0.750800 0.250000 1.206427
O1    O     O_R   0.480350 0.140770 0.796330 -0.410361
O2    O     O_R   0.660420 0.519650 0.703670 -0.410453
O3    O     O_R   0.859230 0.339580 0.796330 -0.410349
O4    O     O_R   0.480350 0.140770 0.703670 -0.410463
O5    O     O_R   0.660420 0.519650 0.796330 -0.410324
O6    O     O_R   0.859230 0.339580 0.703670 -0.410452
O7    O     O_R   0.140770 0.480350 0.296330 -0.410460
O8    O     O_R   0.519650 0.660420 0.203670 -0.410392
O9    O     O_R   0.339580 0.859230 0.296330 -0.410458
O10   O     O_R   0.140770 0.480350 0.203670 -0.410423
O11   O     O_R   0.519650 0.660420 0.296330 -0.410458
O12   O     O_R   0.339580 0.859230 0.203670 -0.410367
O13   O     O_R   0.514930 0.348530 0.793250 -0.464131
O14   O     O_R   0.833600 0.485070 0.706750 -0.464143
O15   O     O_R   0.651470 0.166400 0.793250 -0.464133
O16   O     O_R   0.514930 0.348530 0.706750 -0.464134
O17   O     O_R   0.833600 0.485070 0.793250 -0.464118
O18   O     O_R   0.651470 0.166400 0.706750 -0.464137
O19   O     O_R   0.348530 0.514930 0.293250 -0.464114
O20   O     O_R   0.485070 0.833600 0.206750 -0.464144
O21   O     O_R   0.166400 0.651470 0.293250 -0.464121
O22   O     O_R   0.348530 0.514930 0.206750 -0.464160
O23   O     O_R   0.485070 0.833600 0.293250 -0.464111
O24   O     O_R   0.166400 0.651470 0.206750 -0.464142
O25   O     O_3   0.666667 0.333333 0.750000 -0.339876
O26   O     O_3   0.333333 0.666667 0.250000 -0.339919
Cl1   Cl    Cl    0.921285 0.665975 0.845087 -0.372129
Cl2   Cl    Cl    0.744106 0.077543 0.655156 -0.372061
Cl3   Cl    Cl    0.333874 0.255432 0.845027 -0.372111
Cl4   Cl    Cl    0.922395 0.666540 0.655145 -0.372082
Cl5   Cl    Cl    0.744607 0.078546 0.845054 -0.372064
Cl6   Cl    Cl    0.333399 0.255915 0.655172 -0.372071
Cl7   Cl    Cl    0.666579 0.922488 0.344840 -0.372050
Cl8   Cl    Cl    0.078749 0.744679 0.154874 -0.372082
Cl9   Cl    Cl    0.255958 0.333370 0.344823 -0.372040
Cl10  Cl    Cl    0.666085 0.921537 0.154945 -0.372105
Cl11  Cl    Cl    0.077507 0.744083 0.344840 -0.372056
Cl12  Cl    Cl    0.255444 0.333906 0.154947 -0.372079
Cl13  Cl    Cl    0.032633 0.727536 0.058996 -0.338188
Cl14  Cl    Cl    0.696333 0.969215 0.440686 -0.337922
Cl15  Cl    Cl    0.272593 0.304657 0.059086 -0.338146
Cl16  Cl    Cl    0.030827 0.727128 0.440691 -0.337936
Cl17  Cl    Cl    0.695331 0.967976 0.059086 -0.338054
Cl18  Cl    Cl    0.272865 0.303624 0.440676 -0.337905
Cl19  Cl    Cl    0.727142 0.030843 0.559308 -0.337928
Cl20  Cl    Cl    0.968699 0.695641 0.940872 -0.337993
Cl21  Cl    Cl    0.303586 0.272902 0.559331 -0.337899
Cl22  Cl    Cl    0.727062 0.031385 0.940858 -0.337996
Cl23  Cl    Cl    0.969146 0.696288 0.559301 -0.337934
Cl24  Cl    Cl    0.304194 0.272978 0.940828 -0.338008
O27   O     O_3   0.014130 0.344282 0.149724 -0.573978
H1    H     H_    0.983190 0.277664 0.131762 0.420926
O28   O     O_3   0.329451 0.984938 0.350463 -0.573812
H2    H     H_    0.293621 0.015610 0.368480 0.421125
O29   O     O_3   0.655641 0.670054 0.149668 -0.573921
H3    H     H_    0.722229 0.705776 0.131691 0.420941
O30   O     O_3   0.015103 0.344520 0.350473 -0.573824
H4    H     H_    0.984448 0.278022 0.368493 0.421120
O31   O     O_3   0.330023 0.985704 0.149697 -0.573869
H5    H     H_    0.294328 0.016612 0.131728 0.420971
O32   O     O_3   0.655465 0.670614 0.350486 -0.573796
H6    H     H_    0.721953 0.706468 0.368511 0.421133
O33   O     O_3   0.344521 0.015074 0.649531 -0.573845
H7    H     H_    0.278017 0.984401 0.631513 0.421105
O34   O     O_3   0.986199 0.330341 0.850156 -0.574026
H8    H     H_    0.017378 0.294810 0.868074 0.420849
O35   O     O_3   0.670540 0.655488 0.649535 -0.573816
H9    H     H_    0.706359 0.721994 0.631518 0.421117
O36   O     O_3   0.344236 0.014080 0.850231 -0.574010
H10   H     H_    0.277575 0.983031 0.868173 0.420891
O37   O     O_3   0.985011 0.329508 0.649551 -0.573838
H11   H     H_    0.015713 0.293697 0.631539 0.421107
O38   O     O_3   0.669848 0.655771 0.850231 -0.573933
H12   H     H_    0.705455 0.722432 0.868173 0.420909
O39   O     O_3   0.963579 0.325907 0.064553 -0.618466
H13   H     H_    0.930627 0.324713 0.037009 0.356433
O40   O     O_3   0.362449 0.036204 0.435559 -0.618784
H14   H     H_    0.394738 0.069933 0.462956 0.356132
O41   O     O_3   0.673993 0.637611 0.064522 -0.618621
H15   H     H_    0.675332 0.605567 0.037058 0.356268
O42   O     O_3   0.963881 0.326267 0.435573 -0.618777
H16   H     H_    0.930143 0.324821 0.462968 0.356152
O43   O     O_3   0.362458 0.036540 0.064552 -0.618509
H17   H     H_    0.394475 0.069885 0.037081 0.356249
O44   O     O_3   0.673668 0.637664 0.435592 -0.618781
H18   H     H_    0.675095 0.605419 0.463000 0.356145
O45   O     O_3   0.326269 0.963858 0.564431 -0.618798
H19   H     H_    0.324833 0.930146 0.537031 0.356133
O46   O     O_3   0.037971 0.363272 0.935227 -0.618749
H20   H     H_    0.071932 0.395705 0.962582 0.356027
O47   O     O_3   0.637520 0.673756 0.564440 -0.618807
H21   H     H_    0.605251 0.675187 0.537038 0.356114
O48   O     O_3   0.325594 0.962685 0.935327 -0.618719
H22   H     H_    0.324184 0.929108 0.962756 0.356183
O49   O     O_3   0.036303 0.362509 0.564455 -0.618779
H23   H     H_    0.070031 0.394802 0.537059 0.356133
O50   O     O_3   0.637029 0.674413 0.935322 -0.618723
H24   H     H_    0.604811 0.675843 0.962735 0.356145

loop_
_geom_bond_atom_site_label_1
_geom_bond_atom_site_label_2
_ccdc_geom_bond_type
C50   Cl19  S    
C44   Cl8   S    
C39   C51   A    
O36   H10   S    
C68   C80   A    
O33   H7    S    
C82   C94   A    
C21   C66   S    
C18   C21   T    
C33   C45   A    
O35   H9    S    
O32   H6    S    
C30   C90   A    
C35   C47   A    
C29   C89   A    
O31   H5    S    
C58   Cl17  S    
Cr2   O17   S    
C5    O3    A    
O41   H15   S    
C78   C90   A    
C15   C72   S    
C86   O33   S    
C45   C57   A    
O29   H3    S    
C31   C43   A    
C5    O17   A    
C95   O30   S    
C38   Cl2   S    
C84   O41   S    
C11   O23   A    
Cr6   O26   S    
C76   O49   S    
C60   Cl15  S    
C13   C68   S    
C39   Cl3   S    
C12   O24   A    
C60   C72   A    
C19   C62   S    
C3    O1    A    
C93   O32   S    
Cr1   O16   S    
Cr5   O26   S    
Cr5   O11   S    
Cr4   O19   S    
C84   C96   A    
C20   C61   S    
C3    C29   S    
C44   C56   A    
C3    O15   A    
C25   C37   A    
Cr3   O18   S    
C2    O14   A    
O38   H12   S    
C27   C39   A    
C28   C88   A    
Cr5   O23   S    
C14   C67   S    
C10   O8    A    
C92   O27   S    
C34   C46   A    
Cr1   O13   S    
C53   C65   A    
C76   C88   A    
C79   C91   A    
C8    O12   A    
C46   Cl10  S    
C64   C76   A    
C18   C69   S    
C96   O29   S    
C40   Cl4   S    
C11   C31   S    
Cr4   O7    S    
C55   Cl14  S    
C57   Cl18  S    
C12   C32   S    
Cr5   O20   S    
C7    C33   S    
C4    O16   A    
Cr6   O9    S    
O45   H19   S    
C16   C71   S    
C7    O19   A    
Cr3   O3    S    
C6    O18   A    
C48   C60   A    
C54   Cl21  S    
C71   C83   A    
C9    O7    A    
C66   C78   A    
Cr1   O1    S    
C49   C61   A    
C48   Cl12  S    
C82   O43   S    
C11   O9    A    
O46   H20   S    
C85   O34   S    
Cr2   O25   S    
C51   C63   A    
C89   O36   S    
C52   C64   A    
O34   H8    S    
C26   C38   A    
Cr3   O25   S    
C61   C73   A    
Cr5   O8    S    
O37   H11   S    
C88   O37   S    
O40   H14   S    
C49   Cl20  S    
Cr4   O22   S    
C78   O47   S    
C80   C92   A    
C43   Cl7   S    
O42   H16   S    
C22   C65   S    
C91   O28   S    
Cr6   O12   S    
Cr3   O15   S    
C74   O45   S    
C81   C93   A    
C36   C96   A    
Cr2   O14   S    
O30   H4    S    
C26   C86   A    
C62   C74   A    
C83   C95   A    
C25   C85   A    
C6    O4    A    
C67   C79   A    
C8    C34   S    
C74   C86   A    
C27   C87   A    
C94   O31   S    
C41   C53   A    
C37   C49   A    
C72   C84   A    
C1    O5    A    
C38   C50   A    
C41   Cl5   S    
C43   C55   A    
C15   C24   T    
Cr3   O6    S    
C59   Cl16  S    
Cr4   O10   S    
C16   C23   T    
C31   C91   A    
C53   Cl22  S    
C50   C62   A    
C79   O40   S    
C56   Cl13  S    
Cr6   O21   S    
C12   O10   A    
C1    C27   S    
C45   Cl9   S    
C73   C85   A    
C75   C87   A    
Cr1   O25   S    
C83   O42   S    
C65   C77   A    
C13   C20   T    
C29   C41   A    
Cr4   O26   S    
C77   C89   A    
C14   C19   T    
C58   C70   A    
C34   C94   A    
Cr6   O24   S    
C33   C93   A    
C51   Cl24  S    
C55   C67   A    
C6    C26   S    
C54   C66   A    
C75   O50   S    
C24   C63   S    
C87   O38   S    
C10   O22   A    
C17   C22   T    
C42   Cl6   S    
C56   C68   A    
C80   O39   S    
C7    O11   A    
O39   H13   S    
C77   O48   S    
C23   C64   S    
O44   H18   S    
C40   C52   A    
C42   C54   A    
C8    O20   A    
O43   H17   S    
C32   C92   A    
C63   C75   A    
C52   Cl23  S    
Cr2   O2    S    
C4    O2    A    
C90   O35   S    
C2    O6    A    
C9    O21   A    
C37   Cl1   S    
C36   C48   A    
O49   H23   S    
C70   C82   A    
C4    C30   S    
C69   C81   A    
Cr2   O5    S    
C47   C59   A    
O48   H22   S    
O50   H24   S    
C32   C44   A    
O47   H21   S    
C47   Cl11  S    
O28   H2    S    
C9    C35   S    
C28   C40   A    
C30   C42   A    
C2    C28   S    
C1    O13   A    
C10   C36   S    
C57   C69   A    
O27   H1    S    
C17   C70   S    
C81   O44   S    
C46   C58   A    
C59   C71   A    
C35   C95   A    
C73   O46   S    
C5    C25   S    
Cr1   O4    S    
