data_mof_unit_4995.cif
_audit_creation_date              2012-10-26T19:04:44-0400
_audit_creation_method            fapswitch 2.2
_symmetry_space_group_name_H-M    P1
_symmetry_Int_Tables_number       1
_space_group_crystal_system       triclinic
_cell_length_a                    9.641992
_cell_length_b                    10.911588
_cell_length_c                    13.37208
_cell_angle_alpha                 95.521615
_cell_angle_beta                  74.462206
_cell_angle_gamma                 90.677964
_cell_volume                      1349.02166712

loop_
_atom_site_label
_atom_site_type_symbol
_atom_type_description
_atom_site_fract_x
_atom_site_fract_y
_atom_site_fract_z
_atom_type_partial_charge
C1    C     C_R   0.500980 0.738120 0.498488 0.560203
C2    C     C_R   0.389834 0.565056 0.812627 -0.002082
C3    C     C_R   0.261823 0.880633 0.457988 0.006688
C4    C     C_R   0.425473 0.518741 0.699566 0.555574
C5    C     C_R   0.125883 0.935272 0.485112 0.016584
C6    C     C_R   0.102343 0.050151 0.542173 -0.076472
C7    C     C_R   0.219477 0.117157 0.558882 -0.085464
C8    C     C_R   0.359792 0.064771 0.525420 0.031795
C9    C     C_R   0.375013 0.937856 0.492814 0.014140
C10   C     C_R   0.499565 0.873994 0.500210 0.017604
C11   C     C_R   0.613036 0.944157 0.524499 0.247800
C12   C     C_R   0.454319 0.604071 0.979619 0.058720
C13   C     C_R   0.609793 0.071140 0.527351 -0.052733
C14   C     C_R   0.485785 0.132779 0.523972 -0.023088
C15   C     C_R   0.909244 0.291497 0.389239 0.222963
C16   C     C_R   0.494862 0.264501 0.509932 0.594719
C17   C     C_R   0.005532 0.189541 0.364359 0.217101
C18   C     C_R   0.152032 0.210541 0.351287 0.229696
C19   C     C_R   0.194945 0.331257 0.363675 0.264991
C20   C     C_R   0.098662 0.413112 0.435891 0.036691
C21   C     C_R   0.948238 0.404888 0.440858 0.076467
C22   C     C_R   0.906188 0.587538 0.556338 0.044047
C23   C     C_R   0.496418 0.583213 0.869047 -0.001229
C24   C     C_R   0.051263 0.584595 0.560530 0.325026
C25   C     C_R   0.576168 0.505132 0.301098 0.601341
C26   C     C_R   0.800544 0.498285 0.024305 0.227831
C27   C     C_R   0.619781 0.519898 0.189374 -0.020869
C28   C     C_R   0.246900 0.596069 0.865239 -0.095541
C29   C     C_R   0.210049 0.643352 0.969506 -0.018658
C30   C     C_R   0.311285 0.648809 0.027428 0.262279
C31   C     C_R   0.558206 0.576604 0.033996 0.028509
C32   C     C_R   0.702676 0.545982 0.976110 0.054436
C33   C     C_R   0.746143 0.563262 0.870834 -0.083614
C34   C     C_R   0.644528 0.585936 0.819352 -0.093066
C35   C     C_R   0.520719 0.563834 0.141291 -0.070209
C36   C     C_R   0.760003 0.489318 0.130689 -0.034434
Cl1   Cl    Cl    0.794115 0.278055 0.306663 -0.448077
Cl2   Cl    Cl    0.949684 0.042148 0.323578 -0.412534
Cl3   Cl    Cl    0.282185 0.098251 0.282759 -0.391019
Cl4   Cl    Cl    0.262019 0.382782 0.239649 -0.488520
Cl5   Cl    Cl    0.101503 0.694238 0.648662 -0.606259
Cl6   Cl    Cl    0.966390 0.430139 0.952632 -0.587172
Cl7   Cl    Cl    0.258414 0.738854 0.148775 -0.510130
Cl8   Cl    Cl    0.758822 0.882767 0.559296 -0.620946
Cu1   Cu    Cu3+1 0.359340 0.500010 0.500010 1.068760
Cu2   Cu    Cu3+1 0.640660 0.499990 0.499990 1.058152
H1    H     H_    0.837489 0.454048 0.166453 0.224611
H2    H     H_    0.163914 0.589756 0.824373 0.210872
H3    H     H_    0.101192 0.677160 0.005456 0.194527
H4    H     H_    0.684986 0.609798 0.741559 0.156656
H5    H     H_    0.039824 0.887394 0.461413 0.225995
H6    H     H_    0.995284 0.090831 0.567052 0.148366
H7    H     H_    0.198185 0.207880 0.600333 0.150075
H8    H     H_    0.276013 0.794616 0.409002 0.181611
H9    H     H_    0.703681 0.122084 0.536147 0.172525
H10   H     H_    0.835969 0.660173 0.601466 0.181917
H11   H     H_    0.858376 0.557328 0.827026 0.182301
H12   H     H_    0.413516 0.582013 0.188691 0.229230
N1    N     N_R   0.852480 0.498790 0.499000 -0.260229
N2    N     N_R   0.148360 0.498710 0.498970 -0.238910
O1    O     O_R   0.381190 0.680360 0.500010 -0.492995
O2    O     O_R   0.618760 0.680340 0.500000 -0.454594
O3    O     O_R   0.323240 0.499990 0.650990 -0.467080
O4    O     O_R   0.560820 0.499960 0.650980 -0.536161
O5    O     O_R   0.381240 0.319660 0.500000 -0.516797
O6    O     O_R   0.618810 0.319640 0.499990 -0.474735
O7    O     O_R   0.439180 0.500040 0.349020 -0.464176
O8    O     O_R   0.676760 0.500010 0.349010 -0.453008

loop_
_geom_bond_atom_site_label_1
_geom_bond_atom_site_label_2
_ccdc_geom_bond_type
Cu1   O7    S    
C2    C4    S    
C18   Cl3   S    
Cu1   N2    S    
Cu2   O8    S    
C6    C7    A    
C3    C9    A    
C33   H11   S    
Cu2   N1    S    
C20   N2    A    
C2    C28   A    
C9    C10   A    
C4    O4    A    
C19   C20   A    
C25   O7    A    
C15   C21   A    
C24   N2    A    
C23   C34   A    
C27   C35   A    
C32   C33   A    
C2    C23   A    
C33   C34   A    
C8    C9    A    
C7    C8    A    
C29   H3    S    
C13   C14   A    
C1    O2    A    
C26   C32   A    
C24   Cl5   S    
C11   C13   A    
C12   C23   A    
C29   C30   A    
C25   O8    A    
Cu2   O2    S    
C35   H12   S    
C22   C24   A    
C4    O3    A    
C28   C29   A    
C21   N1    A    
C31   C35   A    
C17   Cl2   S    
C12   C31   A    
Cu1   O5    S    
C5    C6    A    
C27   C36   A    
C3    H8    S    
C14   C16   S    
C30   Cl7   S    
C34   H4    S    
C16   O6    A    
C10   C11   A    
C7    H7    S    
C3    C5    A    
C11   Cl8   S    
C20   C21   A    
C26   Cl6   S    
C36   H1    S    
C17   C18   A    
C18   C19   A    
C19   Cl4   S    
Cu1   O1    S    
C22   N1    A    
C15   C17   A    
C25   C27   S    
C15   Cl1   S    
C22   H10   S    
C16   O5    A    
C8    C14   A    
C6    H6    S    
Cu1   Cu2   S    
C12   C30   A    
Cu1   O3    S    
C31   C32   A    
C28   H2    S    
C1    C10   S    
C26   C36   A    
Cu2   O4    S    
C5    H5    S    
C13   H9    S    
Cu2   O6    S    
C1    O1    A    
