data_mof_unit_3675.cif
_audit_creation_date              2012-12-11T16:09:01-0500
_audit_creation_method            fapswitch 2.2
_symmetry_space_group_name_H-M    P1
_symmetry_Int_Tables_number       1
_space_group_crystal_system       triclinic
_cell_length_a                    12.973706
_cell_length_b                    13.267563
_cell_length_c                    27.727459
_cell_angle_alpha                 94.928075
_cell_angle_beta                  89.994463
_cell_angle_gamma                 119.266022
_cell_volume                      4143.30620887

loop_
_atom_site_label
_atom_site_type_symbol
_atom_type_description
_atom_site_fract_x
_atom_site_fract_y
_atom_site_fract_z
_atom_type_partial_charge
C1    C     C_R   0.628061 0.895141 0.427555 0.546337
C2    C     C_R   0.158671 0.740292 0.301334 0.014285
C3    C     C_R   0.145365 0.731179 0.200716 -0.005182
C4    C     C_R   0.601042 0.221870 0.440496 0.546342
C5    C     C_R   0.139721 0.637744 0.222895 -0.128171
C6    C     C_R   0.144837 0.641669 0.273024 -0.136976
C7    C     C_R   0.133913 0.723927 0.150897 -0.166728
C8    C     C_R   0.123281 0.809023 0.128089 0.009064
C9    C     C_R   0.203169 0.944596 0.357922 -0.134378
C10   C     C_R   0.182734 0.935874 0.307926 0.005422
C11   C     C_R   0.164831 0.835058 0.279326 0.066757
C12   C     C_R   0.578612 0.259515 0.220423 -0.096889
C13   C     C_R   0.187761 0.028938 0.285760 -0.152749
C14   C     C_R   0.176232 0.022803 0.235422 -0.083329
C15   C     C_R   0.160562 0.923591 0.206160 0.021955
C16   C     C_R   0.268227 0.875906 0.425985 0.547040
C17   C     C_R   0.156551 0.829977 0.228687 0.023240
C18   C     C_R   0.144678 0.913373 0.155259 0.213811
C19   C     C_R   0.206424 0.853674 0.379037 -0.004390
C20   C     C_R   0.755076 0.933947 0.358265 -0.126083
C21   C     C_R   0.761622 0.924055 0.308376 -0.048390
C22   C     C_R   0.765397 0.914095 0.207646 0.015718
C23   C     C_R   0.567490 0.244041 0.269774 -0.103018
C24   C     C_R   0.858212 0.006839 0.236113 0.376070
C25   C     C_R   0.856984 0.010587 0.286284 -0.093437
C26   C     C_R   0.768736 0.906508 0.157655 -0.087117
C27   C     C_R   0.686590 0.805368 0.129368 -0.027167
C28   C     C_R   0.627276 0.898450 0.564835 0.547390
C29   C     C_R   0.562400 0.759284 0.352450 -0.128528
C30   C     C_R   0.569927 0.745292 0.302329 0.025768
C31   C     C_R   0.667792 0.830696 0.280096 0.044333
C32   C     C_R   0.478459 0.651586 0.273781 -0.122322
C33   C     C_R   0.484108 0.642544 0.223382 -0.116572
C34   C     C_R   0.663356 0.312649 0.302886 0.036444
C35   C     C_R   0.579673 0.728765 0.200962 0.017601
C36   C     C_R   0.670763 0.824521 0.229547 0.006774
C37   C     C_R   0.589089 0.718758 0.150730 -0.131723
C38   C     C_R   0.651932 0.857326 0.379955 0.000957
C39   C     C_R   0.739064 0.304518 0.652525 -0.133857
C40   C     C_R   0.601564 0.225317 0.578965 0.543655
C41   C     C_R   0.752358 0.324025 0.703149 -0.044733
C42   C     C_R   0.773281 0.354353 0.804933 -0.001187
C43   C     C_R   0.870570 0.369085 0.777830 0.389059
C44   C     C_R   0.859479 0.352558 0.727239 -0.093279
C45   C     C_R   0.685933 0.343323 0.203832 0.039082
C46   C     C_R   0.784430 0.377926 0.855280 -0.159072
C47   C     C_R   0.688064 0.369529 0.881376 -0.011157
C48   C     C_R   0.538351 0.273096 0.656657 -0.121681
C49   C     C_R   0.547783 0.285219 0.706693 0.016140
C50   C     C_R   0.654932 0.310576 0.730269 0.048315
C51   C     C_R   0.449581 0.267266 0.733309 -0.160682
C52   C     C_R   0.271672 0.879420 0.563428 0.546140
C53   C     C_R   0.457310 0.274635 0.783511 -0.097780
C54   C     C_R   0.564646 0.304081 0.807660 0.024259
C55   C     C_R   0.664173 0.322218 0.780980 -0.049047
C56   C     C_1   0.694647 0.366620 0.153777 -0.041213
C57   C     C_R   0.575999 0.322838 0.857950 0.367966
C58   C     C_R   0.630784 0.275821 0.629349 0.002775
C59   C     C_1   0.222142 0.862932 0.610204 -0.012377
C60   C     C_R   0.074918 0.749125 0.718342 -0.090766
C61   C     C_R   0.060207 0.739039 0.767975 -0.061797
C62   C     C_R   0.237266 0.925746 0.786015 -0.069222
C63   C     C_R   0.252067 0.935695 0.736356 -0.093848
C64   C     C_1   0.632629 0.267887 0.394474 -0.014026
C65   C     C_R   0.171199 0.847295 0.702425 0.038382
C66   C     C_R   0.141839 0.826838 0.801905 0.071815
C67   C     C_1   0.650476 0.293449 0.353408 -0.057116
C68   C     C_1   0.124809 0.814699 0.852790 -0.001101
C69   C     C_1   0.193591 0.854099 0.651655 -0.057077
C70   C     C_1   0.101045 0.797540 0.894363 0.028155
C71   C     C_1   0.648038 0.859354 0.608675 -0.008077
C72   C     C_R   0.789780 0.871301 0.720461 -0.067702
C73   C     C_R   0.803008 0.857487 0.769193 0.254338
C74   C     C_R   0.594600 0.713604 0.768170 -0.143740
C75   C     C_R   0.581849 0.727941 0.719514 -0.116735
C76   C     C_R   0.771079 0.395923 0.286299 -0.098215
C77   C     C_R   0.679125 0.807643 0.695671 -0.006753
C78   C     C_1   0.703239 0.394338 0.113047 0.005654
C79   C     C_R   0.704551 0.779304 0.793444 0.042537
C80   C     C_1   0.715015 0.768219 0.844320 0.012018
C81   C     C_1   0.663052 0.832730 0.647546 -0.050403
C82   C     C_1   0.727518 0.761209 0.886819 0.029935
C83   C     C_R   0.065144 0.772960 0.079342 0.574059
C84   C     C_R   0.716949 0.441377 0.067298 0.552618
C85   C     C_R   0.720706 0.782721 0.081151 0.549879
C86   C     C_R   0.056735 0.766346 0.941266 0.542681
C87   C     C_R   0.709920 0.432371 0.929542 0.563082
C88   C     C_R   0.782189 0.411445 0.236874 -0.095114
C89   C     C_R   0.174930 0.748718 0.351198 -0.132301
C90   C     C_R   0.749005 0.754372 0.936944 0.548938
Cl1   Cl    Cl    0.943050 0.942042 0.799245 -0.593552
Cl2   Cl    Cl    0.150850 0.029764 0.126013 -0.564184
Cr1   Cr    Cr6+3 0.416430 0.829200 0.492370 1.024133
Cr2   Cr    Cr6+3 0.674630 0.087020 0.504170 1.026594
Cr3   Cr    Cr6+3 0.408920 0.083740 0.503490 1.022284
Cr4   Cr    Cr6+3 0.914010 0.832750 0.013970 1.118062
Cr5   Cr    Cr6+3 0.922310 0.578600 0.003000 1.044764
Cr6   Cr    Cr6+3 0.656280 0.574630 0.003870 1.086107
F1    F     F_    0.950953 0.092784 0.215488 -0.634906
F2    F     F_    0.976448 0.400074 0.800177 -0.622957
F3    F     F_    0.480204 0.305589 0.883601 -0.608762
H1    H     H_    0.845996 0.448971 0.311470 0.112811
H2    H     H_    0.402585 0.585623 0.290404 0.109773
H3    H     H_    0.865186 0.477553 0.224516 0.121674
H4    H     H_    0.483244 0.698916 0.369346 0.123616
H5    H     H_    0.870315 0.411591 0.873640 0.208724
H6    H     H_    0.810523 0.306893 0.631481 0.123892
H7    H     H_    0.934909 0.363109 0.706919 0.138762
H8    H     H_    0.380104 0.260476 0.803312 0.199858
H9    H     H_    0.366291 0.245945 0.715262 0.125230
H10   H     H_    0.454160 0.251304 0.639278 0.139713
H11   H     H_    0.012537 0.679758 0.692499 0.111440
H12   H     H_    0.179887 0.096466 0.219924 0.214243
H13   H     H_    0.503196 0.207331 0.195370 0.137347
H14   H     H_    0.985628 0.662430 0.779915 0.127475
H15   H     H_    0.300494 0.994407 0.811874 0.138318
H16   H     H_    0.327662 0.011285 0.724381 0.120014
H17   H     H_    0.865080 0.933875 0.702339 0.148583
H18   H     H_    0.518171 0.652991 0.786353 0.138987
H19   H     H_    0.495554 0.679071 0.700869 0.132365
H20   H     H_    0.483939 0.178847 0.282152 0.120225
H21   H     H_    0.121913 0.645346 0.130299 0.151802
H22   H     H_    0.175050 0.677398 0.367579 0.128911
H23   H     H_    0.201780 0.107057 0.307339 0.116857
H24   H     H_    0.129906 0.561025 0.201455 0.125207
H25   H     H_    0.140931 0.568895 0.289616 0.110985
H26   H     H_    0.226065 0.025397 0.379565 0.128947
H27   H     H_    0.842753 0.975012 0.141173 0.223763
H28   H     H_    0.825423 0.008546 0.379524 0.133605
H29   H     H_    0.929074 0.082761 0.307844 0.129248
H30   H     H_    0.524903 0.641183 0.128857 0.137248
H31   H     H_    0.413542 0.568701 0.201954 0.123309
O1    O     O_R   0.296680 0.802170 0.437540 -0.521542
O2    O     O_R   0.637200 0.461990 0.052510 -0.493958
O3    O     O_R   0.664790 0.681920 0.057970 -0.498283
O4    O     O_R   0.525380 0.838530 0.443500 -0.502900
O5    O     O_R   0.815840 0.852920 0.961840 -0.476279
O6    O     O_R   0.012100 0.822630 0.963670 -0.494628
O7    O     O_R   0.037010 0.668460 0.953040 -0.500288
O8    O     O_R   0.813390 0.478970 0.949660 -0.522586
O9    O     O_R   0.632250 0.456930 0.945520 -0.432132
O10   O     O_R   0.660200 0.677230 0.958780 -0.488737
O11   O     O_3   0.830870 0.661990 0.006950 -0.300656
O12   O     O_R   0.662610 0.183990 0.557860 -0.499048
O13   O     O_R   0.702130 0.995190 0.446810 -0.519070
O14   O     O_R   0.661770 0.181390 0.458760 -0.493299
O15   O     O_R   0.499820 0.198480 0.455280 -0.509926
O16   O     O_R   0.311660 0.976250 0.449080 -0.502489
O17   O     O_R   0.297580 0.804960 0.544440 -0.506837
O18   O     O_R   0.526220 0.841130 0.542590 -0.495113
O19   O     O_R   0.703030 0.997990 0.553710 -0.507429
O20   O     O_R   0.500730 0.201280 0.562180 -0.522117
O21   O     O_R   0.312500 0.978850 0.548170 -0.496497
O22   O     O_3   0.499990 0.999990 0.500010 -0.243681
O23   O     O_R   0.820790 0.857990 0.068830 -0.490728
O24   O     O_R   0.016700 0.827330 0.062850 -0.433811
O25   O     O_R   0.041970 0.673520 0.060040 -0.528233
O26   O     O_R   0.817980 0.483660 0.048840 -0.493831

loop_
_geom_bond_atom_site_label_1
_geom_bond_atom_site_label_2
_ccdc_geom_bond_type
Cr2   O14   S    
C15   C18   A    
C66   C68   S    
C24   C25   A    
C63   C65   A    
C28   O18   A    
Cr6   O11   S    
C24   F1    S    
C1    O13   A    
C35   C36   A    
C20   H28   S    
Cr1   O4    S    
C7    C8    A    
C39   C41   A    
Cr4   O24   S    
C53   C54   A    
C39   H6    S    
C74   H18   S    
C21   C31   A    
C12   C23   A    
C84   O2    A    
C26   C27   A    
C72   C77   A    
C19   C89   A    
Cr1   O22   S    
C35   C37   A    
C3    C7    A    
Cr4   O6    S    
C30   C31   A    
C63   H16   S    
Cr4   O23   S    
C16   O1    A    
C8    C83   S    
C56   C78   T    
C40   O20   A    
C15   C17   A    
C85   O23   A    
C27   C85   S    
Cr5   O11   S    
C21   C25   A    
C46   C47   A    
Cr1   O17   S    
C61   C66   A    
C9    C19   A    
C45   C56   S    
C52   O17   A    
C49   C51   A    
C29   C38   A    
C61   H14   S    
C1    O4    A    
C9    C10   A    
C87   O8    A    
Cr5   O8    S    
Cr2   O13   S    
C13   C14   A    
Cr6   O10   S    
C29   H4    S    
Cr1   O18   S    
C2    C6    A    
C25   H29   S    
C88   H3    S    
C12   H13   S    
C44   H7    S    
C76   H1    S    
C40   C58   S    
C74   C75   A    
C62   C66   A    
C64   C67   T    
C45   C88   A    
Cr3   O15   S    
C43   F2    S    
C6    H25   S    
C23   H20   S    
Cr4   O5    S    
C13   H23   S    
C84   O26   A    
C72   C73   A    
C83   O24   A    
C89   H22   S    
Cr2   O19   S    
C4    O15   A    
Cr6   O3    S    
C8    C18   A    
C37   H30   S    
C60   C61   A    
Cr3   O21   S    
Cr5   O25   S    
C2    C89   A    
C43   C44   A    
C62   H15   S    
C62   C63   A    
C60   H11   S    
C52   C59   S    
C42   C55   A    
C47   C57   A    
C20   C38   A    
C83   O25   A    
C77   C81   S    
Cr2   O22   S    
C23   C34   A    
C4    O14   A    
C73   C79   A    
C32   H2    S    
C26   H27   S    
C87   O9    A    
C75   C77   A    
C73   Cl1   S    
C90   O10   A    
C86   O7    A    
C59   C69   T    
C1    C38   S    
C33   H31   S    
C80   C82   T    
C48   C49   A    
C85   O3    A    
C60   C65   A    
C51   H9    S    
C74   C79   A    
C40   O12   A    
Cr6   O9    S    
C42   C46   A    
C41   C44   A    
C22   C24   A    
C28   C71   S    
C42   C43   A    
C7    H21   S    
C5    H24   S    
C70   C86   S    
C41   C50   A    
C90   O5    A    
C57   F3    S    
C53   H8    S    
C9    H26   S    
C76   C88   A    
C54   C55   A    
C11   C17   A    
C14   C15   A    
Cr3   O16   S    
C12   C45   A    
C3    C5    A    
C10   C13   A    
C34   C67   S    
C48   C58   A    
C14   H12   S    
C22   C36   A    
C4    C64   S    
Cr1   O1    S    
C50   C55   A    
C82   C90   S    
C16   O16   A    
Cr3   O22   S    
C18   Cl2   S    
Cr5   O26   S    
C52   O21   A    
Cr2   O12   S    
C32   C33   A    
Cr4   O11   S    
C30   C32   A    
C39   C58   A    
C5    C6    A    
C27   C37   A    
C16   C19   S    
C65   C69   S    
C46   H5    S    
C33   C35   A    
C3    C17   A    
Cr6   O2    S    
C75   H19   S    
C10   C11   A    
C86   O6    A    
C29   C30   A    
C79   C80   S    
C78   C84   S    
C48   H10   S    
C20   C21   A    
C28   O19   A    
C68   C70   T    
C49   C50   A    
C22   C26   A    
C72   H17   S    
C31   C36   A    
C2    C11   A    
Cr3   O20   S    
C51   C53   A    
Cr5   O7    S    
C34   C76   A    
C71   C81   T    
C54   C57   A    
C47   C87   S    
