data_mof_unit_1462.cif
_audit_creation_date              2012-12-10T17:24:50-0500
_audit_creation_method            fapswitch 2.2
_symmetry_space_group_name_H-M    P1
_symmetry_Int_Tables_number       1
_space_group_crystal_system       triclinic
_cell_length_a                    18.391569
_cell_length_b                    18.702109
_cell_length_c                    18.98308
_cell_angle_alpha                 109.755514
_cell_angle_beta                  109.322077
_cell_angle_gamma                 108.117073
_cell_volume                      5099.74029693

loop_
_atom_site_label
_atom_site_type_symbol
_atom_type_description
_atom_site_fract_x
_atom_site_fract_y
_atom_site_fract_z
_atom_type_partial_charge
C1    C     C_R   0.617626 0.619469 0.497510 0.866704
C2    C     C_R   0.673036 0.751359 0.488308 0.050475
C3    C     C_3   0.039761 0.748551 0.012147 -0.746799
C4    C     C_3   0.817068 0.325510 0.730206 -0.377738
C5    C     C_3   0.786640 0.273266 0.634844 -0.912055
C6    C     C_3   0.669954 0.202726 0.739578 -0.433072
C7    C     C_3   0.711647 0.236778 0.836039 -0.884709
C8    C     C_3   0.532818 0.291488 0.542906 -0.347449
C9    C     C_3   0.576065 0.273987 0.487383 -0.783033
C10   C     C_3   0.128281 0.201336 0.192450 -0.436289
C11   C     C_3   0.195013 0.197836 0.162328 -0.863291
C12   C     C_3   0.477783 0.436573 0.696105 -0.360707
C13   C     C_R   0.815949 0.807306 0.496367 -0.191130
C14   C     C_3   0.528613 0.425593 0.770687 -0.939006
C15   C     C_3   0.405233 0.515857 0.805308 -0.437336
C16   C     C_3   0.354431 0.564305 0.787863 -0.905179
C17   C     C_3   0.264054 0.373043 0.798827 -0.397348
C18   C     C_3   0.321927 0.355442 0.862356 -0.884552
C19   C     C_3   0.098132 0.011398 0.320736 -0.384030
C20   C     C_3   0.133734 0.967758 0.266616 -0.882478
C21   C     C_3   0.310866 0.520658 0.136007 -0.413573
C22   C     C_3   0.397269 0.518183 0.156397 -0.890158
C23   C     C_3   0.647704 0.549974 0.051861 -0.385012
C24   C     C_R   0.378795 0.500396 0.379998 0.855337
C25   C     C_3   0.600286 0.470686 0.058236 -0.904668
C26   C     C_3   0.687012 0.666667 0.226820 -0.421641
C27   C     C_3   0.668594 0.740564 0.225641 -0.853766
C28   C     C_3   0.793526 0.544910 0.022866 -0.329571
C29   C     C_3   0.752781 0.451322 0.005878 -0.740376
C30   C     C_3   0.047849 0.501878 0.677098 -0.451150
C31   C     C_3   0.141642 0.566485 0.708889 -0.884827
C32   C     C_3   0.878097 0.973258 0.766756 -0.440155
C33   C     C_3   0.927211 0.924879 0.742833 -0.846758
C34   C     C_3   0.078060 0.285369 0.974604 -0.380569
C35   C     C_R   0.827929 0.735582 0.502721 -0.010641
C36   C     C_3   0.159626 0.276306 0.981710 -0.912652
C37   C     C_3   0.874474 0.565224 0.600493 -0.410493
C38   C     C_3   0.802828 0.471806 0.555423 -0.882169
C39   C     C_3   0.501707 0.830185 0.468210 -0.416282
C40   C     C_3   0.507057 0.919505 0.499679 -0.918749
C41   C     C_R   0.764819 0.681215 0.513523 0.001279
C42   C     C_R   0.685715 0.684548 0.498336 -0.152593
C43   C     C_R   0.896754 0.712692 0.499199 0.080400
C44   C     C_R   0.905003 0.646522 0.518914 0.162254
C45   C     C_R   0.853906 0.612889 0.552190 0.187871
C46   C     C_R   0.781947 0.625372 0.542767 -0.230114
C47   C     C_3   0.177505 0.428346 0.213468 -0.203346
C48   C     C_R   0.771419 0.646122 0.733296 -0.220521
C49   C     C_R   0.828462 0.728896 0.798809 -0.215800
C50   C     C_R   0.879807 0.744957 0.879958 0.235331
C51   C     C_R   0.381973 0.380997 0.503207 0.830701
C52   C     C_R   0.881997 0.673983 0.892568 0.112915
C53   C     C_R   0.821767 0.584472 0.821411 -0.012155
C54   C     C_R   0.759685 0.573560 0.745334 0.061348
C55   C     C_R   0.816905 0.504939 0.819459 -0.175245
C56   C     C_R   0.746763 0.422074 0.750700 -0.032411
C57   C     C_R   0.673979 0.414671 0.687904 -0.027563
C58   C     C_3   0.225076 0.494882 0.309921 -0.145494
C59   C     C_R   0.683956 0.491775 0.683183 -0.143615
C60   C     C_R   0.746551 0.343604 0.742843 0.183833
C61   C     C_R   0.667991 0.273888 0.718014 0.166890
C62   C     C_R   0.589674 0.270156 0.667431 0.112956
C63   C     C_R   0.614754 0.492750 0.619421 0.840505
C64   C     C_R   0.596308 0.330129 0.636546 0.063777
C65   C     C_R   0.380741 0.398466 0.667900 0.121319
C66   C     C_R   0.356050 0.423049 0.731983 0.218014
C67   C     C_R   0.283299 0.360261 0.724902 0.166477
C68   C     C_R   0.231336 0.280277 0.649910 -0.250626
C69   C     C_3   0.311852 0.501920 0.314246 -0.004993
C70   C     C_R   0.244528 0.263286 0.577744 0.022408
C71   C     C_R   0.315905 0.326539 0.584004 -0.022018
C72   C     C_R   0.186597 0.184760 0.498946 -0.158953
C73   C     C_R   0.184843 0.177659 0.421211 0.010554
C74   C     C_R   0.240850 0.251642 0.425630 0.025605
C75   C     C_3   0.327703 0.576885 0.294990 -0.178423
C76   C     C_R   0.314421 0.317799 0.505423 -0.171173
C77   C     C_R   0.125821 0.103180 0.337994 0.164426
C78   C     C_R   0.102721 0.113998 0.265537 -0.190986
C79   C     C_R   0.149689 0.191983 0.271452 0.187506
C80   C     C_R   0.593703 0.755042 0.473945 -0.252323
C81   C     C_R   0.220693 0.259243 0.350470 -0.171978
C82   C     C_R   0.996369 0.618438 0.118135 0.848782
C83   C     C_R   0.124862 0.501332 0.125525 0.843871
C84   C     C_R   0.005557 0.380546 0.884135 0.853450
C85   C     C_R   0.883018 0.503337 0.885770 0.849464
C86   C     C_R   0.003708 0.881533 0.381985 0.837533
C87   C     C_3   0.239469 0.569741 0.289150 -0.193804
C88   C     C_R   0.880614 0.876244 0.496842 0.847104
C89   C     C_R   0.998817 0.120526 0.617603 0.866379
C90   C     C_R   0.120089 0.117489 0.497706 0.847140
C91   C     C_R   0.587360 0.829496 0.480667 0.234016
C92   C     C_R   0.150950 0.731529 0.275054 -0.147036
C93   C     C_R   0.232207 0.796113 0.344836 -0.162957
C94   C     C_R   0.238473 0.869313 0.403376 -0.146270
C95   C     C_R   0.163011 0.875653 0.394620 -0.165170
C96   C     C_R   0.078680 0.808297 0.325759 0.061102
C97   C     C_R   0.073188 0.739037 0.261414 0.072970
C98   C     C_R   0.000286 0.808566 0.319102 -0.164196
C99   C     C_3   0.192886 0.503038 0.193621 -0.032100
C100  C     C_R   0.917156 0.737087 0.254540 0.010405
C101  C     C_R   0.908360 0.673480 0.181122 -0.010072
C102  C     C_R   0.660920 0.900432 0.499952 -0.149048
C103  C     C_R   0.991118 0.679074 0.185247 -0.179439
C104  C     C_R   0.843299 0.728923 0.265362 -0.241001
C105  C     C_R   0.758896 0.666264 0.203653 0.155217
C106  C     C_R   0.743814 0.608825 0.123652 0.172667
C107  C     C_R   0.817822 0.610317 0.111450 0.072522
C108  C     C_R   0.026416 0.407876 0.745657 -0.205482
C109  C     C_R   0.042906 0.422593 0.683534 0.233537
C110  C     C_R   0.051246 0.361352 0.624961 -0.158327
C111  C     C_3   0.279824 0.509941 0.199025 0.221991
C112  C     C_R   0.037690 0.284137 0.624856 -0.237604
C113  C     C_R   0.736715 0.894992 0.507993 -0.222276
C114  C     C_R   0.017597 0.266987 0.685240 0.040583
C115  C     C_R   0.018175 0.331648 0.750723 0.051749
C116  C     C_R   0.994632 0.185734 0.680176 -0.161243
C117  C     C_R   0.972952 0.167732 0.738450 0.002972
C118  C     C_R   0.994739 0.236312 0.814767 0.041412
C119  C     C_R   0.009029 0.316657 0.817421 -0.200069
C120  C     C_R   0.932545 0.082410 0.722832 -0.168873
C121  C     C_R   0.922837 0.065514 0.786101 0.200819
C122  C     C_R   0.960775 0.135073 0.868237 -0.224138
C123  C     C_3   0.265318 0.435026 0.218800 -0.173126
C124  C     C_R   0.742460 0.818116 0.497063 0.091145
C125  C     C_R   0.002356 0.220744 0.884894 0.193051
C126  C     C_3   0.957623 0.749115 0.468517 -0.339431
C127  C     C_3   0.054871 0.802742 0.539539 -0.761056
C128  C     C_3   0.964907 0.608449 0.502142 -0.417128
C129  C     C_3   0.913244 0.512348 0.435289 -0.867406
C130  C     C_3   0.500776 0.201347 0.642663 -0.411512
C131  C     C_3   0.471283 0.112015 0.570320 -0.901481
C132  C     C_3   0.925154 0.839116 0.951060 -0.429685
C133  C     C_3   0.992245 0.900531 0.939956 -0.909042
C134  C     C_3   0.941887 0.699518 0.983905 -0.388103
H1    H     H_    0.390872 0.636802 0.329134 0.114340
H2    H     H_    0.071714 0.869156 0.582987 0.282541
H3    H     H_    0.796024 0.422363 0.000506 0.272728
H4    H     H_    0.749534 0.552627 0.973107 0.153273
H5    H     H_    0.846719 0.557830 0.009670 0.188365
H6    H     H_    0.964441 0.122558 0.920721 0.133085
H7    H     H_    0.278369 0.380496 0.193281 0.150355
H8    H     H_    0.017903 0.456433 0.786994 0.168752
H9    H     H_    0.183294 0.587954 0.777332 0.263798
H10   H     H_    0.168714 0.537181 0.669972 0.262685
H11   H     H_    0.142568 0.623822 0.703031 0.246664
H12   H     H_    0.006694 0.482119 0.609061 0.209805
H13   H     H_    0.072667 0.775057 0.581626 0.208261
H14   H     H_    0.021786 0.534343 0.715237 0.207121
H15   H     H_    0.041913 0.237875 0.575843 0.167733
H16   H     H_    0.908497 0.028441 0.661192 0.136072
H17   H     H_    0.927828 0.920231 0.683339 0.275631
H18   H     H_    0.995877 0.958453 0.795348 0.260627
H19   H     H_    0.894091 0.858066 0.730955 0.244981
H20   H     H_    0.873135 0.971036 0.822819 0.196870
H21   H     H_    0.810269 0.939658 0.712543 0.218377
H22   H     H_    0.147540 0.209643 0.967105 0.267445
H23   H     H_    0.178129 0.291207 0.936291 0.269508
H24   H     H_    0.097616 0.806541 0.509641 0.241318
H25   H     H_    0.215253 0.321746 0.047302 0.249643
H26   H     H_    0.094352 0.352906 0.991921 0.206026
H27   H     H_    0.062310 0.273484 0.022607 0.197548
H28   H     H_    0.204299 0.488462 0.357078 0.135762
H29   H     H_    0.746312 0.470328 0.564664 0.272930
H30   H     H_    0.779904 0.438879 0.485638 0.265422
H31   H     H_    0.828153 0.435877 0.583802 0.246651
H32   H     H_    0.937338 0.565851 0.612236 0.206243
H33   H     H_    0.882501 0.599851 0.665265 0.212226
H34   H     H_    0.536301 0.700854 0.459353 0.141905
H35   H     H_    0.949127 0.695723 0.412334 0.179998
H36   H     H_    0.558704 0.963599 0.567836 0.261646
H37   H     H_    0.520468 0.947420 0.459382 0.258367
H38   H     H_    0.443395 0.913473 0.494792 0.251922
H39   H     H_    0.452495 0.789231 0.399047 0.197063
H40   H     H_    0.477300 0.800913 0.503315 0.210722
H41   H     H_    0.937978 0.785376 0.439942 0.199515
H42   H     H_    0.897507 0.472055 0.464785 0.264321
H43   H     H_    0.852090 0.498122 0.382155 0.263695
H44   H     H_    0.953581 0.493750 0.407908 0.243349
H45   H     H_    0.004624 0.638550 0.477716 0.224410
H46   H     H_    0.014864 0.619441 0.562612 0.188398
H47   H     H_    0.177090 0.233559 0.647567 0.167974
H48   H     H_    0.738913 0.590063 0.559642 0.168308
H49   H     H_    0.526756 0.107040 0.561775 0.266321
H50   H     H_    0.441812 0.061297 0.585096 0.245070
H51   H     H_    0.420544 0.098059 0.508540 0.253080
H52   H     H_    0.503502 0.197083 0.700398 0.203300
H53   H     H_    0.449768 0.221295 0.623302 0.206192
H54   H     H_    0.731664 0.641380 0.674169 0.170164
H55   H     H_    0.827113 0.781346 0.787097 0.162341
H56   H     H_    0.032987 0.873068 0.922005 0.264624
H57   H     H_    0.958297 0.913596 0.889697 0.267158
H58   H     H_    0.052261 0.059356 0.203018 0.136478
H59   H     H_    0.035770 0.963151 0.000663 0.252816
H60   H     H_    0.874368 0.859729 0.949756 0.196389
H61   H     H_    0.958522 0.850155 0.016782 0.217026
H62   H     H_    0.061700 0.705095 0.980103 0.270452
H63   H     H_    0.055315 0.801745 0.997430 0.237649
H64   H     H_    0.079267 0.777640 0.082598 0.244298
H65   H     H_    0.925049 0.737967 0.028485 0.162461
H66   H     H_    0.930380 0.645693 0.994704 0.191363
H67   H     H_    0.728363 0.209601 0.604565 0.254262
H68   H     H_    0.769787 0.309079 0.601478 0.265075
H69   H     H_    0.290459 0.789529 0.352945 0.139295
H70   H     H_    0.839657 0.261800 0.626592 0.269462
H71   H     H_    0.876398 0.386593 0.757187 0.195013
H72   H     H_    0.834452 0.289225 0.762297 0.226667
H73   H     H_    0.781044 0.286570 0.868990 0.295319
H74   H     H_    0.675029 0.264652 0.861995 0.248603
H75   H     H_    0.709557 0.182944 0.849333 0.241953
H76   H     H_    0.604125 0.148125 0.710283 0.232027
H77   H     H_    0.706219 0.173996 0.713981 0.208063
H78   H     H_    0.638239 0.331522 0.512195 0.264134
H79   H     H_    0.590592 0.220397 0.486511 0.237999
H80   H     H_    0.064783 0.371872 0.576911 0.146025
H81   H     H_    0.530976 0.254970 0.420742 0.237156
H82   H     H_    0.475419 0.229159 0.516624 0.209332
H83   H     H_    0.502511 0.330677 0.534642 0.219510
H84   H     H_    0.194582 0.134733 0.146055 0.260522
H85   H     H_    0.177787 0.205122 0.104294 0.249435
H86   H     H_    0.261886 0.250777 0.212941 0.266055
H87   H     H_    0.061955 0.149166 0.139396 0.199186
H88   H     H_    0.127691 0.263575 0.206914 0.200140
H89   H     H_    0.598844 0.453076 0.788425 0.259550
H90   H     H_    0.502203 0.356179 0.752000 0.264252
H91   H     H_    0.113676 0.368854 0.178204 0.141867
H92   H     H_    0.525083 0.459527 0.828845 0.252181
H93   H     H_    0.487923 0.402670 0.643629 0.182034
H94   H     H_    0.505976 0.505809 0.714258 0.233318
H95   H     H_    0.288042 0.531578 0.779196 0.264439
H96   H     H_    0.389850 0.631055 0.842660 0.253594
H97   H     H_    0.348095 0.567778 0.728985 0.265022
H98   H     H_    0.417322 0.518002 0.867382 0.211895
H99   H     H_    0.470653 0.552933 0.814293 0.214266
H100  H     H_    0.307131 0.286854 0.830661 0.268854
H101  H     H_    0.392415 0.397577 0.887324 0.255277
H102  H     H_    0.227984 0.624652 0.317703 0.133706
H103  H     H_    0.308896 0.368095 0.917248 0.251422
H104  H     H_    0.272501 0.438730 0.832465 0.218394
H105  H     H_    0.194845 0.328011 0.775060 0.216702
H106  H     H_    0.113349 0.969059 0.205348 0.252616
H107  H     H_    0.206424 0.000194 0.303333 0.267745
H108  H     H_    0.107717 0.898916 0.249184 0.260126
H109  H     H_    0.124219 0.009312 0.380803 0.187728
H110  H     H_    0.025519 0.974274 0.286008 0.223657
H111  H     H_    0.448996 0.570650 0.222277 0.262352
H112  H     H_    0.389233 0.454868 0.150973 0.260276
H113  H     H_    0.660625 0.960388 0.508051 0.149203
H114  H     H_    0.418412 0.527273 0.110229 0.252516
H115  H     H_    0.260256 0.468460 0.069769 0.213547
H116  H     H_    0.319834 0.583560 0.139594 0.220415
H117  H     H_    0.257280 0.318776 0.352972 0.153092
H118  H     H_    0.591866 0.411434 0.008639 0.257769
H119  H     H_    0.636444 0.477844 0.122174 0.260084
H120  H     H_    0.533775 0.460964 0.046634 0.246921
H121  H     H_    0.612126 0.588317 0.054265 0.195016
H122  H     H_    0.638165 0.527515 0.986270 0.202813
H123  H     H_    0.150368 0.675297 0.233039 0.151572
H124  H     H_    0.790782 0.953396 0.524982 0.165318
H125  H     H_    0.301755 0.920791 0.456674 0.133296
H126  H     H_    0.173283 0.934539 0.442684 0.161638
H127  H     H_    0.849538 0.772134 0.323999 0.166896
H128  H     H_    0.728116 0.803953 0.272855 0.279996
H129  H     H_    0.646684 0.734010 0.160766 0.246593
H130  H     H_    0.616063 0.738878 0.242673 0.251769
H131  H     H_    0.624698 0.605592 0.184522 0.230889
H132  H     H_    0.707763 0.674110 0.292104 0.207115
H133  H     H_    0.741436 0.447349 0.058611 0.245863
H134  H     H_    0.689736 0.410913 0.944799 0.218136
O1    O     O_R   0.592010 0.539900 0.448660 -0.612012
O2    O     O_R   0.948620 0.908400 0.356980 -0.627772
O3    O     O_R   0.960510 0.908410 0.552140 -0.624399
O4    O     O_R   0.591210 0.643320 0.551330 -0.626005
O5    O     O_R   0.856270 0.908390 0.447890 -0.629413
O6    O     O_R   0.051380 0.091620 0.643040 -0.612552
O7    O     O_R   0.947140 0.091600 0.538800 -0.626876
O8    O     O_R   0.143730 0.091640 0.552130 -0.625131
O9    O     O_R   0.039490 0.091610 0.447890 -0.624235
O10   O     O_R   0.408080 0.448290 0.356360 -0.629507
O11   O     O_R   0.407280 0.551710 0.459030 -0.627305
O12   O     O_R   0.054870 0.643310 0.094700 -0.624560
O13   O     O_R   0.408790 0.356680 0.448670 -0.631456
O14   O     O_R   0.407990 0.460100 0.551340 -0.624117
O15   O     O_R   0.592720 0.448290 0.540970 -0.629081
O16   O     O_R   0.591920 0.551710 0.643640 -0.630445
O17   O     O_R   0.951440 0.539900 0.094740 -0.611026
O18   O     O_R   0.044440 0.448270 0.096110 -0.620623
O19   O     O_R   0.147870 0.551680 0.096080 -0.632827
O20   O     O_R   0.952810 0.356650 0.912880 -0.636693
O21   O     O_R   0.056240 0.460060 0.912840 -0.625711
O22   O     O_R   0.859800 0.448280 0.911500 -0.639401
O23   O     O_R   0.963240 0.551690 0.911470 -0.626008
O24   O     O_R   0.052860 0.908430 0.461230 -0.639324
Zn1   Zn    Zn3+2 0.500540 0.430950 0.431450 0.923951
Zn2   Zn    Zn3+2 0.499460 0.569050 0.568550 0.923569
Zn3   Zn    Zn3+2 0.934770 0.430930 0.003810 0.889576
Zn4   Zn    Zn3+2 0.072900 0.569020 0.003770 0.902239
Zn5   Zn    Zn3+2 0.069600 0.000030 0.569620 0.906667
Zn6   Zn    Zn3+2 0.930400 0.000000 0.430410 0.920005

loop_
_geom_bond_atom_site_label_1
_geom_bond_atom_site_label_2
_ccdc_geom_bond_type
C101  C107  A    
C38   H31   S    
C22   H114  S    
C55   C56   A    
C93   C94   A    
C11   H85   S    
C15   H98   S    
C130  H53   S    
C52   C134  S    
C73   C74   A    
C62   C130  S    
C127  H24   S    
C95   C96   A    
C40   H38   S    
C39   H39   S    
C34   H27   S    
C58   C87   S    
C5    H70   S    
C112  C114  A    
O8    Zn5   S    
C63   O15   A    
C4    H71   S    
C37   H33   S    
C1    O4    A    
C77   C78   A    
C116  C117  A    
C134  H66   S    
C85   O22   A    
C36   H22   S    
C26   C27   S    
C126  C127  S    
C74   C76   A    
C105  C106  A    
C90   O9    A    
C6    C61   S    
C14   H90   S    
C28   C29   S    
C110  H80   S    
C2    C42   A    
C13   C35   A    
C84   C119  S    
C131  H51   S    
C21   H115  S    
C71   C76   A    
C25   H118  S    
C33   H19   S    
C12   H94   S    
C49   H55   S    
C106  C107  A    
C69   C123  S    
C9    H78   S    
C15   C16   S    
C48   H54   S    
C16   H95   S    
C100  C104  A    
C3    H64   S    
C47   C99   S    
O19   Zn4   S    
C43   C126  S    
C41   C42   A    
O20   Zn3   S    
C39   C91   S    
C31   H10   S    
C19   C77   S    
C82   O17   A    
C38   H29   S    
C118  C119  A    
C92   C93   A    
C62   C64   A    
C8    H83   S    
C10   H87   S    
O13   Zn1   S    
O5    Zn6   S    
C131  H49   S    
C84   O21   A    
C19   C20   S    
C126  H41   S    
C20   H107  S    
C132  C133  S    
C96   C98   A    
C24   C69   S    
C132  H61   S    
C50   C52   A    
C41   C46   A    
C129  H42   S    
C30   H12   S    
C70   C71   A    
C128  H46   S    
C118  C125  A    
C108  C109  A    
C35   C43   A    
O1    Zn1   S    
C61   C62   A    
C36   H25   S    
C18   H103  S    
C19   H109  S    
O2    Zn6   S    
C26   H131  S    
C17   H104  S    
C38   H30   S    
C66   C67   A    
C84   O20   A    
C89   C116  S    
C27   H129  S    
C101  C103  A    
C83   C99   S    
C21   C22   S    
C128  C129  S    
C132  H60   S    
C123  H7    S    
O24   Zn5   S    
C134  H65   S    
C28   H5    S    
C81   H117  S    
C39   H40   S    
C93   H69   S    
C80   C91   A    
C26   C105  S    
C108  H8    S    
C104  C105  A    
C7    H75   S    
C92   C97   A    
C92   H123  S    
C6    C7    S    
C87   C99   S    
C54   C59   A    
C53   C55   A    
C14   H92   S    
C95   H126  S    
C85   O23   A    
C82   O12   A    
C68   H47   S    
C17   C67   S    
O21   Zn4   S    
C86   O24   A    
C102  H113  S    
C30   C109  S    
C111  C123  S    
C67   C68   A    
C21   H116  S    
C14   H89   S    
C28   H4    S    
C51   C76   S    
C86   O2    A    
C72   C73   A    
C23   H121  S    
C33   H17   S    
C117  C120  A    
C39   C40   S    
C79   C81   A    
C13   C124  A    
C25   H119  S    
C18   H101  S    
C8    C9    S    
C12   H93   S    
C6    H77   S    
O10   Zn1   S    
C9    H79   S    
O9    Zn6   S    
C53   C54   A    
C23   C106  S    
C129  H43   S    
C112  H15   S    
C9    H81   S    
C87   H102  S    
C56   C60   A    
C115  C119  A    
C60   C61   A    
C55   C85   S    
C48   C54   A    
C88   O5    A    
C37   C38   S    
O12   Zn4   S    
C70   C72   A    
C32   H21   S    
C72   C90   S    
C131  H50   S    
C21   C111  S    
C88   O3    A    
C47   C123  S    
C94   H125  S    
C47   H91   S    
O16   Zn2   S    
C82   C103  S    
C99   C111  S    
C96   C97   A    
O17   Zn3   S    
O22   Zn3   S    
C130  H52   S    
C17   C18   S    
C78   H58   S    
C51   O14   A    
C128  H45   S    
C52   C53   A    
C127  H2    S    
C30   H14   S    
C2    C80   A    
C11   H84   S    
O3    Zn5   S    
C121  C122  A    
C97   C103  A    
C83   O18   A    
C50   C132  S    
C19   H110  S    
C8    C64   S    
C32   H20   S    
C36   H23   S    
C7    H73   S    
C40   H36   S    
C86   C98   S    
C12   C14   S    
C49   C50   A    
C98   C100  A    
C10   C11   S    
C43   C44   A    
C89   O6    A    
C29   H133  S    
C59   C63   S    
O6    Zn5   S    
O7    Zn6   S    
C56   C57   A    
C91   C102  A    
C37   C45   S    
C58   H28   S    
C17   H105  S    
C5    H68   S    
C83   O19   A    
C133  H56   S    
C133  H57   S    
C57   C64   A    
C22   H112  S    
C15   C66   S    
C129  H44   S    
C75   C87   S    
C29   H134  S    
C102  C113  A    
C44   C128  S    
C78   C79   A    
C120  H16   S    
C32   C121  S    
O14   Zn2   S    
C44   C45   A    
C23   H122  S    
C8    H82   S    
C33   H18   S    
O18   Zn3   S    
C22   H111  S    
C114  C116  A    
C10   C79   S    
C18   H100  S    
C58   C69   S    
C114  C115  A    
C37   H32   S    
C6    H76   S    
C24   O11   A    
C2    C124  A    
O11   Zn2   S    
C29   H3    S    
C12   C65   S    
C16   H97   S    
C75   C111  S    
C3    H62   S    
C3    C134  S    
C20   H106  S    
C32   C33   S    
C46   H48   S    
C122  C125  A    
C130  C131  S    
C13   C88   S    
C20   H108  S    
C15   H99   S    
C126  H35   S    
C65   C71   A    
C109  C110  A    
C47   C58   S    
C5    H67   S    
C27   H128  S    
C30   C31   S    
C113  C124  A    
C24   O10   A    
O15   Zn1   S    
C34   C125  S    
C48   C49   A    
C27   H130  S    
C25   H120  S    
C16   H96   S    
C100  C101  A    
C3    H63   S    
C34   C36   S    
C7    H74   S    
C69   C75   S    
C75   H1    S    
O23   Zn4   S    
C31   H9    S    
C94   C95   A    
C35   C41   A    
C63   O16   A    
C110  C112  A    
C57   C59   A    
C4    C60   S    
C10   H88   S    
C122  H6    S    
C4    H72   S    
C31   H11   S    
C45   C46   A    
C1    C42   S    
C4    C5    S    
C23   C25   S    
C1    O1    A    
C133  H59   S    
C65   C66   A    
C104  H127  S    
O4    Zn2   S    
C108  C115  A    
C68   C70   A    
C73   C77   A    
C120  C121  A    
C51   O13   A    
C90   O8    A    
C74   C81   A    
C28   C107  S    
C113  H124  S    
C117  C118  A    
C11   H86   S    
C80   H34   S    
C40   H37   S    
C89   O7    A    
C127  H13   S    
C26   H132  S    
C34   H26   S    
