data_mof_unit_4967.cif
_audit_creation_date              2012-12-10T20:08:41-0500
_audit_creation_method            fapswitch 2.2
_symmetry_space_group_name_H-M    P1
_symmetry_Int_Tables_number       1
_space_group_crystal_system       triclinic
_cell_length_a                    19.268543
_cell_length_b                    18.468359
_cell_length_c                    14.968649
_cell_angle_alpha                 90.332284
_cell_angle_beta                  90.094413
_cell_angle_gamma                 89.800841
_cell_volume                      5326.59021362

loop_
_atom_site_label
_atom_site_type_symbol
_atom_type_description
_atom_site_fract_x
_atom_site_fract_y
_atom_site_fract_z
_atom_type_partial_charge
C1    C     C_R   0.365786 0.500073 0.500267 0.985467
C2    C     C_R   0.634000 0.499861 0.500248 0.950916
C3    C     C_R   0.486598 0.367478 0.045734 -0.306069
C4    C     C_R   0.477792 0.631622 0.954179 -0.307513
C5    C     C_R   0.745501 0.536555 0.435065 0.415159
C6    C     C_R   0.252920 0.547932 0.448351 0.398326
C7    C     C_R   0.256429 0.450926 0.559470 0.398831
C8    C     C_R   0.743848 0.461287 0.569169 0.415132
C9    C     C_R   0.817657 0.536142 0.437325 -0.171958
C10   C     C_R   0.180707 0.545056 0.449233 -0.184116
C11   C     C_R   0.184206 0.451158 0.562070 -0.174431
C12   C     C_R   0.815955 0.459787 0.569052 -0.168763
C13   C     C_R   0.852285 0.497501 0.503777 0.112774
C14   C     C_R   0.147034 0.497486 0.506459 0.128025
C15   C     C_R   0.708745 0.499370 0.501568 -0.250770
C16   C     C_R   0.290671 0.499896 0.502825 -0.236361
C17   C     C_R   0.962831 0.546968 0.560749 -0.099353
C18   C     C_R   0.036487 0.445089 0.453484 -0.099690
C19   C     C_R   0.035705 0.546951 0.561413 -0.100222
C20   C     C_R   0.963604 0.445764 0.451880 -0.099822
C21   C     C_R   0.071764 0.496121 0.507638 0.058664
C22   C     C_R   0.927556 0.496773 0.505419 0.060939
C23   C     C_R   0.508031 0.726588 0.578230 0.021699
C24   C     C_R   0.477460 0.273779 0.426386 0.015881
C25   C     C_R   0.492712 0.725858 0.421632 0.042573
C26   C     C_R   0.522135 0.274142 0.573741 0.035030
C27   C     C_R   0.508197 0.802570 0.579649 -0.267590
C28   C     C_R   0.477195 0.197833 0.424801 -0.285560
C29   C     C_R   0.491865 0.801772 0.420128 -0.274991
C30   C     C_R   0.521591 0.198207 0.575502 -0.262180
C31   C     C_R   0.499616 0.841763 0.499904 0.117337
C32   C     C_R   0.499240 0.158855 0.500155 0.115286
C33   C     C_R   0.498461 0.499827 0.326394 0.894006
C34   C     C_R   0.498524 0.500149 0.673598 0.896953
C35   C     C_R   0.524085 0.962426 0.425971 -0.173122
C36   C     C_R   0.474361 0.039164 0.574105 -0.177696
C37   C     C_R   0.473966 0.963132 0.573798 -0.176850
C38   C     C_R   0.523512 0.038423 0.425849 -0.174392
C39   C     C_R   0.498977 0.077837 0.500050 0.121653
C40   C     C_R   0.499160 0.923311 0.499875 0.122925
C41   C     C_R   0.486525 0.565802 0.815459 -0.225605
C42   C     C_R   0.490508 0.433722 0.184473 -0.227913
C43   C     C_R   0.491842 0.500174 0.769280 -0.069411
C44   C     C_R   0.491707 0.499558 0.230682 -0.070632
C45   C     C_R   0.489206 0.434166 0.814180 -0.235907
C46   C     C_R   0.484967 0.565292 0.185767 -0.236241
C47   C     C_R   0.484121 0.432894 0.906481 0.008506
C48   C     C_R   0.479571 0.566210 0.093451 0.007798
C49   C     C_R   0.481045 0.499429 0.953491 0.002109
C50   C     C_R   0.480972 0.499615 0.046422 0.003689
C51   C     C_R   0.481137 0.565929 0.907551 0.067252
C52   C     C_R   0.485338 0.433253 0.092362 0.067136
C53   C     C_R   0.484458 0.366625 0.952872 0.478873
C54   C     C_R   0.475167 0.632326 0.047043 0.481099
H1    H     H_    0.487501 0.616837 0.780026 0.150455
H2    H     H_    0.494880 0.382833 0.219886 0.153574
H3    H     H_    0.545320 0.934503 0.368409 0.136896
H4    H     H_    0.454232 0.067816 0.631877 0.131545
H5    H     H_    0.452875 0.935715 0.631314 0.129705
H6    H     H_    0.543657 0.066490 0.368160 0.138402
H7    H     H_    0.492855 0.383748 0.777144 0.174065
H8    H     H_    0.485434 0.615833 0.222758 0.174833
H9    H     H_    0.490211 0.316603 0.081254 0.161600
H10   H     H_    0.477990 0.682619 0.918658 0.161062
H11   H     H_    0.846640 0.565593 0.387392 0.149386
H12   H     H_    0.150731 0.579031 0.404614 0.143545
H13   H     H_    0.157003 0.415930 0.607742 0.142632
H14   H     H_    0.843605 0.429701 0.619962 0.149483
H15   H     H_    0.514873 0.697495 0.640029 0.124216
H16   H     H_    0.459481 0.303303 0.368602 0.125528
H17   H     H_    0.487251 0.696260 0.359675 0.119805
H18   H     H_    0.540114 0.303926 0.631656 0.132897
H19   H     H_    0.516093 0.830112 0.642814 0.134887
H20   H     H_    0.458799 0.169821 0.365643 0.139041
H21   H     H_    0.483970 0.828591 0.356838 0.137931
H22   H     H_    0.539453 0.170493 0.634836 0.143364
N1    N     N_R   0.500000 0.689440 0.500000 -0.094435
N2    N     N_R   0.500000 0.310560 0.500000 -0.096305
O1    O     O_R   0.398180 0.560840 0.499980 -0.610888
O2    O     O_R   0.601820 0.439160 0.500020 -0.588882
O3    O     O_R   0.601820 0.560840 0.500020 -0.586842
O4    O     O_R   0.398180 0.439160 0.499980 -0.613079
O5    O     O_R   0.499980 0.560820 0.367840 -0.636392
O6    O     O_R   0.500020 0.439180 0.632160 -0.638018
O7    O     O_R   0.500020 0.560820 0.632160 -0.649499
O8    O     O_R   0.499980 0.439180 0.367840 -0.645022
Zn1   Zn    Zn3+2 0.500000 0.581210 0.500000 0.970225
Zn2   Zn    Zn3+2 0.500000 0.418790 0.500000 0.965921
O9    O     O_3   0.490161 0.300876 0.908553 -0.650218
C55   C     C_3   0.424227 0.279001 0.876644 0.050232
H23   H     H_    0.432613 0.248785 0.813156 0.165951
H24   H     H_    0.388818 0.325137 0.860493 0.132163
C56   C     C_3   0.389441 0.228479 0.943625 -0.344209
H25   H     H_    0.424866 0.182525 0.958803 0.233164
H26   H     H_    0.378741 0.258476 0.006688 0.217695
C57   C     C_3   0.321283 0.198845 0.906688 -0.944674
H27   H     H_    0.284710 0.243907 0.892144 0.268236
H28   H     H_    0.297158 0.162678 0.956743 0.268336
H29   H     H_    0.330761 0.167253 0.844492 0.265322
O10   O     O_3   0.475622 0.698318 0.091407 -0.649642
C58   C     C_3   0.407803 0.715625 0.121139 0.048712
H30   H     H_    0.413134 0.749991 0.181906 0.165090
H31   H     H_    0.377064 0.667265 0.141329 0.134384
C59   C     C_3   0.368466 0.758817 0.050025 -0.347365
H32   H     H_    0.399561 0.806807 0.030697 0.232657
H33   H     H_    0.360362 0.724500 0.989744 0.218827
C60   C     C_3   0.297908 0.784114 0.084520 -0.939149
H34   H     H_    0.265631 0.736860 0.103225 0.266948
H35   H     H_    0.270545 0.814804 0.031421 0.268870
H36   H     H_    0.304466 0.820073 0.143633 0.264788
O11   O     O_3   0.711067 0.575607 0.369971 -0.621141
C61   C     C_3   0.706265 0.532478 0.291985 0.065692
H37   H     H_    0.672713 0.484549 0.304521 0.137041
H38   H     H_    0.758541 0.513753 0.269527 0.143556
C62   C     C_3   0.673918 0.577487 0.217291 -0.298249
H39   H     H_    0.622121 0.597344 0.238908 0.236023
H40   H     H_    0.707160 0.625291 0.204039 0.231128
C63   C     C_3   0.666260 0.533381 0.131235 -0.944729
H41   H     H_    0.718021 0.516042 0.106355 0.263260
H42   H     H_    0.640813 0.566973 0.079241 0.276275
H43   H     H_    0.633939 0.484722 0.142927 0.273066
O12   O     O_3   0.286649 0.590616 0.386453 -0.635544
C64   C     C_3   0.279866 0.664208 0.411309 0.122792
H44   H     H_    0.307501 0.674349 0.475611 0.161021
H45   H     H_    0.224446 0.680565 0.418558 0.124368
C65   C     C_3   0.312148 0.710850 0.338585 -0.335973
H46   H     H_    0.366473 0.693152 0.327055 0.215587
H47   H     H_    0.282859 0.703285 0.275211 0.224158
C66   C     C_3   0.311241 0.790908 0.364353 -0.973916
H48   H     H_    0.256938 0.810417 0.371537 0.270918
H49   H     H_    0.337178 0.822907 0.311551 0.259272
H50   H     H_    0.339319 0.799632 0.428354 0.275843
O13   O     O_3   0.293879 0.409071 0.619104 -0.633963
C67   C     C_3   0.289481 0.335510 0.593436 0.126366
H51   H     H_    0.307303 0.327840 0.523132 0.155801
H52   H     H_    0.235318 0.315403 0.599876 0.126370
C68   C     C_3   0.336123 0.290949 0.654897 -0.328334
H53   H     H_    0.389895 0.312368 0.652358 0.232472
H54   H     H_    0.317009 0.296043 0.724634 0.217575
C69   C     C_3   0.336793 0.211148 0.628001 -0.977005
H55   H     H_    0.283848 0.188027 0.633465 0.269076
H56   H     H_    0.372118 0.180747 0.673006 0.255787
H57   H     H_    0.355503 0.204685 0.558284 0.279355
O14   O     O_3   0.707905 0.423194 0.633395 -0.625589
C70   C     C_3   0.703123 0.466296 0.711449 0.062909
H58   H     H_    0.666705 0.512299 0.699841 0.138030
H59   H     H_    0.754765 0.487978 0.732042 0.143521
C71   C     C_3   0.675480 0.419949 0.787641 -0.301366
H60   H     H_    0.624608 0.396720 0.768044 0.233244
H61   H     H_    0.712009 0.374388 0.800099 0.229750
C72   C     C_3   0.667150 0.464126 0.873553 -0.940324
H62   H     H_    0.718306 0.484727 0.896421 0.262400
H63   H     H_    0.645110 0.429434 0.926725 0.276486
H64   H     H_    0.631591 0.510669 0.862613 0.272356
C73   C     C_2   0.924264 0.598037 0.620820 0.353453
H65   H     H_    0.945983 0.613037 0.685202 0.066808
O15   O     O_2   0.869060 0.625186 0.598629 -0.561815
C74   C     C_2   0.074980 0.388912 0.400691 0.352589
H66   H     H_    0.052741 0.335530 0.391173 0.067147
O16   O     O_2   0.130706 0.401783 0.365616 -0.565422
C75   C     C_2   0.073492 0.602527 0.615690 0.353295
H67   H     H_    0.051179 0.656030 0.625170 0.066712
O17   O     O_2   0.128751 0.588944 0.652024 -0.563112
C76   C     C_2   0.925880 0.394851 0.390924 0.354772
H68   H     H_    0.948697 0.379151 0.327465 0.066853
O18   O     O_2   0.870104 0.368613 0.411403 -0.561283

loop_
_geom_bond_atom_site_label_1
_geom_bond_atom_site_label_2
_ccdc_geom_bond_type
O5    Zn1   S    
C56   H25   S    
C73   O15   D    
C18   C21   A    
C26   H18   S    
C23   H15   S    
O11   C61   S    
C69   H57   S    
C28   H20   S    
C67   C68   S    
C59   H33   S    
C70   H58   S    
C34   O7    A    
C33   O5    A    
C24   H16   S    
C64   H44   S    
C47   C49   A    
C48   C50   A    
C48   C54   A    
C68   H54   S    
C65   H46   S    
C69   H55   S    
C34   O6    A    
C46   H8    S    
C25   N1    A    
C14   C21   S    
C76   H68   S    
C19   C21   A    
C69   H56   S    
C7    O13   S    
C37   C40   A    
C36   H4    S    
C38   C39   A    
C11   C14   A    
O8    Zn2   S    
C64   H45   S    
C62   H39   S    
C20   C76   S    
C57   H29   S    
C31   C40   S    
C19   C75   S    
C32   C39   S    
C9    C13   A    
C63   H41   S    
C61   H37   S    
C70   H59   S    
O3    Zn1   S    
C41   H1    S    
C44   C46   A    
C49   C51   A    
C57   H28   S    
C50   C52   A    
C72   H62   S    
C71   C72   S    
C25   H17   S    
C23   C27   A    
C41   C43   A    
C47   C53   A    
C66   H50   S    
C42   H2    S    
C10   H12   S    
C56   H26   S    
C74   O16   D    
C60   H35   S    
C54   O10   S    
C42   C44   A    
O1    Zn1   S    
C59   H32   S    
C75   O17   D    
C11   H13   S    
C75   H67   S    
C9    H11   S    
C45   C47   A    
C25   C29   A    
C68   C69   S    
C46   C48   A    
C4    C51   A    
C27   C31   A    
C58   H30   S    
O6    Zn2   S    
C28   C32   A    
C35   C38   A    
C71   H60   S    
C10   C14   A    
C64   C65   S    
C67   H52   S    
C5    O11   S    
C65   C66   S    
C62   H40   S    
C1    O4    A    
C63   H43   S    
C7    C11   A    
C33   O8    A    
C5    C9    A    
C18   C74   S    
C30   H22   S    
C55   H24   S    
C8    C12   A    
C62   C63   S    
C57   H27   S    
C8    O14   S    
C1    C16   S    
C26   N2    A    
C23   N1    A    
C2    C15   S    
C43   C45   A    
C59   C60   S    
C37   H5    S    
C72   H64   S    
C38   H6    S    
C61   H38   S    
C24   N2    A    
C7    C16   A    
C20   C22   A    
C26   C30   A    
C8    C15   A    
C53   O9    S    
O13   C67   S    
C1    O1    A    
C60   H36   S    
C6    O12   S    
C60   H34   S    
C17   C73   S    
C70   C71   S    
C55   C56   S    
C66   H48   S    
C58   H31   S    
N2    Zn2   S    
C36   C37   A    
C65   H47   S    
C4    C54   A    
C33   C44   S    
C36   C39   A    
C34   C43   S    
C24   C28   A    
C71   H61   S    
O14   C70   S    
C6    C10   A    
C3    C52   A    
C67   H51   S    
C29   H21   S    
C3    H9    S    
C56   C57   S    
C68   H53   S    
C4    H10   S    
C17   C22   A    
C35   H3    S    
C12   H14   S    
C76   O18   D    
C35   C40   A    
O12   C64   S    
C29   C31   A    
C30   C32   A    
C3    C53   A    
C55   H23   S    
C74   H66   S    
O4    Zn2   S    
C45   H7    S    
O10   C58   S    
C17   C19   A    
C13   C22   S    
C18   C20   A    
C72   H63   S    
C63   H42   S    
C5    C15   A    
C2    O2    A    
C6    C16   A    
O7    Zn1   S    
C12   C13   A    
N1    Zn1   S    
O2    Zn2   S    
C49   C50   A    
C73   H65   S    
C2    O3    A    
C58   C59   S    
O9    C55   S    
C27   H19   S    
C41   C51   A    
C61   C62   S    
C42   C52   A    
C66   H49   S    
