data_mof_unit_4069.cif
_audit_creation_date              2012-12-10T17:34:29-0500
_audit_creation_method            fapswitch 2.2
_symmetry_space_group_name_H-M    P1
_symmetry_Int_Tables_number       1
_space_group_crystal_system       triclinic
_cell_length_a                    12.406199
_cell_length_b                    13.122409
_cell_length_c                    14.306716
_cell_angle_alpha                 78.399048
_cell_angle_beta                  100.535924
_cell_angle_gamma                 117.287914
_cell_volume                      2016.61433432

loop_
_atom_site_label
_atom_site_type_symbol
_atom_type_description
_atom_site_fract_x
_atom_site_fract_y
_atom_site_fract_z
_atom_type_partial_charge
C1    C     C_R   0.854122 0.285783 0.509549 0.756061
C2    C     C_1   0.995711 0.496536 0.229018 -0.155002
C3    C     C_R   0.295667 0.987364 0.309960 0.090874
C4    C     C_R   0.228305 0.833358 0.446064 -0.150941
C5    C     C_R   0.801441 0.084998 0.587089 -0.233420
C6    C     C_R   0.722231 0.968488 0.602315 -0.091454
C7    C     C_R   0.605648 0.924789 0.552200 -0.005462
C8    C     C_R   0.565910 0.002709 0.487765 0.005680
C9    C     C_R   0.654311 0.117053 0.462321 0.047441
C10   C     C_R   0.442848 0.971128 0.446269 0.040076
C11   C     C_R   0.415408 0.037007 0.361228 0.015286
C12   C     C_R   0.999578 0.499457 0.668521 0.813775
C13   C     C_R   0.509803 0.147913 0.331878 -0.038600
C14   C     C_R   0.626134 0.184822 0.381908 -0.185196
C15   C     C_R   0.346117 0.879106 0.491673 -0.274472
C16   C     C_R   0.202290 0.886167 0.354409 -0.002056
C17   C     C_R   0.769877 0.160731 0.517295 -0.085348
C18   C     C_R   0.371479 0.372094 0.675427 0.107701
C19   C     C_R   0.729407 0.581707 0.352800 0.009827
C20   C     C_R   0.609808 0.534722 0.310301 -0.090828
C21   C     C_R   0.516797 0.479911 0.370323 -0.191752
C22   C     C_R   0.542158 0.495263 0.467193 -0.050254
C23   C     C_R   0.145464 0.713729 0.482656 0.810464
C24   C     C_R   0.665014 0.532520 0.508223 0.283501
C25   C     C_R   0.448604 0.469350 0.524621 -0.102916
C26   C     C_R   0.472629 0.443242 0.623714 0.114938
C27   C     C_R   0.595910 0.491772 0.666163 -0.093805
C28   C     C_R   0.691752 0.548314 0.605919 -0.127188
C29   C     C_R   0.337912 0.480366 0.489846 0.268805
C30   C     C_R   0.258193 0.374289 0.638166 0.100233
C31   C     C_R   0.998756 0.498680 0.331560 0.820459
C32   C     C_1   0.998473 0.498440 0.770958 -0.166714
C33   C     C_1   0.997141 0.497575 0.856438 0.011473
C34   C     C_1   0.995662 0.496660 0.957134 0.027432
C35   C     C_1   0.994819 0.496105 0.042649 0.035380
C36   C     C_1   0.994631 0.495924 0.143415 0.026637
Cu1   Cu    Cu3+1 0.098280 0.475420 0.520190 0.951956
Cu2   Cu    Cu3+1 0.901720 0.524580 0.479810 0.973672
H1    H     H_    0.802411 0.622234 0.307162 0.142231
H2    H     H_    0.425586 0.425535 0.342438 0.182586
H3    H     H_    0.361852 0.839170 0.563412 0.167175
H4    H     H_    0.888432 0.115162 0.629884 0.146128
H5    H     H_    0.753753 0.911660 0.652532 0.189736
H6    H     H_    0.695668 0.268478 0.356215 0.187399
N1    N     N_R   0.246290 0.438200 0.550780 -0.229091
N2    N     N_R   0.754310 0.561180 0.449760 -0.167849
O1    O     O_R   0.972510 0.318130 0.525390 -0.596821
O2    O     O_R   0.806530 0.359650 0.491290 -0.575798
O3    O     O_R   0.083010 0.479240 0.641000 -0.531320
O4    O     O_R   0.917030 0.520750 0.606900 -0.565787
O5    O     O_R   0.193470 0.640350 0.508710 -0.587224
O6    O     O_R   0.027490 0.681870 0.474610 -0.537295
O7    O     O_R   0.082970 0.479250 0.393100 -0.562001
O8    O     O_R   0.916990 0.520760 0.359000 -0.567812
C37   C     C_2   0.078230 0.831244 0.303679 0.351075
H7    H     H_    0.002294 0.833960 0.328761 0.091941
O9    O     O_2   0.059664 0.779016 0.236372 -0.576607
C38   C     C_2   0.624680 0.503423 0.769895 0.377798
H8    H     H_    0.701986 0.491357 0.810194 0.043256
O10   O     O_2   0.565505 0.531590 0.809941 -0.475230
C39   C     C_3   0.379531 0.281017 0.758814 -0.358572
C40   C     C_3   0.431830 0.207219 0.730975 -0.874199
H9    H     H_    0.426199 0.136249 0.790128 0.260584
H10   H     H_    0.378873 0.168428 0.665257 0.258647
H11   H     H_    0.529032 0.259531 0.718103 0.252535
H12   H     H_    0.433761 0.320620 0.823394 0.256582
H13   H     H_    0.288733 0.219054 0.781806 0.220694
C41   C     C_3   0.341126 0.568187 0.399864 -0.336168
C42   C     C_3   0.280893 0.518655 0.305216 -0.776297
H14   H     H_    0.349591 0.536826 0.257032 0.265844
H15   H     H_    0.220248 0.424374 0.316969 0.252455
H16   H     H_    0.229281 0.566052 0.264277 0.242895
H17   H     H_    0.301943 0.624041 0.409765 0.233124
H18   H     H_    0.436732 0.631964 0.389368 0.171294
C43   C     C_2   0.585145 0.538893 0.204844 0.438406
H19   H     H_    0.660316 0.582011 0.160601 0.087195
O11   O     O_2   0.481264 0.494053 0.165991 -0.531379
C44   C     C_2   0.809036 0.643295 0.639477 0.468263
H20   H     H_    0.839395 0.646806 0.715256 0.032104
O12   O     O_2   0.871917 0.721491 0.582339 -0.530458
C45   C     C_2   0.489689 0.237221 0.259936 0.357021
H21   H     H_    0.409457 0.250480 0.257573 0.110297
O13   O     O_2   0.564189 0.297878 0.202990 -0.528809
C46   C     C_3   0.269220 0.027785 0.204062 -0.386335
C47   C     C_3   0.186190 0.088714 0.188743 -0.799482
H22   H     H_    0.089043 0.024493 0.187821 0.253113
H23   H     H_    0.206571 0.142276 0.246354 0.233473
H24   H     H_    0.198418 0.145105 0.118549 0.266793
H25   H     H_    0.352835 0.081994 0.168098 0.208561
H26   H     H_    0.225535 0.952819 0.163213 0.249071
C48   C     C_2   0.536905 0.797001 0.557822 0.343871
H27   H     H_    0.467514 0.758849 0.501011 0.066254
O14   O     O_2   0.558263 0.733018 0.625297 -0.516012
C49   C     C_2   0.155402 0.312998 0.697336 0.408610
H28   H     H_    0.067937 0.254163 0.667603 0.064646
O15   O     O_2   0.168434 0.328317 0.780918 -0.537372

loop_
_geom_bond_atom_site_label_1
_geom_bond_atom_site_label_2
_ccdc_geom_bond_type
C8    C9    A    
C5    H4    S    
C30   N1    A    
C35   C36   S    
C18   C26   A    
C37   H7    S    
C12   O3    A    
C19   N2    A    
C7    C8    A    
C47   H22   S    
C26   C27   A    
Cu1   Cu2   S    
C10   C15   A    
C5    C6    A    
Cu1   O5    S    
C44   O12   D    
C5    C17   A    
C38   O10   D    
C13   C45   S    
C34   C35   T    
C42   H15   S    
C40   H10   S    
C39   H12   S    
C19   C20   A    
C41   C42   S    
C22   C25   A    
C18   C30   A    
Cu1   O1    S    
C28   C44   S    
Cu2   O2    S    
Cu1   O7    S    
C21   C22   A    
C12   C32   S    
C39   C40   S    
C46   H26   S    
C45   O13   D    
C45   H21   S    
C47   H23   S    
C25   C29   A    
C46   C47   S    
C15   H3    S    
C48   H27   S    
C9    C14   A    
C44   H20   S    
C1    O1    A    
C25   C26   A    
C20   C43   S    
C29   N1    A    
C2    C31   S    
C4    C16   A    
C42   H16   S    
C43   H19   S    
C40   H9    S    
C48   O14   D    
C29   C41   S    
Cu1   O3    S    
C39   H13   S    
C23   O5    A    
Cu2   O8    S    
C7    C48   S    
C33   C34   S    
C18   C39   S    
C31   O7    A    
C49   O15   D    
C43   O11   D    
C19   H1    S    
C9    C17   A    
C6    H5    S    
C37   O9    D    
C22   C24   A    
C38   H8    S    
C46   H25   S    
Cu1   N1    S    
C3    C46   S    
C14   H6    S    
C47   H24   S    
C2    C36   T    
C4    C23   S    
C40   H11   S    
C24   C28   A    
C27   C38   S    
C12   O4    A    
C1    O2    A    
C6    C7    A    
Cu2   O4    S    
C1    C17   S    
C24   N2    A    
C32   C33   T    
C4    C15   A    
C41   H17   S    
C16   C37   S    
C30   C49   S    
C11   C13   A    
C23   O6    A    
C21   H2    S    
C31   O8    A    
C49   H28   S    
C42   H14   S    
Cu2   N2    S    
C3    C11   A    
C10   C11   A    
Cu2   O6    S    
C20   C21   A    
C8    C10   A    
C27   C28   A    
C13   C14   A    
C41   H18   S    
C3    C16   A    
