data_mof_unit_4671.cif
_audit_creation_date              2012-12-10T17:16:48-0500
_audit_creation_method            fapswitch 2.2
_symmetry_space_group_name_H-M    P1
_symmetry_Int_Tables_number       1
_space_group_crystal_system       triclinic
_cell_length_a                    23.615675
_cell_length_b                    12.983379
_cell_length_c                    11.725833
_cell_angle_alpha                 99.039995
_cell_angle_beta                  92.970457
_cell_angle_gamma                 91.502692
_cell_volume                      3543.69120885

loop_
_atom_site_label
_atom_site_type_symbol
_atom_type_description
_atom_site_fract_x
_atom_site_fract_y
_atom_site_fract_z
_atom_type_partial_charge
C1    C     C_R   0.500104 0.299401 0.479132 0.809261
C2    C     C_R   0.501775 0.700659 0.520840 0.819209
C3    C     C_R   0.242687 0.592965 0.448539 -0.135420
C4    C     C_R   0.757347 0.460700 0.389742 -0.141618
C5    C     C_R   0.301710 0.586091 0.449593 -0.066155
C6    C     C_R   0.698242 0.455817 0.393196 -0.052234
C7    C     C_R   0.328682 0.505809 0.499371 -0.119139
C8    C     C_R   0.671925 0.502882 0.494393 -0.126597
C9    C     C_R   0.294695 0.430541 0.542964 -0.055645
C10   C     C_R   0.706997 0.553961 0.589970 -0.053121
C11   C     C_R   0.236073 0.443829 0.546934 -0.139775
C12   C     C_R   0.766063 0.550023 0.586532 -0.139122
C13   C     C_R   0.209662 0.522377 0.497242 0.307648
C14   C     C_R   0.791515 0.505750 0.486385 0.309462
C15   C     C_R   0.504730 0.813968 0.532918 -0.045503
C16   C     C_R   0.502083 0.186281 0.467153 -0.050141
C17   C     C_R   0.500504 0.017212 0.345588 -0.230462
C18   C     C_R   0.509711 0.983192 0.654525 -0.223396
C19   C     C_R   0.498513 0.125063 0.356905 -0.232239
C20   C     C_R   0.507834 0.875102 0.643235 -0.220791
C21   C     C_R   0.507367 0.138848 0.566126 -0.235036
C22   C     C_R   0.504364 0.861624 0.433991 -0.233928
C23   C     C_R   0.391112 0.499795 0.500390 0.804720
C24   C     C_R   0.609082 0.501139 0.498701 0.789720
C25   C     C_R   0.507480 0.030878 0.555616 0.167030
C26   C     C_R   0.504517 0.969624 0.444479 0.162601
C27   C     C_R   0.449758 0.395491 0.026324 -0.343219
C28   C     C_R   0.548612 0.607858 0.974599 -0.348009
C29   C     C_R   0.453804 0.406881 0.146967 0.060478
C30   C     C_R   0.543738 0.596801 0.853561 0.071740
C31   C     C_R   0.521743 0.546531 0.155884 0.140607
C32   C     C_R   0.479790 0.452188 0.845190 0.120695
C33   C     C_R   0.517768 0.539845 0.033451 0.014661
C34   C     C_R   0.481999 0.461921 0.967783 0.022507
C35   C     C_R   0.881798 0.602959 0.510223 0.543594
C36   C     C_R   0.118570 0.434948 0.437657 0.541345
C37   C     C_R   0.880090 0.418562 0.449490 0.530763
C38   C     C_R   0.121421 0.612944 0.528800 0.533162
C39   C     C_R   0.939694 0.420088 0.441144 -0.058386
C40   C     C_R   0.061335 0.614967 0.521480 -0.058762
C41   C     C_R   0.970384 0.515971 0.477470 -0.022119
C42   C     C_R   0.030382 0.520514 0.478684 -0.022092
C43   C     C_R   0.941197 0.607461 0.513049 -0.018760
C44   C     C_R   0.059330 0.430217 0.437159 -0.017358
C45   C     C_R   0.969914 0.329995 0.399182 -0.043915
C46   C     C_R   0.030899 0.706514 0.556444 -0.043397
C47   C     C_R   0.028853 0.336514 0.396325 -0.201533
C48   C     C_R   0.971653 0.701871 0.550533 -0.199282
Cu1   Cu    Cu3+1 0.504210 0.507730 0.615930 0.956316
Cu2   Cu    Cu3+1 0.495790 0.492270 0.384070 0.954152
H1    H     H_    0.566331 0.650516 0.809710 0.159280
H2    H     H_    0.428747 0.355718 0.190570 0.125923
H3    H     H_    0.421176 0.334847 0.979931 0.150158
H4    H     H_    0.576041 0.670236 0.021184 0.151082
H5    H     H_    0.051085 0.266872 0.363609 0.190861
H6    H     H_    0.949263 0.772759 0.577276 0.191987
H7    H     H_    0.222112 0.651675 0.406316 0.164651
H8    H     H_    0.777115 0.427901 0.311380 0.160114
H9    H     H_    0.209591 0.387338 0.580316 0.156437
H10   H     H_    0.792732 0.587015 0.660444 0.163241
H11   H     H_    0.502402 0.814901 0.348643 0.164110
H12   H     H_    0.510718 0.185518 0.651474 0.162036
H13   H     H_    0.508679 0.839554 0.720888 0.159564
H14   H     H_    0.493740 0.160347 0.279397 0.156114
H15   H     H_    0.497877 0.971105 0.259895 0.133148
H16   H     H_    0.511965 0.029302 0.740227 0.136847
N1    N     N_R   0.852466 0.509228 0.481734 -0.456126
N2    N     N_R   0.148554 0.523921 0.487112 -0.455522
N3    N     N_R   0.510550 0.519360 0.790130 -0.205034
N4    N     N_R   0.489450 0.480640 0.209870 -0.195461
O1    O     O_R   0.502990 0.354470 0.582000 -0.578595
O2    O     O_R   0.497010 0.645530 0.418000 -0.576016
O3    O     O_R   0.495870 0.341410 0.386200 -0.600051
O4    O     O_R   0.504130 0.658590 0.613800 -0.601032
O5    O     O_R   0.421440 0.506500 0.597920 -0.565099
O6    O     O_R   0.578560 0.493500 0.402080 -0.563851
O7    O     O_R   0.414320 0.493440 0.402120 -0.593872
O8    O     O_R   0.585680 0.506560 0.597880 -0.579256
O9    O     O_2   0.853500 0.691960 0.535343 -0.538781
O10   O     O_2   0.146145 0.350833 0.388860 -0.543899
O11   O     O_2   0.849881 0.327340 0.428084 -0.532182
O12   O     O_2   0.152611 0.697958 0.579232 -0.538117
C49   C     C_1   0.942578 0.229594 0.355375 0.349317
N5    N     N_1   0.920923 0.149055 0.320164 -0.234778
C50   C     C_1   0.058211 0.807612 0.596561 0.349904
N6    N     N_1   0.079853 0.888747 0.628676 -0.242444
C51   C     C_1   0.446589 0.367726 0.778475 0.268842
N7    N     N_1   0.420436 0.297816 0.726938 -0.304615
C52   C     C_1   0.561674 0.620597 0.223861 0.271788
N8    N     N_1   0.594083 0.679978 0.277309 -0.322388
C53   C     C_R   0.333043 0.660352 0.390442 0.104551
C54   C     C_R   0.348960 0.629392 0.276650 -0.071258
C55   C     C_R   0.374845 0.701407 0.217210 -0.133160
C56   C     C_R   0.383578 0.805236 0.269814 -0.125174
C57   C     C_R   0.367280 0.836778 0.382568 -0.119842
C58   C     C_R   0.342197 0.764611 0.443043 -0.153539
H17   H     H_    0.340996 0.549715 0.233934 0.129321
H18   H     H_    0.387517 0.676985 0.129945 0.130773
H19   H     H_    0.403089 0.861220 0.223334 0.121475
H20   H     H_    0.374273 0.917122 0.423079 0.130198
H21   H     H_    0.329274 0.790095 0.529968 0.140962
C59   C     C_R   0.666008 0.401536 0.288148 0.142285
C60   C     C_R   0.666764 0.442893 0.184418 -0.145858
C61   C     C_R   0.636510 0.392024 0.084924 -0.140921
C62   C     C_R   0.605753 0.299195 0.088016 -0.105558
C63   C     C_R   0.605598 0.256655 0.190364 -0.121436
C64   C     C_R   0.635549 0.307532 0.290335 -0.079523
H22   H     H_    0.690232 0.515068 0.181082 0.133197
H23   H     H_    0.636725 0.424813 0.005565 0.139551
H24   H     H_    0.582232 0.260030 0.010997 0.123904
H25   H     H_    0.582497 0.183951 0.191947 0.122507
H26   H     H_    0.634990 0.273975 0.369227 0.114376
C65   C     C_R   0.315620 0.327876 0.564681 0.132803
C66   C     C_R   0.346060 0.266025 0.480849 -0.115797
C67   C     C_R   0.357699 0.162801 0.491666 -0.124206
C68   C     C_R   0.338950 0.119886 0.585628 -0.080633
C69   C     C_R   0.308317 0.180018 0.668931 -0.093680
C70   C     C_R   0.296743 0.283422 0.658837 -0.123908
H27   H     H_    0.358854 0.295935 0.404632 0.112089
H28   H     H_    0.380480 0.115501 0.426085 0.132786
H29   H     H_    0.348008 0.040043 0.593879 0.118501
H30   H     H_    0.293606 0.146616 0.741489 0.130377
H31   H     H_    0.272521 0.328460 0.723843 0.119976
C71   C     C_R   0.685021 0.625203 0.687823 0.142852
C72   C     C_R   0.658232 0.716485 0.667213 -0.098788
C73   C     C_R   0.645887 0.792871 0.759769 -0.158835
C74   C     C_R   0.659772 0.778397 0.873402 -0.139599
C75   C     C_R   0.685552 0.687039 0.894686 -0.141100
C76   C     C_R   0.698361 0.610825 0.802354 -0.150357
H32   H     H_    0.648702 0.730050 0.579534 0.129435
H33   H     H_    0.626002 0.863659 0.743403 0.146178
H34   H     H_    0.650150 0.837536 0.944935 0.136637
H35   H     H_    0.696044 0.675678 0.982707 0.138931
H36   H     H_    0.719776 0.541751 0.819865 0.128697

loop_
_geom_bond_atom_site_label_1
_geom_bond_atom_site_label_2
_ccdc_geom_bond_type
C27   H3    S    
C51   N7    T    
C16   C21   A    
C27   C29   A    
C41   C42   A    
C57   C58   A    
C62   H24   S    
C75   C76   A    
C66   C67   A    
C39   C41   A    
C50   N6    T    
C68   C69   A    
C40   C46   A    
C73   C74   A    
C17   C26   A    
C73   H33   S    
C15   C22   A    
C30   H1    S    
C29   N4    A    
C10   C71   S    
C61   H23   S    
C2    O2    A    
C63   C64   A    
C67   C68   A    
Cu1   O8    S    
C48   H6    S    
C64   H26   S    
Cu2   O2    S    
C74   H34   S    
C17   C19   A    
C53   C58   A    
C72   H32   S    
C31   N4    A    
C31   C52   S    
C14   N1    S    
Cu1   O5    S    
C60   H22   S    
C35   C43   A    
C43   C48   A    
C66   H27   S    
C3    C13   A    
C44   C47   A    
C39   C45   A    
C46   C50   S    
C40   C42   A    
Cu1   N3    S    
C58   H21   S    
C38   O12   S    
C41   C43   A    
C37   O11   S    
C45   C49   S    
C18   C25   A    
C42   C44   A    
C11   H9    S    
C61   C62   A    
C54   H17   S    
C63   H25   S    
C45   C47   A    
C27   C34   A    
C15   C20   A    
C46   C48   A    
C68   H29   S    
C59   C60   A    
C4    C6    A    
C36   O10   S    
Cu2   O3    S    
C23   O5    A    
C53   C54   A    
C5    C7    A    
C28   H4    S    
C57   H20   S    
C24   O6    A    
C6    C8    A    
C25   C26   A    
C32   C51   S    
C65   C70   A    
C32   C34   A    
C69   H30   S    
Cu2   O6    S    
C49   N5    T    
C35   N1    A    
C19   H14   S    
C31   C33   A    
C33   C34   A    
C59   C64   A    
C1    C16   S    
C1    O1    A    
C23   O7    A    
C2    C15   S    
C9    C11   A    
C21   H12   S    
C5    C53   S    
C10   C12   A    
C3    H7    S    
C24   O8    A    
C38   N2    A    
C28   C33   A    
C67   H28   S    
Cu1   O1    S    
C72   C73   A    
C36   C44   A    
C74   C75   A    
Cu2   O7    S    
C30   N3    A    
C47   H5    S    
C65   C66   A    
C62   C63   A    
C7    C9    A    
C21   C25   A    
C12   C14   A    
C3    C5    A    
C2    O4    A    
C36   N2    A    
C32   N3    A    
C18   H16   S    
C55   C56   A    
C17   H15   S    
C1    O3    A    
C20   H13   S    
C28   C30   A    
Cu2   N4    S    
C9    C65   S    
C37   C39   A    
C69   C70   A    
C22   H11   S    
C38   C40   A    
C11   C13   A    
C56   H19   S    
C16   C19   A    
C7    C23   S    
C37   N1    A    
C35   O9    S    
C54   C55   A    
C8    C24   S    
C71   C76   A    
C18   C20   A    
C70   H31   S    
C6    C59   S    
C4    C14   A    
C56   C57   A    
C76   H36   S    
C12   H10   S    
C8    C10   A    
Cu1   Cu2   S    
C22   C26   A    
C4    H8    S    
C60   C61   A    
Cu1   O4    S    
C52   N8    T    
C75   H35   S    
C55   H18   S    
C13   N2    S    
C71   C72   A    
C29   H2    S    
