data_mof_unit_2935.cif
_audit_creation_date              2012-12-10T20:41:51-0500
_audit_creation_method            fapswitch 2.2
_symmetry_space_group_name_H-M    P1
_symmetry_Int_Tables_number       1
_space_group_crystal_system       triclinic
_cell_length_a                    14.956748
_cell_length_b                    15.494509
_cell_length_c                    9.919844
_cell_angle_alpha                 90.582267
_cell_angle_beta                  91.5749
_cell_angle_gamma                 89.827494
_cell_volume                      2297.90306388

loop_
_atom_site_label
_atom_site_type_symbol
_atom_type_description
_atom_site_fract_x
_atom_site_fract_y
_atom_site_fract_z
_atom_type_partial_charge
C1    C     C_R   0.384711 0.875868 0.497647 0.907688
C2    C     C_R   0.384115 0.123492 0.499110 0.919590
C3    C     C_R   0.884712 0.375867 0.497648 0.907682
C4    C     C_R   0.884115 0.623492 0.499109 0.919583
C5    C     C_3   0.355889 0.284388 0.713164 -0.002172
C6    C     C_3   0.311284 0.776165 0.748827 0.017260
C7    C     C_3   0.855930 0.784433 0.713102 -0.002202
C8    C     C_3   0.811288 0.276155 0.748829 0.017254
C9    C     C_R   0.431059 0.036389 0.068205 0.220152
C10   C     C_R   0.931054 0.536379 0.068205 0.220153
C11   C     C_R   0.575082 0.978811 0.073054 0.247064
C12   C     C_R   0.075084 0.478818 0.073055 0.247064
C13   C     C_R   0.572899 0.974400 0.929871 -0.108027
C14   C     C_R   0.072901 0.474407 0.929872 -0.108032
C15   C     C_R   0.432355 0.038833 0.926807 0.213969
C16   C     C_R   0.932350 0.538826 0.926807 0.213959
C17   C     C_3   0.334928 0.021035 0.913590 -0.472226
C18   C     C_3   0.834926 0.521014 0.913590 -0.472219
C19   C     C_3   0.333747 0.015124 0.066346 -0.453054
C20   C     C_3   0.833746 0.515098 0.066345 -0.453049
C21   C     C_R   0.617974 0.122014 0.500749 0.960775
C22   C     C_R   0.616250 0.876873 0.500240 0.943120
C23   C     C_R   0.117972 0.622015 0.500750 0.960784
C24   C     C_R   0.116249 0.376872 0.500239 0.943120
C25   C     C_R   0.297584 0.231295 0.618601 -0.021316
C26   C     C_R   0.313990 0.752610 0.604797 0.025523
C27   C     C_R   0.797609 0.731321 0.618591 -0.021298
C28   C     C_R   0.813994 0.252605 0.604799 0.025534
C29   C     C_R   0.321710 0.193456 0.496746 -0.134169
C30   C     C_R   0.330097 0.799464 0.490044 -0.209118
C31   C     C_R   0.821712 0.693459 0.496742 -0.134166
C32   C     C_R   0.830103 0.299459 0.490046 -0.209120
C33   C     C_R   0.276460 0.215999 0.375912 0.127980
C34   C     C_R   0.287330 0.772651 0.368751 0.147444
C35   C     C_R   0.776444 0.715984 0.375914 0.127994
C36   C     C_R   0.787342 0.272641 0.368751 0.147439
C37   C     C_R   0.695738 0.759423 0.383060 0.143120
C38   C     C_R   0.708197 0.225940 0.375313 0.163879
C39   C     C_R   0.195752 0.259436 0.383047 0.143144
C40   C     C_R   0.208185 0.725950 0.375318 0.163885
C41   C     C_R   0.678810 0.807069 0.501122 -0.149567
C42   C     C_R   0.687571 0.185320 0.498553 -0.214153
C43   C     C_R   0.178805 0.307065 0.501118 -0.149578
C44   C     C_R   0.187565 0.685326 0.498555 -0.214154
C45   C     C_R   0.732067 0.793690 0.616571 -0.014646
C46   C     C_R   0.748244 0.191846 0.607811 0.051677
C47   C     C_R   0.232043 0.293664 0.616581 -0.014636
C48   C     C_R   0.248239 0.691852 0.607814 0.051687
C49   C     C_3   0.786981 0.856671 0.698586 0.012662
C50   C     C_3   0.736695 0.209276 0.755795 0.002728
C51   C     C_3   0.286948 0.356632 0.698644 0.012665
C52   C     C_3   0.236686 0.709292 0.755796 0.002724
H1    H     H_    0.291191 0.065225 0.112492 0.236586
H2    H     H_    0.319780 0.949636 0.101895 0.237778
H3    H     H_    0.791181 0.565190 0.112495 0.236586
H4    H     H_    0.819791 0.449606 0.101888 0.237777
H5    H     H_    0.755601 0.873471 0.795534 0.143634
H6    H     H_    0.670567 0.238531 0.776878 0.154443
H7    H     H_    0.255552 0.373420 0.795586 0.143623
H8    H     H_    0.170559 0.738554 0.776871 0.154431
H9    H     H_    0.356570 0.256106 0.815858 0.150009
H10   H     H_    0.284646 0.842032 0.762437 0.113389
H11   H     H_    0.856636 0.756170 0.815806 0.150030
H12   H     H_    0.784643 0.342019 0.762439 0.113383
H13   H     H_    0.631179 0.952989 0.877111 0.170492
H14   H     H_    0.131184 0.453002 0.877112 0.170492
H15   H     H_    0.297033 0.077388 0.873138 0.218265
H16   H     H_    0.320641 0.959350 0.861824 0.218460
H17   H     H_    0.797022 0.577362 0.873141 0.218279
H18   H     H_    0.820649 0.459328 0.861819 0.218461
N1    N     N_R   0.499140 1.000000 0.142800 -0.134382
N2    N     N_R   0.999140 0.500000 0.142800 -0.134383
N3    N     N_R   0.499160 1.000000 0.857150 -0.123922
N4    N     N_R   0.999160 0.500000 0.857150 -0.123923
O1    O     O_R   0.408400 0.908380 0.614690 -0.619706
O2    O     O_R   0.408400 0.091620 0.614690 -0.619539
O3    O     O_R   0.908400 0.408380 0.614690 -0.619704
O4    O     O_R   0.908400 0.591620 0.614690 -0.619545
O5    O     O_R   0.408370 0.908370 0.385350 -0.598989
O6    O     O_R   0.408370 0.091630 0.385350 -0.602839
O7    O     O_R   0.908370 0.408370 0.385350 -0.598994
O8    O     O_R   0.908370 0.591630 0.385350 -0.602830
O9    O     O_R   0.591610 0.091610 0.614650 -0.605186
O10   O     O_R   0.591610 0.908390 0.614650 -0.620270
O11   O     O_R   0.091610 0.591610 0.614650 -0.605187
O12   O     O_R   0.091610 0.408390 0.614650 -0.620264
O13   O     O_R   0.591590 0.091600 0.385310 -0.581694
O14   O     O_R   0.591590 0.908400 0.385310 -0.582786
O15   O     O_R   0.091590 0.591600 0.385310 -0.581695
O16   O     O_R   0.091590 0.408400 0.385310 -0.582790
Zn1   Zn    Zn3+2 0.500010 1.000000 0.653130 0.992931
Zn2   Zn    Zn3+2 0.000010 0.500000 0.653130 0.992930
Zn3   Zn    Zn3+2 0.499980 0.000000 0.346870 1.041508
Zn4   Zn    Zn3+2 0.999980 0.500000 0.346870 1.041507
I1    I     I_    0.347465 0.234114 0.194819 -0.262916
I2    I     I_    0.349245 0.778633 0.179187 -0.207042
I3    I     I_    0.847429 0.734089 0.194799 -0.262921
I4    I     I_    0.849275 0.278607 0.179199 -0.207020
I5    I     I_    0.602646 0.743389 0.217922 -0.209363
I6    I     I_    0.616628 0.236056 0.204527 -0.204601
I7    I     I_    0.102678 0.243406 0.217884 -0.209396
I8    I     I_    0.116605 0.736070 0.204546 -0.204588
I9    I     I_    0.825228 0.966078 0.578160 -0.192049
I10   I     I_    0.766790 0.100711 0.878504 -0.197519
I11   I     I_    0.325225 0.466054 0.578263 -0.192054
I12   I     I_    0.266770 0.600738 0.878531 -0.197489
I13   I     I_    0.490860 0.307504 0.649909 -0.291277
I14   I     I_    0.443352 0.752343 0.834227 -0.187853
I15   I     I_    0.990882 0.807541 0.649766 -0.291304
I16   I     I_    0.943357 0.252342 0.834225 -0.187871
I17   I     I_    0.703870 0.966872 0.166348 -0.161751
I18   I     I_    0.203872 0.466888 0.166356 -0.161754

loop_
_geom_bond_atom_site_label_1
_geom_bond_atom_site_label_2
_ccdc_geom_bond_type
C18   H18   S    
C21   O13   A    
O3    Zn2   S    
C50   I10   S    
O8    Zn4   S    
C37   I5    S    
C20   H4    S    
C7    C49   S    
C49   H5    S    
C13   H13   S    
C28   C46   A    
C33   C39   A    
C2    C29   S    
C16   N4    A    
C32   C36   A    
C35   C37   A    
C34   I2    S    
C38   C42   A    
C11   N1    A    
C22   C41   S    
C29   C33   A    
C7    C27   S    
C42   C46   A    
N4    Zn2   S    
O15   Zn4   S    
C14   N4    A    
C52   H8    S    
C9    C19   S    
C21   O9    A    
C10   C20   S    
C3    O7    A    
C23   O15   A    
O16   Zn4   S    
O10   Zn1   S    
C22   O14   A    
C25   C47   A    
C40   C44   A    
O1    Zn1   S    
N2    Zn4   S    
C27   C45   A    
C18   H17   S    
C12   N2    A    
C52   I12   S    
C20   H3    S    
C33   I1    S    
O11   Zn2   S    
C39   I7    S    
C25   C29   A    
C17   H15   S    
C30   C34   A    
C11   I17   S    
C1    O1    A    
C28   C32   A    
N3    Zn1   S    
C38   I6    S    
C10   C16   A    
C39   C43   A    
O4    Zn2   S    
C27   C31   A    
C23   C44   S    
C7    I15   S    
C50   H6    S    
C4    O4    A    
C8    I16   S    
C45   C49   S    
C51   I11   S    
C14   H14   S    
C5    H9    S    
C7    H11   S    
C8    H12   S    
C5    C25   S    
C19   H2    S    
C15   N3    A    
C13   N3    A    
C26   C30   A    
C1    O5    A    
C31   C35   A    
C51   H7    S    
C3    O3    A    
C8    C50   S    
C12   I18   S    
C2    O2    A    
C5    I13   S    
C15   C17   S    
O14   Zn3   S    
C17   H16   S    
C41   C45   A    
C5    C51   S    
C9    N1    A    
C12   C14   A    
C24   O16   A    
C49   I9    S    
C47   C51   S    
O5    Zn3   S    
N1    Zn3   S    
C26   C48   A    
O9    Zn1   S    
C46   C50   S    
C6    H10   S    
C36   C38   A    
C9    C15   A    
O12   Zn2   S    
O7    Zn4   S    
C11   C13   A    
C19   H1    S    
C6    C26   S    
C24   O12   A    
C8    C28   S    
O13   Zn3   S    
C1    C30   S    
C17   C19   S    
C18   C20   S    
C37   C41   A    
C3    C32   S    
C4    C31   S    
C2    O6    A    
O2    Zn1   S    
C40   I8    S    
C21   C42   S    
C48   C52   S    
C4    O8    A    
C16   C18   S    
C23   O11   A    
C24   C43   S    
C6    I14   S    
C34   C40   A    
C36   I4    S    
C6    C52   S    
O6    Zn3   S    
C35   I3    S    
C43   C47   A    
C44   C48   A    
C22   O10   A    
C10   N2    A    
