data_mof_unit_4058.cif
_audit_creation_date              2012-12-11T16:05:03-0500
_audit_creation_method            fapswitch 2.2
_symmetry_space_group_name_H-M    P1
_symmetry_Int_Tables_number       1
_space_group_crystal_system       triclinic
_cell_length_a                    10.561262
_cell_length_b                    10.635021
_cell_length_c                    16.920072
_cell_angle_alpha                 98.289798
_cell_angle_beta                  98.466578
_cell_angle_gamma                 61.724586
_cell_volume                      1649.39442004

loop_
_atom_site_label
_atom_site_type_symbol
_atom_type_description
_atom_site_fract_x
_atom_site_fract_y
_atom_site_fract_z
_atom_type_partial_charge
C1    C     C_R   0.379552 0.715242 0.386109 0.558277
C2    C     C_3   0.691694 0.417842 0.255016 -0.119858
C3    C     C_3   0.815132 0.348645 0.320375 0.066397
C4    C     C_3   0.876136 0.206312 0.268592 -0.090820
C5    C     C_3   0.970993 0.257052 0.234700 -0.081072
C6    C     C_3   0.908253 0.399811 0.287568 -0.115229
C7    C     C_3   0.785922 0.468969 0.221331 -0.122646
C8    C     C_3   0.847992 0.326899 0.169366 0.045878
C9    C     C_3   0.414931 0.731142 0.188432 -0.130725
C10   C     C_3   0.302682 0.721150 0.233146 -0.163593
C11   C     C_3   0.361900 0.774863 0.311301 0.055301
C12   C     C_R   0.369981 0.346871 0.358854 0.526768
C13   C     C_3   0.475355 0.784453 0.268068 -0.165332
C14   C     C_3   0.366264 0.942578 0.252810 -0.148492
C15   C     C_3   0.256497 0.929333 0.296562 0.281674
C16   C     C_3   0.193902 0.877803 0.219356 -0.075727
C17   C     C_3   0.305983 0.887515 0.175706 0.027461
C18   C     C_3   0.486323 0.279661 0.793524 -0.148648
C19   C     C_3   0.433330 0.423667 0.757103 -0.170225
C20   C     C_3   0.374415 0.363653 0.680791 0.001284
C21   C     C_3   0.427500 0.219589 0.716665 -0.099218
C22   C     C_3   0.280139 0.284518 0.750122 0.297695
C23   C     C_R   0.777074 0.376805 0.401688 0.533230
C24   C     C_3   0.224911 0.427148 0.713480 -0.098984
C25   C     C_3   0.284531 0.485326 0.791317 -0.159858
C26   C     C_3   0.338897 0.341893 0.826547 0.067264
C27   C     C_1   0.772292 0.365426 0.715094 -0.048501
C28   C     C_1   0.816205 0.328678 0.781883 -0.034326
C29   C     C_1   0.356521 0.767737 0.714284 -0.055362
C30   C     C_1   0.325767 0.813699 0.781827 -0.040896
C31   C     C_R   0.889157 0.311413 0.089730 0.528896
C32   C     C_R   0.319438 0.299310 0.120297 0.523217
C33   C     C_R   0.262481 0.949182 0.099892 0.544735
C34   C     C_R   0.378844 0.717032 0.631990 0.517672
C35   C     C_R   0.879643 0.301978 0.862006 0.567454
C36   C     C_R   0.315339 0.301390 0.899212 0.574457
C37   C     C_R   0.282435 0.880686 0.859573 0.572021
C38   C     C_R   0.406164 0.375343 0.601602 0.535965
C39   C     C_R   0.720534 0.408834 0.635660 0.517858
C40   C     C_1   0.343205 0.336587 0.275135 -0.069756
C41   C     C_1   0.331984 0.326059 0.203926 -0.058502
C42   C     C_3   0.754540 0.275359 0.201662 -0.145727
Cr1   Cr    Cr6+3 0.608340 0.611040 0.520430 0.996571
Cr2   Cr    Cr6+3 0.287650 0.601120 0.489350 0.999546
Cr3   Cr    Cr6+3 0.604040 0.287870 0.490280 0.989667
Cr4   Cr    Cr6+3 0.054020 0.052700 0.970850 1.023217
Cr5   Cr    Cr6+3 0.059230 0.375120 0.993390 1.038680
Cr6   Cr    Cr6+3 0.374950 0.061200 0.992340 1.036855
H1    H     H_    0.576636 0.480147 0.266794 0.106601
H2    H     H_    0.390438 0.034495 0.258998 0.110812
H3    H     H_    0.077637 0.917919 0.198734 0.122076
H4    H     H_    0.496223 0.482994 0.759004 0.094610
H5    H     H_    0.592211 0.222199 0.828298 0.128452
H6    H     H_    0.483096 0.111321 0.684955 0.129011
H7    H     H_    0.118876 0.484245 0.678797 0.134300
H8    H     H_    0.228522 0.592286 0.824273 0.135149
H9    H     H_    0.690780 0.226426 0.164527 0.129085
H10   H     H_    0.908839 0.100718 0.290274 0.154487
H11   H     H_    0.086234 0.193282 0.223199 0.114969
H12   H     H_    0.972345 0.448682 0.324420 0.120245
H13   H     H_    0.749566 0.574805 0.198820 0.123965
H14   H     H_    0.277008 0.630134 0.226194 0.117865
H15   H     H_    0.479276 0.651561 0.141372 0.128988
H16   H     H_    0.590079 0.746503 0.291478 0.131013
O1    O     O_R   0.751220 0.499230 0.435170 -0.521826
O2    O     O_R   0.297880 0.469080 0.560050 -0.509060
O3    O     O_R   0.489720 0.254590 0.564810 -0.521007
O4    O     O_R   0.725220 0.304230 0.585080 -0.512033
O5    O     O_3   0.500010 0.500010 0.500020 -0.307065
O6    O     O_R   0.171830 0.913880 0.057510 -0.520681
O7    O     O_R   0.940690 0.186050 0.054730 -0.523814
O8    O     O_R   0.920470 0.405720 0.075010 -0.519615
O9    O     O_R   0.196690 0.370460 0.084120 -0.505786
O10   O     O_R   0.412990 0.180750 0.091610 -0.531029
O11   O     O_R   0.366620 0.943130 0.065760 -0.499576
O12   O     O_R   0.477220 0.727600 0.436870 -0.514578
O13   O     O_R   0.160510 0.906330 0.879210 -0.509882
O14   O     O_R   0.930190 0.179050 0.889450 -0.495151
O15   O     O_R   0.909140 0.398170 0.896710 -0.493685
O16   O     O_R   0.186190 0.363460 0.918830 -0.469304
O17   O     O_R   0.401670 0.173200 0.913310 -0.503091
O18   O     O_R   0.356120 0.936130 0.900470 -0.471768
O19   O     O_3   0.162740 0.163010 0.985530 -0.260722
O20   O     O_R   0.258650 0.745120 0.411470 -0.490648
O21   O     O_R   0.297070 0.467240 0.395960 -0.510188
O22   O     O_R   0.488830 0.252610 0.387790 -0.510065
O23   O     O_R   0.724400 0.302390 0.420980 -0.505059
O24   O     O_R   0.752100 0.501210 0.612190 -0.504345
O25   O     O_R   0.478040 0.729440 0.600970 -0.506814
O26   O     O_R   0.259530 0.747110 0.588490 -0.515426
O27   O     O_3   0.163800 0.031137 0.351348 -0.590120
C43   C     C_3   0.235778 0.090004 0.409290 0.024969
H17   H     H_    0.188389 0.206259 0.401921 0.139205
H18   H     H_    0.354424 0.042196 0.405381 0.129561
C44   C     C_3   0.212301 0.071319 0.492623 -0.238233
H19   H     H_    0.279691 0.958090 0.505878 0.216427
H20   H     H_    0.249565 0.137719 0.536485 0.103003
C45   C     C_3   0.054195 0.114356 0.501475 -0.350312
H21   H     H_    0.004009 0.072246 0.449475 0.211464
H22   H     H_    0.046686 0.068837 0.554419 0.126286
H23   H     H_    0.992008 0.232675 0.509344 0.153865
O28   O     O_3   0.198273 0.215722 0.760402 -0.543945
C46   C     C_3   0.161144 0.159906 0.686403 -0.120982
H24   H     H_    0.259032 0.070869 0.661204 0.125149
H25   H     H_    0.099686 0.246203 0.645295 0.124423
H26   H     H_    0.089836 0.114423 0.695886 0.155285

loop_
_geom_bond_atom_site_label_1
_geom_bond_atom_site_label_2
_ccdc_geom_bond_type
C18   C21   S    
C39   O4    A    
Cr2   O2    S    
C19   C20   S    
C1    C11   S    
C25   H8    S    
Cr5   O15   S    
C3    C6    S    
C44   C45   S    
C7    C8    S    
C14   H2    S    
C24   H7    S    
Cr1   O25   S    
C12   O21   A    
Cr1   O24   S    
Cr5   O16   S    
Cr3   O23   S    
C8    C42   S    
C32   O10   A    
C5    C6    S    
C15   C16   S    
Cr6   O17   S    
C18   C19   S    
C9    C13   S    
C7    H13   S    
C46   H24   S    
C18   H5    S    
C3    C23   S    
C19   H4    S    
C33   O11   A    
C2    C7    S    
C28   C35   S    
C27   C39   S    
C16   C17   S    
C18   C26   S    
Cr3   O3    S    
C32   C41   S    
C16   H3    S    
Cr5   O19   S    
C9    C10   S    
C11   C15   S    
C31   O7    A    
Cr1   O5    S    
C23   O23   A    
C21   C22   S    
C8    C31   S    
Cr6   O11   S    
C10   H14   S    
C17   C33   S    
C39   O24   A    
C42   H9    S    
C5    H11   S    
Cr3   O5    S    
Cr6   O10   S    
C24   C25   S    
Cr5   O9    S    
C36   O16   A    
C32   O9    A    
Cr4   O14   S    
C25   C26   S    
C37   O13   A    
C29   C34   S    
C43   C44   S    
C30   C37   S    
C1    O20   A    
C12   C40   S    
C34   O26   A    
C29   C30   T    
C2    H1    S    
C6    H12   S    
C5    C8    S    
C20   C38   S    
C36   O17   A    
Cr1   O1    S    
Cr3   O4    S    
C43   H18   S    
Cr2   O5    S    
C46   H25   S    
C20   C21   S    
Cr4   O7    S    
C33   O6    A    
C9    C17   S    
C31   O8    A    
C45   H22   S    
C22   C24   S    
C37   O18   A    
Cr2   O21   S    
O27   C43   S    
Cr2   O26   S    
C26   C36   S    
Cr1   O12   S    
C38   O2    A    
C40   C41   T    
C9    H15   S    
C1    O12   A    
C4    C5    S    
Cr2   O20   S    
Cr4   O13   S    
C44   H20   S    
C6    C7    S    
C45   H23   S    
C35   O14   A    
C22   O28   S    
Cr6   O19   S    
C12   O22   A    
C23   O1    A    
C2    C3    S    
C34   O25   A    
C10   C16   S    
C11   C13   S    
C21   H6    S    
C13   H16   S    
C4    C42   S    
C2    C42   S    
C35   O15   A    
C43   H17   S    
Cr6   O18   S    
Cr3   O22   S    
C46   H26   S    
O28   C46   S    
C19   C25   S    
Cr5   O8    S    
Cr4   O6    S    
C10   C11   S    
C15   O27   S    
Cr4   O19   S    
C38   O3    A    
C45   H21   S    
C22   C26   S    
C4    H10   S    
C44   H19   S    
C14   C15   S    
C13   C14   S    
C20   C24   S    
C3    C4    S    
C27   C28   T    
C14   C17   S    
