data_mof_unit_2937.cif
_audit_creation_date              2012-12-10T17:04:18-0500
_audit_creation_method            fapswitch 2.2
_symmetry_space_group_name_H-M    P1
_symmetry_Int_Tables_number       1
_space_group_crystal_system       triclinic
_cell_length_a                    18.411612
_cell_length_b                    18.756984
_cell_length_c                    18.841277
_cell_angle_alpha                 109.159486
_cell_angle_beta                  109.093749
_cell_angle_gamma                 108.339886
_cell_volume                      5118.11280605

loop_
_atom_site_label
_atom_site_type_symbol
_atom_type_description
_atom_site_fract_x
_atom_site_fract_y
_atom_site_fract_z
_atom_type_partial_charge
C1    C     C_R   0.608574 0.618088 0.489887 0.798481
C2    C     C_R   0.682439 0.772892 0.517766 0.004682
C3    C     C_2   0.560929 0.296849 0.537143 0.894390
C4    C     C_3   0.196545 0.111836 0.190426 -0.834805
C5    C     C_2   0.451160 0.450602 0.695192 0.882651
C6    C     C_3   0.385970 0.476755 0.818260 -0.800175
C7    C     C_3   0.193378 0.398819 0.749545 -0.834496
C8    C     C_3   0.083420 0.273880 0.567440 -0.797110
C9    C     C_3   0.202336 0.026045 0.418288 -0.827075
C10   C     C_3   0.161139 0.976107 0.237537 -0.804994
C11   C     C_3   0.335020 0.631128 0.218882 -0.798392
C12   C     C_3   0.239303 0.284708 0.314459 -0.819323
C13   C     C_R   0.814284 0.811315 0.500580 -0.141973
C14   C     C_3   0.694304 0.601188 0.980699 -0.828928
C15   C     C_3   0.309474 0.884660 0.505424 -0.850522
C16   C     C_3   0.801380 0.756971 0.282476 -0.758903
C17   C     C_3   0.709704 0.752286 0.116142 -0.844398
C18   C     C_2   0.797182 0.528433 0.065446 0.937624
C19   C     C_3   0.262919 0.297847 0.011973 -0.869092
C20   C     C_3   0.796801 0.093135 0.522168 -0.800623
C21   C     C_2   0.005120 0.044927 0.757866 0.824340
C22   C     C_3   0.193112 0.409947 0.969144 -0.843964
C23   C     C_2   0.533115 0.743286 0.505491 0.904906
C24   C     C_R   0.379371 0.499777 0.381379 0.808064
C25   C     C_2   0.606248 0.925782 0.626146 0.890510
C26   C     C_R   0.789136 0.722982 0.455082 -0.037953
C27   C     C_R   0.702916 0.662918 0.425807 0.045623
C28   C     C_R   0.660236 0.684586 0.473285 -0.172027
C29   C     C_R   0.844147 0.691180 0.433947 0.112097
C30   C     C_R   0.805703 0.609479 0.362440 0.172014
C31   C     C_R   0.714932 0.559291 0.318145 -0.187631
C32   C     C_R   0.662839 0.584491 0.349197 0.173563
C33   C     C_3   0.206024 0.425096 0.184073 -0.192499
C34   C     C_R   0.789284 0.619607 0.694381 -0.176731
C35   C     C_R   0.870774 0.691680 0.739632 0.216645
C36   C     C_R   0.929104 0.711085 0.822028 0.122319
C37   C     C_R   0.382162 0.382144 0.502335 0.793354
C38   C     C_R   0.905229 0.653518 0.854251 -0.015443
C39   C     C_R   0.830457 0.569967 0.798261 -0.030229
C40   C     C_R   0.767620 0.559887 0.723796 0.005521
C41   C     C_R   0.815473 0.496448 0.812109 -0.183941
C42   C     C_R   0.734943 0.417154 0.753345 0.054360
C43   C     C_R   0.667757 0.415477 0.687989 0.021811
C44   C     C_3   0.212028 0.441393 0.272426 -0.204813
C45   C     C_R   0.683746 0.489783 0.678388 -0.105026
C46   C     C_R   0.716232 0.337590 0.755319 0.173315
C47   C     C_R   0.629863 0.277637 0.721713 -0.182317
C48   C     C_R   0.563460 0.278633 0.660859 -0.025058
C49   C     C_R   0.614254 0.493661 0.617637 0.812421
C50   C     C_R   0.587720 0.336761 0.630478 -0.128983
C51   C     C_R   0.356447 0.402159 0.662688 -0.014723
C52   C     C_R   0.324658 0.417094 0.722972 0.115995
C53   C     C_R   0.233893 0.373739 0.693292 0.213060
C54   C     C_R   0.180174 0.303355 0.610006 0.094829
C55   C     C_3   0.310664 0.501299 0.315394 -0.007719
C56   C     C_R   0.219153 0.273761 0.561654 0.007169
C57   C     C_R   0.298660 0.333141 0.576518 -0.019237
C58   C     C_R   0.184444 0.187310 0.500524 -0.101040
C59   C     C_R   0.211996 0.168492 0.437922 0.001769
C60   C     C_R   0.255650 0.236296 0.427317 -0.009942
C61   C     C_3   0.295494 0.579486 0.325686 -0.152904
C62   C     C_R   0.312287 0.317655 0.502856 -0.125588
C63   C     C_R   0.194985 0.085943 0.383240 0.121792
C64   C     C_R   0.189608 0.066829 0.301932 0.173604
C65   C     C_R   0.208830 0.133181 0.279983 0.182810
C66   C     C_R   0.626834 0.801766 0.543115 -0.053673
C67   C     C_R   0.240462 0.218503 0.342707 0.175878
C68   C     C_R   0.995997 0.616679 0.115903 0.785087
C69   C     C_R   0.123038 0.501648 0.124775 0.761572
C70   C     C_R   0.008860 0.382220 0.887993 0.784686
C71   C     C_R   0.883747 0.500318 0.883955 0.768870
C72   C     C_R   0.999789 0.878637 0.382828 0.776393
C73   C     C_3   0.196620 0.519120 0.280858 -0.031227
C74   C     C_R   0.881582 0.877218 0.497045 0.781292
C75   C     C_R   0.988848 0.109341 0.617345 0.768219
C76   C     C_R   0.118465 0.119077 0.500179 0.848363
C77   C     C_R   0.658654 0.890373 0.596326 -0.052263
C78   C     C_R   0.142300 0.712008 0.279991 -0.166721
C79   C     C_R   0.219149 0.762930 0.356775 -0.078421
C80   C     C_R   0.225170 0.829049 0.422835 0.218300
C81   C     C_R   0.152951 0.843139 0.411452 -0.179436
C82   C     C_R   0.072147 0.791977 0.332970 0.024194
C83   C     C_R   0.068932 0.726850 0.265737 0.080187
C84   C     C_R   0.996221 0.804530 0.318123 -0.180989
C85   C     C_3   0.190716 0.502933 0.193695 -0.061768
C86   C     C_R   0.916597 0.746966 0.238295 0.021929
C87   C     C_R   0.914410 0.681192 0.172762 -0.069726
C88   C     C_R   0.741032 0.949089 0.617880 -0.151863
C89   C     C_R   0.993031 0.676654 0.185415 -0.123638
C90   C     C_R   0.836862 0.751213 0.220497 0.157589
C91   C     C_R   0.775749 0.720166 0.135299 0.205237
C92   C     C_R   0.770392 0.650733 0.071087 0.144710
C93   C     C_R   0.832428 0.622201 0.095743 -0.162381
C94   C     C_R   0.938497 0.354648 0.712756 -0.227851
C95   C     C_R   0.880757 0.329920 0.629555 -0.164726
C96   C     C_R   0.840249 0.245271 0.566817 -0.123564
C97   C     C_3   0.289076 0.562124 0.237400 0.189157
C98   C     C_R   0.861840 0.185714 0.585082 0.192713
C99   C     C_R   0.789669 0.922477 0.583903 -0.118148
C100  C     C_R   0.932531 0.214137 0.666667 0.076836
C101  C     C_R   0.960763 0.295958 0.733450 0.032807
C102  C     C_R   0.976130 0.166122 0.685045 -0.221021
C103  C     C_R   0.029970 0.191468 0.772952 -0.017046
C104  C     C_R   0.060257 0.275172 0.837273 -0.001458
C105  C     C_R   0.013178 0.319363 0.819219 -0.125352
C106  C     C_R   0.059279 0.138244 0.799342 0.023180
C107  C     C_R   0.133737 0.174315 0.877176 -0.220524
C108  C     C_R   0.178116 0.262087 0.932544 0.220386
C109  C     C_3   0.305652 0.484840 0.227931 -0.146859
C110  C     C_R   0.761885 0.835537 0.533357 0.062153
C111  C     C_R   0.140993 0.313753 0.914122 0.143049
C112  C     C_2   0.134662 0.536315 0.310459 0.814942
C113  C     C_3   0.941450 0.737542 0.492209 -0.799925
C114  C     C_3   0.859939 0.576829 0.330288 -0.780028
C115  C     C_3   0.565202 0.533013 0.291960 -0.798304
C116  C     C_2   0.473399 0.208976 0.620042 0.850858
C117  C     C_3   0.890739 0.749262 0.700718 -0.850055
C118  C     C_3   0.014302 0.794372 0.877731 -0.790850
C119  C     C_2   0.943721 0.690850 0.948591 0.854555
C120  C     C_3   0.778697 0.301585 0.767976 -0.717032
Cu1   Cu    Cu3+1 0.500490 0.438210 0.438660 1.001177
Cu2   Cu    Cu3+1 0.499510 0.561790 0.561340 1.041922
Cu3   Cu    Cu3+1 0.942070 0.438200 0.003850 1.050676
Cu4   Cu    Cu3+1 0.065670 0.561760 0.003800 0.984866
Cu5   Cu    Cu3+1 0.062280 0.000030 0.562300 0.990170
Cu6   Cu    Cu3+1 0.937720 1.000000 0.437720 0.932198
H1    H     H_    0.766088 0.017092 0.657428 0.178157
H2    H     H_    0.965072 0.420067 0.760937 0.164604
H3    H     H_    0.863262 0.375300 0.614956 0.169788
H4    H     H_    0.788673 0.225017 0.504530 0.161458
H5    H     H_    0.156668 0.133072 0.895250 0.165463
H6    H     H_    0.167448 0.361736 0.125430 0.155203
H7    H     H_    0.177014 0.393338 0.287188 0.152399
H8    H     H_    0.684369 0.499452 0.259678 0.164313
H9    H     H_    0.010152 0.497897 0.287152 0.340786
H10   H     H_    0.975725 0.769656 0.464266 0.246215
H11   H     H_    0.959073 0.783477 0.557465 0.246138
H12   H     H_    0.851283 0.971239 0.599620 0.134232
H13   H     H_    0.964902 0.692017 0.501702 0.230709
H14   H     H_    0.818523 0.514905 0.269921 0.258434
H15   H     H_    0.900462 0.623907 0.317622 0.250529
H16   H     H_    0.902794 0.566150 0.378213 0.227169
H17   H     H_    0.529658 0.563801 0.316234 0.237908
H18   H     H_    0.548880 0.527277 0.227457 0.208964
H19   H     H_    0.541556 0.467617 0.285021 0.244164
H20   H     H_    0.394495 0.083749 0.573476 0.329157
H21   H     H_    0.900335 0.813306 0.741195 0.251970
H22   H     H_    0.950272 0.755688 0.694871 0.230985
H23   H     H_    0.743456 0.608627 0.633505 0.147842
H24   H     H_    0.836992 0.723397 0.635518 0.229402
H25   H     H_    0.028108 0.832338 0.845160 0.231666
H26   H     H_    0.013460 0.835751 0.934906 0.238428
H27   H     H_    0.069457 0.780209 0.898371 0.251159
H28   H     H_    0.923513 0.726751 0.049672 0.327211
H29   H     H_    0.842144 0.346331 0.780625 0.217115
H30   H     H_    0.785262 0.285491 0.820667 0.258159
H31   H     H_    0.754065 0.242060 0.708485 0.217656
H32   H     H_    0.431029 0.247759 0.494899 0.320442
H33   H     H_    0.233897 0.078098 0.175901 0.242431
H34   H     H_    0.329230 0.643138 0.382922 0.176119
H35   H     H_    0.126330 0.070067 0.142873 0.232376
H36   H     H_    0.219622 0.168417 0.181195 0.233595
H37   H     H_    0.560010 0.565260 0.768784 0.336898
H38   H     H_    0.366462 0.446819 0.855511 0.225512
H39   H     H_    0.454304 0.489375 0.838005 0.240645
H40   H     H_    0.384257 0.538592 0.837218 0.244672
H41   H     H_    0.240288 0.455752 0.813074 0.231305
H42   H     H_    0.142994 0.414961 0.718690 0.237254
H43   H     H_    0.162569 0.344508 0.759719 0.241111
H44   H     H_    0.053507 0.244735 0.599456 0.242741
H45   H     H_    0.615667 0.223275 0.733548 0.190032
H46   H     H_    0.072094 0.329682 0.572686 0.225803
H47   H     H_    0.050298 0.229910 0.497888 0.246941
H48   H     H_    0.232844 0.058118 0.489057 0.250036
H49   H     H_    0.136668 0.973232 0.389039 0.217998
H50   H     H_    0.245279 0.000777 0.402583 0.244310
H51   H     H_    0.104868 0.955372 0.176082 0.236005
H52   H     H_    0.215974 0.973553 0.226215 0.242893
H53   H     H_    0.139056 0.927976 0.257935 0.237899
H54   H     H_    0.406508 0.662453 0.260900 0.258323
H55   H     H_    0.320574 0.601910 0.151023 0.232755
H56   H     H_    0.141470 0.659937 0.232546 0.136587
H57   H     H_    0.312291 0.679917 0.231295 0.232383
H58   H     H_    0.289677 0.301384 0.294416 0.262368
H59   H     H_    0.174291 0.258496 0.259391 0.220927
H60   H     H_    0.249439 0.343300 0.365441 0.199339
H61   H     H_    0.652180 0.631395 0.968303 0.241280
H62   H     H_    0.719056 0.596313 0.933884 0.257225
H63   H     H_    0.651481 0.536347 0.967369 0.239027
H64   H     H_    0.361644 0.917928 0.493010 0.253829
H65   H     H_    0.305052 0.933827 0.553848 0.224839
H66   H     H_    0.327232 0.844393 0.532358 0.259705
H67   H     H_    0.274044 0.750322 0.364808 0.147308
H68   H     H_    0.848451 0.765633 0.342471 0.211803
H69   H     H_    0.784598 0.809837 0.295642 0.255414
H70   H     H_    0.741326 0.696230 0.255037 0.218699
H71   H     H_    0.708221 0.770590 0.065513 0.241991
H72   H     H_    0.644034 0.701937 0.095111 0.234865
H73   H     H_    0.726852 0.810802 0.172447 0.229807
H74   H     H_    0.754878 0.493821 0.940034 0.303492
H75   H     H_    0.276901 0.246512 0.019419 0.231505
H76   H     H_    0.317935 0.340062 0.008426 0.236358
H77   H     H_    0.260157 0.334398 0.069695 0.229528
H78   H     H_    0.165719 0.896794 0.465819 0.186612
H79   H     H_    0.810220 0.050178 0.546103 0.225042
H80   H     H_    0.730441 0.082378 0.511803 0.222016
H81   H     H_    0.796319 0.075849 0.459652 0.242685
H82   H     H_    0.998426 0.928370 0.712208 0.327363
H83   H     H_    0.168684 0.430688 0.013902 0.234824
H84   H     H_    0.263685 0.433195 0.007654 0.228468
H85   H     H_    0.188593 0.441536 0.928533 0.243523
H86   H     H_    0.429177 0.704956 0.525389 0.336136
H87   H     H_    0.493019 0.930042 0.597489 0.343497
H88   H     H_    0.352044 0.471599 0.207177 0.141368
O1    O     O_R   0.590580 0.537990 0.448200 -0.577062
O2    O     O_R   0.948140 0.909840 0.357940 -0.565399
O3    O     O_R   0.962430 0.909850 0.552620 -0.567105
O4    O     O_R   0.589760 0.642350 0.551790 -0.570460
O5    O     O_R   0.857240 0.909830 0.447420 -0.599637
O6    O     O_R   0.051860 0.090180 0.642080 -0.548708
O7    O     O_R   0.946670 0.090160 0.536880 -0.580837
O8    O     O_R   0.142760 0.090200 0.552610 -0.570702
O9    O     O_R   0.037570 0.090170 0.447410 -0.588399
O10   O     O_R   0.409540 0.447820 0.357340 -0.614713
O11   O     O_R   0.408720 0.552180 0.460940 -0.578603
O12   O     O_R   0.055380 0.642340 0.093300 -0.551581
O13   O     O_R   0.410240 0.357650 0.448210 -0.556857
O14   O     O_R   0.409420 0.462010 0.551800 -0.582658
O15   O     O_R   0.591280 0.447820 0.539060 -0.567345
O16   O     O_R   0.590460 0.552180 0.642660 -0.567438
O17   O     O_R   0.951000 0.537990 0.093340 -0.552135
O18   O     O_2   0.162474 0.599526 0.378155 -0.603474
O19   O     O_R   0.045443 0.479164 0.260991 -0.726660
O20   O     O_2   0.412483 0.225209 0.607001 -0.592986
O21   O     O_R   0.458556 0.125316 0.600217 -0.764073
O22   O     O_2   0.022828 0.727221 0.994271 -0.577481
O23   O     O_R   0.042560 0.447800 0.094700 -0.536279
O24   O     O_R   0.889155 0.689043 0.985295 -0.799978
O25   O     O_2   0.617475 0.306467 0.515415 -0.545227
O26   O     O_R   0.473912 0.245252 0.473226 -0.712082
O27   O     O_2   0.491822 0.412302 0.682060 -0.627872
O28   O     O_R   0.494372 0.539987 0.743647 -0.746025
O29   O     O_2   0.806180 0.503230 0.118249 -0.557033
O30   O     O_R   0.752058 0.467707 0.978775 -0.714649
O31   O     O_2   0.933078 0.016399 0.752637 -0.610961
O32   O     O_R   0.040453 0.990632 0.735485 -0.740772
O33   O     O_2   0.490239 0.694367 0.428502 -0.659244
O34   O     O_R   0.146930 0.552150 0.094670 -0.602216
O35   O     O_R   0.494302 0.744313 0.558229 -0.721445
O36   O     O_2   0.639738 0.980867 0.700573 -0.571742
O37   O     O_R   0.520481 0.899807 0.568853 -0.756785
O38   O     O_R   0.952370 0.357620 0.914350 -0.580975
O39   O     O_R   0.056740 0.461970 0.914310 -0.599775
O40   O     O_R   0.860810 0.447810 0.912980 -0.559375
O41   O     O_R   0.965190 0.552160 0.912950 -0.577027
O42   O     O_R   0.053330 0.909870 0.463140 -0.611963

loop_
_geom_bond_atom_site_label_1
_geom_bond_atom_site_label_2
_ccdc_geom_bond_type
C18   O29   D    
C61   C97   S    
C15   H66   S    
C6    H40   S    
C16   C90   S    
C115  H19   S    
C25   O37   S    
C41   C42   A    
C95   C96   A    
C17   C91   S    
C20   H80   S    
C7    H42   S    
C37   C62   S    
Cu6   O7    S    
C58   C76   S    
Cu3   Cu4   S    
C39   C41   A    
Cu1   O10   S    
Cu5   O8    S    
Cu6   O5    S    
C24   C55   S    
C26   C27   A    
C29   C30   A    
C9    H50   S    
C117  H22   S    
C25   C77   S    
C10   H53   S    
Cu1   O1    S    
C23   C66   S    
C5    O27   D    
C84   C86   A    
C88   H1    S    
Cu4   O41   S    
C30   C31   A    
C68   O12   A    
C4    H33   S    
C106  C107  A    
C112  O19   S    
C22   H83   S    
C55   C61   S    
C79   H67   S    
C120  H30   S    
C97   C109  S    
C56   C57   A    
C116  O21   S    
H37   O28   S    
C60   C62   A    
C34   C35   A    
C42   C46   A    
C49   O16   A    
C4    H36   S    
C33   C85   S    
C4    C65   S    
C92   C93   A    
Cu3   O40   S    
C7    H41   S    
C117  H21   S    
C102  C103  A    
H20   O21   S    
C14   H63   S    
C78   C83   A    
C3    C50   S    
C37   O14   A    
C35   C36   A    
C60   C67   A    
C65   C67   A    
C113  H10   S    
C11   H55   S    
C74   O5    A    
C1    O1    A    
C1    C28   S    
C107  C108  A    
C113  H13   S    
C99   H12   S    
C17   H71   S    
C117  H24   S    
C51   C57   A    
C114  H14   S    
C5    O28   S    
C20   C98   S    
C36   C118  S    
H74   O30   S    
C21   C106  S    
C68   O17   A    
C3    O26   S    
C48   C116  S    
C19   C108  S    
C48   C50   A    
Cu5   Cu6   S    
C6    H39   S    
C12   H60   S    
C59   C60   A    
C32   C115  S    
C9    C63   S    
C55   C109  S    
C49   O15   A    
C10   H51   S    
C19   H77   S    
C44   C73   S    
C9    H49   S    
C20   H79   S    
C72   O42   A    
C31   H8    S    
Cu2   O16   S    
C88   C99   A    
C70   O39   A    
C100  C102  A    
C104  C105  A    
C34   H23   S    
C8    H44   S    
C81   C82   A    
C81   H78   S    
C54   C56   A    
C24   O10   A    
C76   O9    A    
C101  C105  A    
C40   C45   A    
C83   C89   A    
C12   C67   S    
C115  H17   S    
Cu1   O15   S    
C51   C52   A    
C10   H52   S    
C114  H15   S    
C57   C62   A    
C11   H57   S    
C94   C101  A    
C107  H5    S    
C109  H88   S    
C86   C90   A    
C61   H34   S    
C8    C54   S    
C91   C92   A    
C78   C79   A    
C80   C81   A    
C21   O31   D    
C76   O8    A    
C58   C59   A    
C53   C54   A    
Cu2   O11   S    
C19   H76   S    
C63   C64   A    
C96   C98   A    
C78   H56   S    
C38   C39   A    
Cu4   O34   S    
Cu5   O42   S    
C71   O40   A    
C13   C110  A    
C16   H70   S    
C75   C102  S    
C14   H62   S    
C25   O36   D    
C69   O34   A    
Cu4   O12   S    
C15   C80   S    
C45   C49   S    
Cu2   O14   S    
C22   H85   S    
H9    O19   S    
C68   C89   S    
C46   C120  S    
C17   H72   S    
C119  O24   S    
C72   C84   S    
C118  H26   S    
C43   C45   A    
C73   C85   S    
Cu1   Cu2   S    
C1    O4    A    
Cu6   O2    S    
C38   C119  S    
C33   H6    S    
C72   O2    A    
C15   H64   S    
C14   C92   S    
C22   C111  S    
C94   C95   A    
C98   C100  A    
C87   C89   A    
C120  H31   S    
C34   C40   A    
C13   C26   A    
C35   C117  S    
C33   C109  S    
C42   C43   A    
C7    C53   S    
C116  O20   D    
C24   O11   A    
C77   C88   A    
C70   O38   A    
C39   C40   A    
C69   C85   S    
C52   C53   A    
C86   C87   A    
C73   C112  S    
C96   H4    S    
C30   C114  S    
C18   O30   S    
C44   H7    S    
C114  H16   S    
C66   C77   A    
C15   H65   S    
C115  H18   S    
C2    C110  A    
C71   O41   A    
Cu2   O4    S    
C27   C32   A    
Cu6   O9    S    
C33   C44   S    
C31   C32   A    
C10   C64   S    
C6    H38   S    
Cu4   O39   S    
C47   C48   A    
C70   C105  S    
Cu1   O13   S    
C104  C111  A    
C47   H45   S    
C43   C50   A    
C2    C66   A    
C21   O32   S    
C94   H2    S    
H28   O24   S    
C59   C63   A    
C112  O18   D    
C108  C111  A    
C41   C71   S    
C11   C97   S    
C61   C73   S    
C64   C65   A    
C7    H43   S    
Cu3   O38   S    
C23   O35   S    
C16   H69   S    
C14   H61   S    
C99   C110  A    
C44   C55   S    
H32   O26   S    
C90   C91   A    
C12   H58   S    
C75   O6    A    
C9    H48   S    
C12   H59   S    
C87   C93   A    
C74   O3    A    
C36   C38   A    
C100  C101  A    
C22   H84   S    
C56   C58   A    
H87   O37   S    
C103  C106  A    
C113  H11   S    
C120  H29   S    
C19   H75   S    
C23   O33   D    
C118  H25   S    
H82   O32   S    
C118  H27   S    
C46   C47   A    
C16   H68   S    
C79   C80   A    
Cu5   O6    S    
C119  O22   D    
C37   O13   A    
Cu3   O17   S    
C13   C74   S    
C75   O7    A    
C26   C29   A    
C82   C83   A    
C29   C113  S    
C103  C104  A    
C95   H3    S    
C18   C93   S    
Cu3   O23   S    
C4    H35   S    
C5    C51   S    
C2    C28   A    
C11   H54   S    
C8    H47   S    
C20   H81   S    
C6    C52   S    
H86   O35   S    
C17   H73   S    
C69   O23   A    
C82   C84   A    
C85   C97   S    
C8    H46   S    
C3    O25   D    
C27   C28   A    
Cu5   O3    S    
