data_mof_unit_2866.cif
_audit_creation_date              2012-12-11T14:50:47-0500
_audit_creation_method            fapswitch 2.2
_symmetry_space_group_name_H-M    P1
_symmetry_Int_Tables_number       1
_space_group_crystal_system       triclinic
_cell_length_a                    10.934141
_cell_length_b                    10.913455
_cell_length_c                    18.881471
_cell_angle_alpha                 89.861228
_cell_angle_beta                  89.75355
_cell_angle_gamma                 60.368591
_cell_volume                      1958.44074777

loop_
_atom_site_label
_atom_site_type_symbol
_atom_type_description
_atom_site_fract_x
_atom_site_fract_y
_atom_site_fract_z
_atom_type_partial_charge
Br1   Br    Br    0.403575 0.889916 0.822519 -0.381547
Br2   Br    Br    0.509066 0.572242 0.859054 -0.516924
Br3   Br    Br    0.353454 0.293159 0.150696 -0.242970
Br4   Br    Br    0.957263 0.099275 0.182696 -0.190426
Br5   Br    Br    0.012065 0.489402 0.199882 -0.291931
C1    C     C_R   0.233300 0.647260 0.608652 0.552757
C2    C     C_R   0.549337 0.219122 0.795341 -0.125651
C3    C     C_R   0.536711 0.228414 0.722925 -0.188374
C4    C     C_R   0.651873 0.618474 0.602580 0.532381
C5    C     C_R   0.652842 0.198235 0.679849 0.019238
C6    C     C_R   0.178732 0.557941 0.719822 0.355606
C7    C     C_R   0.167271 0.566945 0.793438 -0.095766
C8    C     C_R   0.151401 0.687487 0.828496 0.046941
C9    C     C_R   0.143718 0.799751 0.788518 0.412214
C10   C     C_R   0.155173 0.790605 0.715983 -0.105678
C11   C     C_R   0.178964 0.667880 0.680996 -0.017954
C12   C     C_3   0.810421 0.521734 0.787511 -0.223451
C13   C     C_R   0.698817 0.525649 0.268689 0.338342
C14   C     C_R   0.694173 0.542860 0.195877 0.379404
C15   C     C_R   0.644599 0.677046 0.167448 -0.039641
C16   C     C_R   0.624963 0.233989 0.604785 0.558769
C17   C     C_R   0.577715 0.796213 0.212262 0.371825
C18   C     C_R   0.575522 0.778937 0.285361 0.320777
C19   C     C_R   0.642571 0.643112 0.314214 -0.099650
C20   C     C_R   0.510755 0.235696 0.278005 0.430775
C21   C     C_R   0.522788 0.224165 0.205386 0.204744
C22   C     C_R   0.655951 0.167136 0.174211 -0.009477
C23   C     C_3   0.699386 0.672237 0.812822 0.071140
C24   C     C_R   0.775228 0.137131 0.216743 0.170372
C25   C     C_R   0.762571 0.143007 0.289436 -0.115371
C26   C     C_R   0.631471 0.193817 0.320290 -0.010951
C27   C     C_R   0.249726 0.719574 0.281556 -0.091121
C28   C     C_R   0.227259 0.647715 0.399958 0.546424
C29   C     C_R   0.231141 0.719579 0.209816 0.359722
C30   C     C_R   0.149986 0.663859 0.182909 0.040766
C31   C     C_R   0.101992 0.592760 0.228573 0.118690
C32   C     C_R   0.122148 0.592981 0.300548 -0.070988
C33   C     C_R   0.191090 0.660384 0.326931 -0.055321
C34   C     C_3   0.669027 0.641951 0.678124 -0.048376
C35   C     C_R   0.700496 0.105560 0.897119 0.565969
C36   C     C_R   0.724486 0.688372 0.888097 0.626515
C37   C     C_R   0.110298 0.711357 0.903106 0.615009
C38   C     C_R   0.675836 0.108607 0.103507 0.584643
C39   C     C_R   0.693491 0.690593 0.097126 0.621351
C40   C     C_R   0.638989 0.619252 0.390236 0.605591
C41   C     C_R   0.092290 0.708295 0.112923 0.592371
C42   C     C_R   0.613548 0.233425 0.393867 0.574956
C43   C     C_3   0.548153 0.696151 0.799627 0.218392
C44   C     C_3   0.535357 0.667809 0.720369 -0.204086
C45   C     C_3   0.693497 0.768307 0.688360 -0.199245
C46   C     C_3   0.720753 0.781064 0.767531 0.209536
C47   C     C_3   0.796874 0.507078 0.708718 -0.225527
C48   C     C_R   0.782927 0.161065 0.711510 0.354248
C49   C     C_R   0.796338 0.147447 0.785168 -0.072900
C50   C     C_R   0.681165 0.169177 0.826954 -0.010774
Cr1   Cr    Cr6+3 0.392930 0.397900 0.502230 1.138280
Cr2   Cr    Cr6+3 0.398240 0.708600 0.501260 1.092323
Cr3   Cr    Cr6+3 0.708800 0.393470 0.496460 1.126159
Cr4   Cr    Cr6+3 0.937620 0.938540 0.007640 1.189562
Cr5   Cr    Cr6+3 0.625150 0.937450 0.994520 1.180680
Cr6   Cr    Cr6+3 0.937990 0.625080 0.001190 1.140770
F1    F     F_    0.855959 0.758904 0.775797 -0.680238
F2    F     F_    0.287463 0.779241 0.166967 -0.569244
F3    F     F_    0.896428 0.136282 0.671608 -0.618875
F4    F     F_    0.189198 0.442744 0.686954 -0.634599
F5    F     F_    0.122202 0.920988 0.818999 -0.578012
F6    F     F_    0.763460 0.393053 0.294721 -0.572031
F7    F     F_    0.751548 0.427422 0.153408 -0.535212
F8    F     F_    0.523330 0.928974 0.186306 -0.528161
F9    F     F_    0.514765 0.894258 0.327906 -0.548271
F10   F     F_    0.379522 0.293094 0.306520 -0.548636
H1    H     H_    0.895764 0.487531 0.681705 0.216465
H2    H     H_    0.520775 0.574357 0.714455 0.131738
H3    H     H_    0.085252 0.539662 0.335952 0.194586
H4    H     H_    0.440151 0.758310 0.697255 0.174751
H5    H     H_    0.648543 0.890778 0.785244 0.175646
H6    H     H_    0.599497 0.866966 0.670303 0.119154
H7    H     H_    0.919434 0.500445 0.797820 0.205377
H8    H     H_    0.797836 0.439751 0.816512 0.163460
H9    H     H_    0.784030 0.413487 0.699693 0.186905
H10   H     H_    0.784701 0.754085 0.655787 0.179735
H11   H     H_    0.896769 0.115177 0.809248 0.226555
H12   H     H_    0.457024 0.240678 0.826232 0.182518
H13   H     H_    0.434263 0.260907 0.700872 0.229632
H14   H     H_    0.166575 0.481799 0.822690 0.155923
H15   H     H_    0.152124 0.878490 0.687625 0.220313
H16   H     H_    0.853658 0.118074 0.321818 0.199437
H17   H     H_    0.312032 0.764181 0.301488 0.190162
O1    O     O_R   0.507430 0.255570 0.581420 -0.515253
O2    O     O_R   0.837200 0.593290 0.915250 -0.511259
O3    O     O_R   0.065330 0.635370 0.931590 -0.520894
O4    O     O_R   0.280190 0.527390 0.578910 -0.442158
O5    O     O_R   0.068300 0.828790 0.091860 -0.426715
O6    O     O_R   0.798730 0.057480 0.079370 -0.481505
O7    O     O_R   0.584680 0.080480 0.076790 -0.428459
O8    O     O_R   0.626790 0.809640 0.067050 -0.434856
O9    O     O_R   0.816010 0.596460 0.076500 -0.428784
O10   O     O_R   0.045680 0.638310 0.081070 -0.480699
O11   O     O_3   0.833590 0.833690 0.001120 -0.333579
O12   O     O_R   0.524460 0.695920 0.424060 -0.462993
O13   O     O_R   0.260310 0.739740 0.584580 -0.532707
O14   O     O_R   0.532250 0.695150 0.573830 -0.505696
O15   O     O_R   0.744930 0.503430 0.576380 -0.502943
O16   O     O_R   0.699250 0.276390 0.571950 -0.453472
O17   O     O_R   0.499020 0.256400 0.419850 -0.424493
O18   O     O_R   0.272400 0.528160 0.429140 -0.469241
O19   O     O_R   0.251910 0.740570 0.423020 -0.506261
O20   O     O_R   0.736530 0.504260 0.414810 -0.442532
O21   O     O_R   0.691460 0.277160 0.422180 -0.482643
O22   O     O_3   0.499990 0.499990 0.499980 -0.315997
O23   O     O_R   0.089490 0.825610 0.930610 -0.406996
O24   O     O_R   0.818370 0.054540 0.929880 -0.484939
O25   O     O_R   0.605870 0.077310 0.915530 -0.510368
O26   O     O_R   0.646440 0.806700 0.917570 -0.466775

loop_
_geom_bond_atom_site_label_1
_geom_bond_atom_site_label_2
_ccdc_geom_bond_type
C20   C26   A    
C2    H12   S    
C32   H3    S    
C22   C24   A    
Cr3   O21   S    
Cr4   O11   S    
Cr5   O26   S    
C14   C15   A    
C28   O19   A    
C2    C50   A    
C36   O26   A    
Cr5   O11   S    
C2    C3    A    
C35   O24   A    
C16   O1    A    
C48   C49   A    
Cr2   O14   S    
C21   C22   A    
C24   C25   A    
C7    H14   S    
C13   C19   A    
C19   C40   S    
C31   C32   A    
C29   C30   A    
C25   C26   A    
C48   F3    S    
C1    O4    A    
C10   C11   A    
C27   H17   S    
Br5   C31   S    
C23   C36   S    
C12   H8    S    
C38   O6    A    
C13   C14   A    
C39   O9    A    
C1    O13   A    
C5    C48   A    
C29   F2    S    
C16   O16   A    
C4    C34   S    
C35   O25   A    
C4    O14   A    
C42   O17   A    
Cr4   O23   S    
C18   C19   A    
C44   H4    S    
C20   F10   S    
Cr4   O6    S    
C27   C33   A    
C17   F8    S    
Br4   C24   S    
C40   O20   A    
C34   C47   S    
C41   O10   A    
C26   C42   S    
C8    C9    A    
C18   F9    S    
Cr5   O25   S    
Cr6   O11   S    
C46   F1    S    
C12   C47   S    
Cr1   O22   S    
C8    C37   S    
C15   C39   S    
C45   C46   S    
C5    C16   S    
C46   H5    S    
Br2   C43   S    
C13   F6    S    
C42   O21   A    
Cr2   O12   S    
C30   C31   A    
C27   C29   A    
C37   O23   A    
C32   C33   A    
C47   H1    S    
C6    C11   A    
C38   O7    A    
Cr2   O22   S    
C9    C10   A    
C4    O15   A    
C35   C50   S    
Cr4   O24   S    
C9    F5    S    
C14   F7    S    
C3    H13   S    
Cr1   O18   S    
C10   H15   S    
Cr5   O8    S    
Cr1   O1    S    
Cr2   O19   S    
C15   C17   A    
C44   H2    S    
Cr3   O16   S    
C45   H6    S    
C49   H11   S    
Cr6   O2    S    
C49   C50   A    
C23   C43   S    
C39   O8    A    
C34   C44   S    
Cr3   O22   S    
C12   C23   S    
C6    F4    S    
Br3   C21   S    
Cr6   O9    S    
C28   O18   A    
C40   O12   A    
C6    C7    A    
Br1   C43   S    
Cr2   O13   S    
C28   C33   S    
C20   C21   A    
Cr6   O10   S    
C41   O5    A    
C43   C44   S    
C12   H7    S    
C23   C46   S    
C36   O2    A    
Cr3   O20   S    
Cr1   O17   S    
C1    C11   S    
Cr5   O7    S    
C22   C38   S    
Cr1   O4    S    
C34   C45   S    
C7    C8    A    
C3    C5    A    
C37   O3    A    
C17   C18   A    
Cr3   O15   S    
Cr4   O5    S    
C25   H16   S    
C47   H9    S    
C30   C41   S    
Cr6   O3    S    
C45   H10   S    
