data_mof_unit_3128.cif
_audit_creation_date              2012-12-11T21:20:19-0500
_audit_creation_method            fapswitch 2.2
_symmetry_space_group_name_H-M    P1
_symmetry_Int_Tables_number       1
_space_group_crystal_system       triclinic
_cell_length_a                    8.361115
_cell_length_b                    18.756856
_cell_length_c                    19.016754
_cell_angle_alpha                 102.822325
_cell_angle_beta                  92.309838
_cell_angle_gamma                 92.007935
_cell_volume                      2902.66745119

loop_
_atom_site_label
_atom_site_type_symbol
_atom_type_description
_atom_site_fract_x
_atom_site_fract_y
_atom_site_fract_z
_atom_type_partial_charge
Ba1   Ba    Ba6+2 0.155460 0.532000 0.467920 1.848423
Ba2   Ba    Ba6+2 0.654730 0.467990 0.532020 1.821308
C1    C     C_3   0.373186 0.704345 0.210711 -0.239630
C2    C     C_3   0.396795 0.681856 0.282500 0.367042
C3    C     C_3   0.557116 0.704865 0.697770 0.698326
C4    C     C_3   0.650948 0.717291 0.770155 -0.185961
C5    C     C_3   0.881519 0.278172 0.743896 0.738066
C6    C     C_3   0.854823 0.281317 0.824345 0.359975
C7    C     C_3   0.369604 0.296705 0.707353 0.332497
C8    C     C_3   0.429906 0.295609 0.783474 -0.221737
C9    C     C_R   0.996425 0.953301 0.532683 0.049815
C10   C     C_R   0.060253 0.911724 0.578759 0.043543
C11   C     C_R   0.226877 0.049548 0.554942 0.395238
C12   C     C_3   0.903511 0.721946 0.266232 0.832057
C13   C     C_R   0.067036 0.022794 0.527969 -0.046084
C14   C     C_R   0.274339 0.122146 0.557518 -0.129706
C15   C     C_R   0.178182 0.169297 0.529569 -0.088284
C16   C     C_R   0.028444 0.142241 0.495321 0.094648
C17   C     C_R   0.973088 0.068667 0.493430 0.026813
C18   C     C_R   0.230282 0.242752 0.533698 -0.010990
C19   C     C_R   0.132226 0.288633 0.504504 -0.186928
C20   C     C_R   0.985437 0.263106 0.468668 -0.024209
C21   C     C_R   0.932930 0.189202 0.463662 -0.003472
C22   C     C_R   0.851691 0.925077 0.492843 0.087025
C23   C     C_3   0.876324 0.724595 0.186946 -0.254390
C24   C     C_R   0.790598 0.852624 0.493092 0.103307
C25   C     C_R   0.878651 0.807614 0.529944 0.010406
C26   C     C_R   0.015894 0.838572 0.570752 -0.028498
C27   C     C_R   0.786864 0.161162 0.428705 -0.028777
C28   C     C_R   0.732171 0.090191 0.426303 -0.009602
C29   C     C_R   0.822918 0.042014 0.457315 0.052537
C30   C     C_R   0.766312 0.968772 0.453926 0.097881
C31   C     C_R   0.623890 0.938039 0.414307 0.048873
C32   C     C_R   0.644634 0.824733 0.455139 0.013455
C33   C     C_R   0.564214 0.868348 0.415653 0.013102
C34   C     C_3   0.952908 0.283189 0.295625 0.671739
C35   C     C_R   0.585042 0.753644 0.456988 -0.008679
C36   C     C_R   0.678163 0.708739 0.490468 -0.209027
C37   C     C_R   0.825016 0.734084 0.526537 0.018496
C38   C     C_R   0.347499 0.529269 0.808882 -0.005032
C39   C     C_R   0.312935 0.520784 0.734662 0.034684
C40   C     C_R   0.159180 0.429016 0.809569 -0.194061
C41   C     C_R   0.093836 0.435994 0.742576 -0.007758
C42   C     C_R   0.637918 0.560019 0.191197 -0.163878
C43   C     C_R   0.708638 0.554931 0.257730 -0.009585
C44   C     C_R   0.455708 0.458990 0.195090 -0.137343
C45   C     C_3   0.918193 0.200506 0.275111 -0.322335
C46   C     C_R   0.491819 0.470403 0.269851 -0.033358
C47   C     C_R   0.281096 0.479035 0.847201 0.038353
C48   C     C_R   0.180537 0.476706 0.702670 -0.137745
C49   C     C_R   0.520851 0.507467 0.154213 0.022692
C50   C     C_R   0.627346 0.514029 0.299028 -0.148842
C51   C     C_R   0.072945 0.449711 0.965240 0.015961
C52   C     C_R   0.976230 0.433307 0.017428 -0.037078
C53   C     C_R   0.027923 0.454229 0.088810 0.028715
C54   C     C_R   0.181406 0.485232 0.106793 -0.005906
C55   C     C_R   0.295757 0.484952 0.054216 0.024573
C56   C     C_3   0.059064 0.724142 0.708110 0.636871
C57   C     C_R   0.237648 0.470621 0.980209 0.104518
C58   C     C_R   0.460540 0.504535 0.075684 0.008116
C59   C     C_R   0.563293 0.516996 0.020234 0.019777
C60   C     C_R   0.506505 0.498019 0.946098 0.020451
C61   C     C_R   0.341879 0.479896 0.924946 0.026973
C62   C     C_R   0.721764 0.549177 0.034389 -0.153868
C63   C     C_R   0.808522 0.569736 0.980097 0.442278
C64   C     C_R   0.760624 0.540139 0.908993 -0.095099
C65   C     C_R   0.619559 0.497476 0.893171 -0.198262
C66   C     C_3   0.024543 0.806067 0.728499 -0.380840
C67   C     C_3   0.456656 0.289056 0.297759 0.637001
C68   C     C_3   0.512831 0.289019 0.222164 -0.306875
H1    H     H_    0.341673 0.625940 0.276987 0.045326
H2    H     H_    0.788752 0.188439 0.264138 0.128359
H3    H     H_    0.977938 0.174814 0.225498 0.180934
H4    H     H_    0.962421 0.174682 0.318591 0.082254
H5    H     H_    0.924069 0.818229 0.694676 0.121217
H6    H     H_    0.131322 0.839763 0.721251 0.134602
H7    H     H_    0.992395 0.825822 0.785134 0.167450
H8    H     H_    0.554097 0.305592 0.338566 0.036076
H9    H     H_    0.243816 0.705875 0.196383 0.187316
H10   H     H_    0.409793 0.286952 0.183204 0.159575
H11   H     H_    0.584283 0.240625 0.202374 0.156845
H12   H     H_    0.591038 0.337856 0.223281 0.102706
H13   H     H_    0.527230 0.681534 0.295233 -0.122979
H14   H     H_    0.426076 0.664592 0.166804 0.062851
H15   H     H_    0.628231 0.677061 0.652442 -0.042350
H16   H     H_    0.705860 0.666060 0.776755 0.124458
H17   H     H_    0.745333 0.760574 0.773538 0.131974
H18   H     H_    0.571107 0.735338 0.815380 0.164299
H19   H     H_    0.431295 0.759293 0.214388 0.130428
H20   H     H_    0.762913 0.751519 0.178934 0.090736
H21   H     H_    0.009345 0.290022 0.736391 -0.290374
H22   H     H_    0.871461 0.338592 0.855525 -0.108679
H23   H     H_    0.253078 0.265513 0.695250 -0.010841
H24   H     H_    0.355500 0.354745 0.705321 -0.041378
H25   H     H_    0.338534 0.315025 0.822740 0.100912
H26   H     H_    0.536661 0.333302 0.798804 0.071698
H27   H     H_    0.458618 0.239162 0.786948 0.187098
H28   H     H_    0.173194 0.344744 0.507995 0.043139
H29   H     H_    0.391803 0.141271 0.580897 0.184382
H30   H     H_    0.088992 0.807637 0.599155 0.098446
H31   H     H_    0.711864 0.193584 0.402190 0.147644
H32   H     H_    0.453465 0.849762 0.385194 0.104084
H33   H     H_    0.633366 0.653884 0.490329 0.049733
H34   H     H_    0.787514 0.713017 0.289986 -0.243885
H35   H     H_    0.554934 0.965966 0.380628 0.062179
H36   H     H_    0.433189 0.572466 0.835088 0.087445
H37   H     H_    0.114180 0.384697 0.831526 0.072158
H38   H     H_    0.668049 0.607018 0.170881 0.035008
H39   H     H_    0.369290 0.415581 0.170607 0.106107
H40   H     H_    0.139400 0.477924 0.648297 0.051044
H41   H     H_    0.671780 0.514842 0.353434 0.059117
H42   H     H_    0.009156 0.450894 0.915979 0.050822
H43   H     H_    0.853576 0.413123 0.003263 0.091871
H44   H     H_    0.944035 0.451461 0.129699 0.156897
H45   H     H_    0.976422 0.754584 0.167834 0.177682
H46   H     H_    0.209797 0.511508 0.162029 0.107727
H47   H     H_    0.786988 0.556338 0.084676 0.083475
H48   H     H_    0.834476 0.549310 0.866332 0.185453
H49   H     H_    0.592144 0.468834 0.838264 0.119148
H50   H     H_    0.871034 0.669126 0.152715 0.098989
H51   H     H_    0.069775 0.294816 0.325237 0.041465
O1    O     O_2   0.114280 0.679350 0.549180 -0.466066
O2    O     O_3   0.327377 0.333877 0.316324 -0.612696
O3    O     O_3   0.013800 0.668296 0.272994 -0.603171
O4    O     O_2   0.696020 0.320600 0.450800 -0.459545
O5    O     O_3   0.943900 0.410390 0.456390 -0.468253
O6    O     O_3   0.448150 0.376500 0.584290 -0.489649
O7    O     O_3   0.830955 0.318412 0.336751 -0.659701
O8    O     O_3   0.365880 0.544470 0.588730 -0.468222
O9    O     O_3   0.859790 0.416060 0.623340 -0.441580
O10   O     O_2   0.776886 0.470259 0.748771 -0.479988
O11   O     O_3   0.780146 0.327373 0.719565 -0.611202
O12   O     O_3   0.866400 0.589600 0.543550 -0.459514
O13   O     O_3   0.444420 0.455520 0.411210 -0.494878
O14   O     O_2   0.612810 0.550740 0.677950 -0.472951
O15   O     O_3   0.413672 0.665957 0.702541 -0.629664
O16   O     O_2   0.563024 0.247812 0.526650 -0.406109
O17   O     O_3   0.480622 0.264172 0.658329 -0.520075
O18   O     O_3   0.362150 0.623490 0.415650 -0.507640
O19   O     O_2   0.254441 0.752912 0.471428 -0.361940
O20   O     O_3   0.932157 0.682171 0.665159 -0.655916
O21   O     O_3   0.322788 0.731825 0.336122 -0.533034
O22   O     O_2   0.197490 0.449210 0.322030 -0.383530
O23   O     O_3   0.950520 0.583920 0.376610 -0.456519
O24   O     O_2   0.027122 0.527336 0.251000 -0.451527
P1    P     P_3+3 0.941030 0.670050 0.569830 0.993402
P2    P     P_3+3 0.370400 0.428500 0.331430 1.017445
P3    P     P_3+3 0.918062 0.587672 0.287067 0.982432
P4    P     P_3+3 0.869270 0.329940 0.430110 0.975017
P5    P     P_3+3 0.882924 0.408704 0.712162 0.988334
P6    P     P_3+3 0.382547 0.716865 0.420649 1.084380
P7    P     P_3+3 0.430307 0.571068 0.679651 0.982266
P8    P     P_3+3 0.428388 0.282010 0.574287 1.051423
H52   H     H_    0.171129 0.717102 0.679690 0.094283
S1    S     S_3+6 0.081910 0.690768 0.790041 -0.041231
O25   O     O_2   0.032585 0.610957 0.773694 -0.296340
O26   O     O_2   0.252924 0.700802 0.818970 -0.288667
O27   O     O_3   0.966423 0.733791 0.855428 -0.494413
H53   H     H_    0.039034 0.769887 0.888913 0.371562
S2    S     S_3+6 0.387287 0.197806 0.299302 -0.090882
O28   O     O_2   0.308353 0.198220 0.368899 -0.322099
O29   O     O_2   0.267055 0.170832 0.237505 -0.306119
O30   O     O_3   0.536732 0.139549 0.291390 -0.572638
H54   H     H_    0.533034 0.114030 0.239786 0.359600
S3    S     S_3+6 0.506114 0.791549 0.680518 -0.097339
O31   O     O_2   0.651192 0.831859 0.662406 -0.354102
O32   O     O_2   0.385459 0.779839 0.618073 -0.309841
O33   O     O_3   0.428435 0.841790 0.754683 -0.506720
H55   H     H_    0.414574 0.890552 0.743995 0.379953
S4    S     S_3+6 0.830802 0.188088 0.689992 0.024904
O34   O     O_2   0.682405 0.156686 0.715964 -0.214924
O35   O     O_2   0.799466 0.192716 0.612967 -0.288551
O36   O     O_3   0.980976 0.131705 0.694201 -0.434030
H56   H     H_    0.075043 0.155673 0.677621 0.319243
H57   H     H_    0.730296 0.263545 0.831415 0.029120
S5    S     S_3+6 0.983252 0.225077 0.864268 -0.024034
O37   O     O_2   0.899468 0.151733 0.858998 -0.186436
O38   O     O_2   0.137909 0.214531 0.826726 -0.306391
O39   O     O_3   0.022049 0.265437 0.951736 -0.519858
H58   H     H_    0.093547 0.232207 0.970511 0.375624
S6    S     S_3+6 0.985160 0.809691 0.313260 -0.070346
O40   O     O_2   0.861115 0.865494 0.312714 -0.350273
O41   O     O_2   0.031923 0.806955 0.389404 -0.301801
O42   O     O_3   0.147619 0.834037 0.273234 -0.515430
H59   H     H_    0.192295 0.879510 0.306192 0.367686
S7    S     S_3+6 0.386773 0.997596 0.579399 -0.072671
O43   O     O_2   0.371823 0.919193 0.538612 -0.298307
O44   O     O_2   0.544009 0.030475 0.563586 -0.286395
O45   O     O_3   0.388402 0.002128 0.668787 -0.489880
H60   H     H_    0.497010 0.987990 0.681522 0.403295
H61   H     H_    0.144677 0.934599 0.622305 0.175070
H62   H     H_    0.614898 0.075580 0.400805 0.131824
S8    S     S_3+6 0.980658 0.629517 0.000000 -0.086765
O46   O     O_2   0.072020 0.619021 0.066223 -0.372455
O47   O     O_2   0.088383 0.616581 0.937481 -0.235714
O48   O     O_3   0.920614 0.715917 0.014578 -0.487512
H63   H     H_    0.020628 0.747003 0.025907 0.369955
S9    S     S_3+6 0.956626 0.317842 0.214953 -0.063593
O49   O     O_2   0.882977 0.391105 0.229514 -0.297583
O50   O     O_2   0.125544 0.326780 0.193523 -0.329021
O51   O     O_3   0.850937 0.261913 0.145932 -0.528822
H64   H     H_    0.930554 0.230737 0.118249 0.365394

loop_
_geom_bond_atom_site_label_1
_geom_bond_atom_site_label_2
_ccdc_geom_bond_type
C3    O15   S    
C53   C54   A    
C52   H43   S    
S3    O31   D    
C47   C61   S    
S1    O26   D    
C32   C35   A    
O11   P5    S    
O51   H64   S    
O30   H54   S    
O23   P3    S    
C33   H32   S    
C17   C29   A    
C67   S2    S    
C51   C57   A    
C6    H57   S    
C5    C6    S    
C39   P7    S    
C51   C52   A    
O42   H59   S    
C66   H5    S    
O22   P2    D    
O13   P2    S    
O3    P3    S    
C23   H20   S    
C27   C28   A    
C60   C65   A    
C10   C26   A    
C3    C4    S    
C21   C27   A    
C35   C36   A    
C34   S9    S    
Ba1   Ba2   S    
Ba1   O8    S    
C67   C68   S    
C23   H45   S    
C2    O21   S    
C36   C37   A    
O5    P4    S    
C55   C57   A    
S4    O34   D    
C67   O2    S    
O14   P7    D    
C43   P3    S    
C46   P2    S    
S6    O40   D    
C9    C22   A    
C48   H40   S    
Ba2   O8    S    
C4    H18   S    
C54   C55   A    
C37   P1    S    
C34   C45   S    
C32   C33   A    
C68   H11   S    
Ba1   O1    S    
C56   H52   S    
Ba2   O9    S    
C9    C13   A    
C24   C32   A    
S5    O39   S    
C25   C37   A    
C14   C15   A    
S8    O47   D    
O9    P5    S    
S9    O49   D    
C6    H22   S    
C28   H62   S    
C7    C8    S    
Ba1   O18   S    
C3    H15   S    
Ba2   O6    S    
C26   H30   S    
Ba2   P4    S    
S5    O38   D    
C64   C65   A    
C20   P4    S    
C1    H9    S    
S3    O32   D    
C19   C20   A    
S1    O27   S    
O6    P8    S    
C67   H8    S    
C34   O7    S    
C35   P6    S    
Ba1   O12   S    
O15   P7    S    
C63   S8    S    
C42   H38   S    
C44   C46   A    
Ba2   O12   S    
C12   O3    S    
C18   P8    S    
C68   H10   S    
C16   C21   A    
S2    O30   S    
O33   H55   S    
C31   H35   S    
Ba1   O5    S    
C45   H3    S    
O8    P7    S    
S6    O41   D    
C16   C17   A    
C55   C58   A    
C50   H41   S    
C36   H33   S    
O36   H56   S    
C44   C49   A    
C62   H47   S    
C58   C59   A    
S2    O29   D    
O21   P6    S    
C8    H27   S    
C13   C17   A    
C22   C30   A    
C60   C61   A    
Ba1   O22   S    
C7    O17   S    
C12   H34   S    
C29   C30   A    
C8    H26   S    
S8    O48   S    
C5    H21   S    
S9    O51   S    
C15   C16   A    
C54   H46   S    
O16   P8    D    
O45   H60   S    
C14   H29   S    
Ba2   O13   S    
O17   P8    S    
O19   P6    D    
C5    O11   S    
C41   P5    S    
O4    P4    D    
O20   P1    S    
C27   H31   S    
Ba2   O5    S    
C42   C49   A    
C56   C66   S    
C38   C39   A    
O2    P2    S    
S8    O46   D    
S3    O33   S    
C3    S3    S    
C11   C13   A    
C24   C25   A    
O27   H53   S    
C11   C14   A    
C40   C41   A    
S7    O44   D    
C1    C2    S    
C23   H50   S    
C7    H23   S    
C39   C48   A    
S1    O25   D    
O24   P3    D    
C42   C43   A    
C51   H42   S    
C38   H36   S    
C40   H37   S    
S6    O42   S    
C66   H7    S    
C10   H61   S    
C52   C53   A    
S5    O37   D    
C11   S7    S    
C15   C18   A    
C45   H4    S    
C22   C24   A    
O48   H63   S    
C4    H16   S    
C9    C10   A    
C6    S5    S    
C41   C48   A    
O12   P1    S    
C53   H44   S    
C66   H6    S    
C5    S4    S    
C57   C61   A    
Ba2   O14   S    
C43   C50   A    
C1    H19   S    
C30   C31   A    
S7    O45   S    
C34   H51   S    
Ba1   O23   S    
S2    O28   D    
C59   C62   A    
C19   H28   S    
C56   O20   S    
C38   C47   A    
C28   C29   A    
C2    H13   S    
S4    O35   D    
C8    H25   S    
C62   C63   A    
O18   P6    S    
C12   S6    S    
C31   C33   A    
O1    P1    D    
C12   C23   S    
C59   C60   A    
C68   H12   S    
C45   H2    S    
Ba1   P2    S    
C56   S1    S    
C4    H17   S    
C40   C47   A    
O39   H58   S    
Ba2   O4    S    
O7    P4    S    
C46   C50   A    
Ba1   P1    S    
C18   C19   A    
C63   C64   A    
C64   H48   S    
C44   H39   S    
C1    H14   S    
C20   C21   A    
O10   P5    D    
S9    O50   D    
C49   C58   S    
S7    O43   D    
C65   H49   S    
C7    H24   S    
C2    H1    S    
Ba1   O13   S    
C25   C26   A    
S4    O36   S    
