data_mof_unit_4436.cif
_audit_creation_date              2013-03-05T16:18:08-0500
_audit_creation_method            fapswitch 2.2
_symmetry_space_group_name_H-M    P1
_symmetry_Int_Tables_number       1
_space_group_crystal_system       triclinic
_cell_length_a                    19.382323
_cell_length_b                    18.019387
_cell_length_c                    27.848798
_cell_angle_alpha                 90.015686
_cell_angle_beta                  90.43281
_cell_angle_gamma                 89.782446
_cell_volume                      9726.05586093

loop_
_atom_site_label
_atom_site_type_symbol
_atom_site_description
_atom_site_fract_x
_atom_site_fract_y
_atom_site_fract_z
_atom_type_partial_charge
O1    O     O_R   0.400150 0.561970 0.500010 -0.570205
O2    O     O_R   0.599850 0.438030 0.499990 -0.553864
O3    O     O_R   0.599850 0.561970 0.499990 -0.569439
O4    O     O_R   0.400150 0.438030 0.500010 -0.553396
C1    C     C_R   0.366912 0.500200 0.501268 0.895127
C2    C     C_R   0.633072 0.499860 0.499152 0.891510
O5    O     O_R   0.500010 0.561950 0.430260 -0.592892
O6    O     O_R   0.499990 0.438050 0.569740 -0.590313
O7    O     O_R   0.499990 0.561950 0.569740 -0.592981
O8    O     O_R   0.500010 0.438050 0.430260 -0.591081
C3    C     C_R   0.501042 0.500053 0.407189 0.840955
C4    C     C_R   0.499146 0.500077 0.592833 0.839678
Cu1   Cu    Cu3+1 0.500000 0.573360 0.500000 0.931667
Cu2   Cu    Cu3+1 0.500000 0.426640 0.500000 0.950484
C5    C     C_R   0.441735 0.474493 0.177340 0.522164
C6    C     C_R   0.560163 0.472098 0.822691 0.522847
O9    O     O_2   0.383515 0.463541 0.202561 -0.521695
O10   O     O_2   0.617988 0.458706 0.797422 -0.523849
N1    N     N_R   0.502467 0.484488 0.201543 -0.449634
N2    N     N_R   0.499709 0.484531 0.798536 -0.449091
C7    C     C_R   0.563575 0.492291 0.178026 0.630836
C8    C     C_R   0.438886 0.494788 0.822100 0.631394
C9    C     C_R   0.519770 0.557073 0.275696 0.476270
C10   C     C_R   0.484017 0.557843 0.724525 0.476201
C11   C     C_R   0.523109 0.560974 0.326166 0.107422
C12   C     C_R   0.479795 0.561795 0.674096 0.107503
C13   C     C_R   0.482032 0.433513 0.330473 -0.268165
C14   C     C_R   0.517517 0.432860 0.669461 -0.269010
C15   C     C_R   0.482982 0.428656 0.280673 -0.172098
C16   C     C_R   0.517158 0.428043 0.719276 -0.173775
C17   C     C_R   0.501838 0.489949 0.253088 0.215971
C18   C     C_R   0.500335 0.490043 0.746998 0.215565
C19   C     C_R   0.502372 0.487959 0.101673 -0.150322
C20   C     C_R   0.500034 0.488068 0.898405 -0.150380
C21   C     C_R   0.439844 0.476367 0.126731 -0.033910
C22   C     C_R   0.562176 0.473952 0.873307 -0.033829
C23   C     C_R   0.377783 0.466535 0.100370 0.255785
C24   C     C_R   0.623958 0.461663 0.899639 0.256163
C25   C     C_R   0.565059 0.497482 0.127389 -0.130168
C26   C     C_R   0.437618 0.500103 0.872728 -0.129632
C27   C     C_R   0.501777 0.499189 0.354059 -0.144314
C28   C     C_R   0.499032 0.499223 0.646003 -0.145207
H1    H     H_    0.466059 0.385217 0.350614 0.168053
H2    H     H_    0.531941 0.383960 0.649221 0.168505
H3    H     H_    0.468864 0.376993 0.263389 0.174838
H4    H     H_    0.530072 0.375844 0.736454 0.174951
C29   C     C_R   0.438096 0.498217 0.974623 -0.024471
C30   C     C_R   0.564614 0.495615 0.025468 -0.024393
C31   C     C_R   0.563504 0.484003 0.974943 0.053464
C32   C     C_R   0.438880 0.486487 0.025122 0.053501
C33   C     C_R   0.500471 0.490030 0.949306 0.010708
C34   C     C_R   0.502033 0.489943 0.050772 0.010763
C35   C     C_R   0.377836 0.520211 0.948985 0.204598
C36   C     C_R   0.625447 0.515094 0.051151 0.204677
C37   C     C_R   0.376885 0.519071 0.898368 0.217342
C38   C     C_R   0.626318 0.513925 0.101775 0.217083
O11   O     O_2   0.380044 0.498495 0.796121 -0.536692
O12   O     O_2   0.622441 0.493691 0.204051 -0.535730
C39   C     C_R   0.378616 0.469344 0.050385 -0.234633
C40   C     C_R   0.623248 0.464493 0.949634 -0.234833
H5    H     H_    0.331093 0.456676 0.031623 0.167427
H6    H     H_    0.670414 0.449921 0.968362 0.167532
C41   C     C_R   0.251240 0.562644 0.488395 0.323433
C42   C     C_R   0.745440 0.435978 0.481297 0.305375
C43   C     C_R   0.747688 0.559271 0.518171 0.338741
C44   C     C_R   0.255805 0.437867 0.523158 0.305136
C45   C     C_R   0.178820 0.558620 0.485900 0.155418
C46   C     C_R   0.818323 0.434814 0.481766 0.137738
C47   C     C_R   0.818817 0.551225 0.526695 0.136266
C48   C     C_R   0.183197 0.438062 0.526473 0.133196
C49   C     C_R   0.144981 0.496756 0.505789 -0.124698
C50   C     C_R   0.854602 0.491330 0.506109 -0.131229
C51   C     C_R   0.290351 0.500350 0.504185 -0.317135
C52   C     C_R   0.709655 0.498858 0.499056 -0.319440
N3    N     N_R   0.034810 0.493836 0.547986 -0.223301
N4    N     N_R   0.965028 0.491817 0.464081 -0.219798
N5    N     N_R   0.966227 0.492824 0.548100 -0.237430
N6    N     N_R   0.033617 0.492980 0.463936 -0.229853
C53   C     C_R   0.930262 0.491898 0.506167 0.503998
C54   C     C_R   0.069505 0.494081 0.505899 0.507026
C55   C     C_R   0.525873 0.278468 0.538428 -0.059163
C56   C     C_R   0.469956 0.721305 0.463046 -0.083923
C57   C     C_R   0.473818 0.278778 0.461612 -0.060207
C58   C     C_R   0.530113 0.721257 0.536844 -0.078170
H7    H     H_    0.547441 0.308624 0.568489 0.146783
H8    H     H_    0.446440 0.690145 0.434263 0.155045
H9    H     H_    0.452253 0.309203 0.431600 0.147263
H10   H     H_    0.554167 0.690156 0.565509 0.154428
C59   C     C_R   0.522997 0.200536 0.540487 0.309388
C60   C     C_R   0.468071 0.799843 0.462132 0.299428
C61   C     C_R   0.476206 0.200800 0.459572 0.310551
C62   C     C_R   0.531295 0.799726 0.537835 0.300167
C63   C     C_R   0.499532 0.159883 0.500021 -0.139296
C64   C     C_R   0.499546 0.840321 0.500019 -0.116921
N7    N     N_R   0.500000 0.316380 0.500000 -0.213014
N8    N     N_R   0.500000 0.683620 0.500000 -0.217318
N9    N     N_R   0.452200 0.037605 0.473912 -0.202405
N10   N     N_R   0.546712 0.963104 0.526107 -0.205243
N11   N     N_R   0.546699 0.037242 0.526143 -0.202625
N12   N     N_R   0.452166 0.963456 0.473970 -0.202217
C65   C     C_R   0.499441 0.924170 0.500046 0.474784
C66   C     C_R   0.499461 0.076381 0.500022 0.419919
N13   N     N_2   0.140573 0.615760 0.461721 -0.399026
H11   H     H_    0.167064 0.646196 0.436541 0.281580
C67   C     C_3   0.091199 0.658540 0.489335 -0.671797
H12   H     H_    0.100913 0.718819 0.484780 0.203690
H13   H     H_    0.094108 0.645125 0.528273 0.225408
H14   H     H_    0.038295 0.647094 0.475852 0.253476
N14   N     N_2   0.854831 0.378210 0.456295 -0.396877
H15   H     H_    0.829170 0.353973 0.427791 0.284741
C68   C     C_3   0.897201 0.327337 0.484270 -0.699132
H16   H     H_    0.878480 0.269603 0.479432 0.210170
H17   H     H_    0.896284 0.340635 0.523259 0.223092
H18   H     H_    0.951226 0.330093 0.471519 0.249871
N15   N     N_2   0.855077 0.604391 0.555013 -0.408839
H19   H     H_    0.843473 0.658733 0.547070 0.264041
C69   C     C_3   0.851713 0.590464 0.606091 -0.622281
H20   H     H_    0.797816 0.596775 0.618863 0.228579
H21   H     H_    0.884893 0.630841 0.625485 0.220120
H22   H     H_    0.870420 0.533568 0.614555 0.241337
N16   N     N_2   0.148952 0.380337 0.552151 -0.398002
H23   H     H_    0.176891 0.355112 0.579303 0.284636
C70   C     C_3   0.105587 0.330110 0.524675 -0.699203
H24   H     H_    0.052313 0.332161 0.538961 0.249096
H25   H     H_    0.125199 0.272315 0.528200 0.210498
H26   H     H_    0.104138 0.344650 0.485861 0.224969
O13   O     O_3   0.545454 0.165142 0.581823 -0.599872
C71   C     C_3   0.488138 0.149502 0.611381 0.095869
H27   H     H_    0.501728 0.100104 0.633413 0.183385
H28   H     H_    0.440748 0.134312 0.590604 0.123259
C72   C     C_3   0.473050 0.214643 0.645269 -0.396440
H29   H     H_    0.520666 0.229147 0.665635 0.230258
H30   H     H_    0.456365 0.263917 0.624209 0.214277
C73   C     C_3   0.416012 0.195513 0.680555 -0.887544
H31   H     H_    0.367566 0.182184 0.660845 0.254162
H32   H     H_    0.406266 0.243767 0.704408 0.264952
H33   H     H_    0.431522 0.147292 0.703066 0.255309
O14   O     O_3   0.442204 0.837392 0.422274 -0.590044
C74   C     C_3   0.373410 0.816374 0.411443 0.075484
H34   H     H_    0.341219 0.867519 0.410868 0.175192
H35   H     H_    0.349687 0.778992 0.438504 0.137151
C75   C     C_3   0.370136 0.780402 0.361671 -0.352709
H36   H     H_    0.385939 0.821462 0.334119 0.227146
H37   H     H_    0.406366 0.732643 0.360036 0.203624
C76   C     C_3   0.297478 0.753063 0.350058 -0.908143
H38   H     H_    0.281311 0.710767 0.376694 0.277170
H39   H     H_    0.296647 0.727356 0.313833 0.255380
H40   H     H_    0.260310 0.800128 0.350450 0.254195
O15   O     O_3   0.453156 0.165652 0.418356 -0.600303
C77   C     C_3   0.510024 0.149467 0.388405 0.096815
H41   H     H_    0.496063 0.100191 0.366459 0.183353
H42   H     H_    0.557657 0.133818 0.408860 0.122836
C78   C     C_3   0.524722 0.214446 0.354421 -0.396327
H43   H     H_    0.476814 0.229501 0.334450 0.230528
H44   H     H_    0.541909 0.263521 0.375358 0.213288
C79   C     C_3   0.581098 0.194673 0.318657 -0.887334
H45   H     H_    0.629826 0.180768 0.337966 0.254636
H46   H     H_    0.590586 0.242829 0.294752 0.264993
H47   H     H_    0.565067 0.146649 0.296244 0.255318
O16   O     O_3   0.556982 0.836908 0.577779 -0.591271
C80   C     C_3   0.627206 0.818840 0.586520 0.079484
H48   H     H_    0.656966 0.871417 0.586892 0.175739
H49   H     H_    0.651090 0.783312 0.558380 0.132601
C81   C     C_3   0.634958 0.781701 0.635718 -0.345859
H50   H     H_    0.618019 0.820889 0.664157 0.226615
H51   H     H_    0.601796 0.731713 0.637511 0.203697
C82   C     C_3   0.709626 0.758651 0.645376 -0.919641
H52   H     H_    0.727179 0.718620 0.617657 0.281182
H53   H     H_    0.713657 0.731594 0.681097 0.253316
H54   H     H_    0.743771 0.808010 0.645074 0.254906
N17   N     N_2   0.313459 0.455087 0.123466 -0.371350
H55   H     H_    0.283777 0.414513 0.107404 0.238562
C83   C     C_3   0.274573 0.522738 0.131115 -0.606353
H56   H     H_    0.227514 0.510138 0.152033 0.225473
H57   H     H_    0.258851 0.547489 0.096118 0.201498
H58   H     H_    0.305871 0.563595 0.151670 0.241068
N18   N     N_2   0.687911 0.447676 0.876502 -0.371281
H59   H     H_    0.716543 0.406025 0.892567 0.238381
C84   C     C_3   0.728536 0.513773 0.868768 -0.609714
H60   H     H_    0.775208 0.499305 0.847826 0.224210
H61   H     H_    0.744951 0.538014 0.903734 0.202005
H62   H     H_    0.698293 0.555750 0.848201 0.241185
N19   N     N_2   0.452999 0.628075 0.653295 -0.417910
H63   H     H_    0.484738 0.654408 0.629381 0.255529
C85   C     C_3   0.381209 0.624908 0.639070 -0.597709
H64   H     H_    0.364279 0.680308 0.626029 0.204753
H65   H     H_    0.348865 0.609444 0.670256 0.248804
H66   H     H_    0.373658 0.583727 0.609845 0.205882
N20   N     N_2   0.551067 0.626290 0.347267 -0.419194
H67   H     H_    0.519487 0.653704 0.370923 0.255639
C86   C     C_3   0.622438 0.620546 0.362269 -0.596409
H68   H     H_    0.628336 0.579306 0.391652 0.206243
H69   H     H_    0.640444 0.675363 0.375416 0.205259
H70   H     H_    0.655079 0.603727 0.331465 0.249062
O17   O     O_3   0.465469 0.618264 0.752494 -0.588067
C87   C     C_3   0.517970 0.672749 0.751778 0.066172
H71   H     H_    0.493153 0.727105 0.759435 0.181440
H72   H     H_    0.543319 0.678522 0.716179 0.127717
C88   C     C_3   0.572462 0.657171 0.790663 -0.386172
H73   H     H_    0.546752 0.646946 0.825585 0.231709
H74   H     H_    0.602470 0.607004 0.780687 0.233822
C89   C     C_3   0.622313 0.721969 0.796174 -0.912278
H75   H     H_    0.648784 0.732904 0.761674 0.257857
H76   H     H_    0.661802 0.708264 0.823909 0.256136
H77   H     H_    0.594166 0.772745 0.807547 0.258541
O18   O     O_3   0.540760 0.616554 0.247904 -0.587737
C90   C     C_3   0.489927 0.673264 0.247948 0.067142
H78   H     H_    0.516678 0.726573 0.241034 0.181689
H79   H     H_    0.463376 0.679793 0.283076 0.127352
C91   C     C_3   0.436521 0.660382 0.208000 -0.385519
H80   H     H_    0.463243 0.648551 0.173633 0.231943
H81   H     H_    0.404169 0.611946 0.217442 0.233346
C92   C     C_3   0.389525 0.727749 0.201360 -0.911087
H82   H     H_    0.362243 0.740531 0.235312 0.258236
H83   H     H_    0.350573 0.715885 0.172964 0.256423
H84   H     H_    0.420096 0.776805 0.190329 0.258371
N21   N     N_2   0.315976 0.544315 0.874326 -0.414969
H85   H     H_    0.321318 0.583637 0.847752 0.293687
C93   C     C_3   0.261089 0.490760 0.867862 -0.639551
H86   H     H_    0.258077 0.473007 0.829747 0.263365
H87   H     H_    0.211224 0.516922 0.877653 0.211711
H88   H     H_    0.269047 0.440909 0.890830 0.212972
N22   N     N_2   0.687898 0.536629 0.125850 -0.415115
H89   H     H_    0.683678 0.576182 0.152422 0.293911
C94   C     C_3   0.741179 0.480810 0.132342 -0.637989
H90   H     H_    0.743581 0.462933 0.170448 0.263624
H91   H     H_    0.791798 0.504873 0.122622 0.212104
H92   H     H_    0.731830 0.431329 0.109332 0.212700
N23   N     N_2   0.321279 0.553221 0.973837 -0.440835
H93   H     H_    0.273120 0.544605 0.959038 0.274877
C95   C     C_3   0.332312 0.629337 0.988399 -0.673544
H94   H     H_    0.287712 0.648801 0.009857 0.219243
H95   H     H_    0.337383 0.665439 0.956279 0.230785
H96   H     H_    0.379538 0.633926 0.011048 0.238148
N24   N     N_2   0.682944 0.545742 0.026347 -0.440867
H97   H     H_    0.730813 0.535090 0.041152 0.274882
C96   C     C_3   0.674150 0.622298 0.011873 -0.673549
H98   H     H_    0.719299 0.639909 0.990441 0.219168
H99   H     H_    0.670129 0.658541 0.044033 0.230852
H100  H     H_    0.627093 0.628901 0.989224 0.238111
O19   O     O_3   0.283264 0.627342 0.473711 -0.611458
C97   C     C_3   0.298126 0.672800 0.514205 0.113555
H101  H     H_    0.352008 0.692122 0.510743 0.185746
H102  H     H_    0.295563 0.643473 0.549466 0.109849
C98   C     C_3   0.250589 0.740755 0.515432 -0.403536
H103  H     H_    0.239498 0.760479 0.478353 0.230725
H104  H     H_    0.201444 0.725052 0.532652 0.226604
C99   C     C_3   0.282548 0.804047 0.544407 -0.913859
H105  H     H_    0.293714 0.785642 0.581735 0.257705
H106  H     H_    0.245969 0.851565 0.545610 0.263026
H107  H     H_    0.331133 0.822988 0.527483 0.255947
O20   O     O_3   0.709346 0.379960 0.458137 -0.590014
C100  C     C_3   0.708357 0.315883 0.487521 0.094619
H108  H     H_    0.674591 0.325085 0.519104 0.152763
H109  H     H_    0.760539 0.300713 0.501105 0.149554
C101  C     C_3   0.680237 0.250818 0.458184 -0.346690
H110  H     H_    0.624920 0.260833 0.449721 0.223484
H111  H     H_    0.708690 0.246569 0.423774 0.227346
C102  C     C_3   0.687962 0.177620 0.485303 -0.906602
H112  H     H_    0.743439 0.163525 0.490017 0.253535
H113  H     H_    0.662647 0.132456 0.464655 0.255710
H114  H     H_    0.663708 0.181512 0.521169 0.285545
O21   O     O_3   0.715753 0.625300 0.530836 -0.606884
C103  C     C_3   0.704922 0.669632 0.489167 0.097775
H115  H     H_    0.652491 0.693985 0.491542 0.181894
H116  H     H_    0.706008 0.638030 0.454672 0.119495
C104  C     C_3   0.757144 0.733019 0.486798 -0.422258
H117  H     H_    0.763131 0.758984 0.522777 0.224736
H118  H     H_    0.807917 0.710653 0.475372 0.215122
C105  C     C_3   0.734233 0.792389 0.450917 -0.895255
H119  H     H_    0.728480 0.767960 0.414492 0.256149
H120  H     H_    0.773556 0.836967 0.449534 0.261503
H121  H     H_    0.684287 0.817306 0.462005 0.253543
O22   O     O_3   0.293440 0.380324 0.543688 -0.588935
C106  C     C_3   0.291816 0.317650 0.513034 0.097598
H122  H     H_    0.325200 0.326958 0.481314 0.154362
H123  H     H_    0.238994 0.305254 0.499591 0.148121
C107  C     C_3   0.318628 0.250158 0.540813 -0.350455
H124  H     H_    0.374141 0.258007 0.549482 0.223572
H125  H     H_    0.290071 0.244924 0.575120 0.225671
C108  C     C_3   0.309520 0.178742 0.512020 -0.902649
H126  H     H_    0.253772 0.166770 0.506769 0.252634
H127  H     H_    0.333695 0.131699 0.531753 0.257277
H128  H     H_    0.334217 0.183736 0.476355 0.286578

loop_
_geom_bond_atom_site_label_1
_geom_bond_atom_site_label_2
_geom_bond_distance
_ccdc_geom_bond_type
O5    Cu1   1.952973 S    
C57   H9    1.080306 S    
N17   H55   1.031852 S    
C90   C91   1.532094 S    
C107  H125  1.111978 S    
C13   C15   1.389862 A    
C1    C51   1.486744 S    
C104  H118  1.110766 S    
C95   H94   1.110322 S    
C35   C37   1.409749 A    
C68   H16   1.110929 S    
C105  H121  1.111411 S    
N4    C53   1.356355 A    
C102  H114  1.109206 S    
N1    C17   1.438942 S    
C71   H27   1.110945 S    
C80   C81   1.531098 S    
C8    O11   1.347427 S    
C10   C18   1.406703 A    
C76   H38   1.111264 S    
C85   H64   1.109982 S    
O14   C74   1.417763 S    
C45   N13   1.431832 S    
C70   H24   1.109857 S    
C82   H53   1.110054 S    
C43   O21   1.385857 S    
C83   H56   1.110185 S    
C99   H105  1.110724 S    
C108  H128  1.109629 S    
C30   C36   1.419609 A    
C67   H13   1.112018 S    
C20   C33   1.417936 A    
C19   C25   1.416665 A    
C31   C40   1.403706 A    
C89   H76   1.110478 S    
O1    C1    1.288792 A    
C32   C39   1.403576 A    
C42   C46   1.412674 A    
C15   C17   1.396914 A    
C79   H45   1.111104 S    
C106  H123  1.110925 S    
N4    N6    1.329692 A    
O19   C97   1.422005 S    
C50   C53   1.466544 S    
C69   H21   1.110296 S    
N2    C18   1.438893 S    
C100  H108  1.112306 S    
C55   N7    1.361312 A    
C104  C105  1.526566 S    
N6    C54   1.355622 A    
C70   H25   1.111383 S    
C93   H87   1.109579 S    
N15   H19   1.027647 S    
C41   O19   1.386087 S    
C101  C102  1.526381 S    
C94   H92   1.112468 S    
C14   H2    1.082843 S    
C40   H6    1.080625 S    
O22   C106  1.415813 S    
C58   N8    1.359031 A    
N20   C86   1.445369 S    
O7    Cu1   1.953082 S    
C4    C28   1.480817 S    
N14   C68   1.451457 S    
C76   H39   1.110001 S    
C42   O20   1.386559 S    
N13   C67   1.451435 S    
C47   N15   1.424791 S    
C106  H122  1.112076 S    
C64   C65   1.510889 S    
C103  H115  1.107833 S    
N15   C69   1.446477 S    
C89   H77   1.110746 S    
C101  H111  1.111719 S    
C88   C89   1.525352 S    
C32   C34   1.414145 A    
N24   H97   1.029825 S    
C105  H120  1.110275 S    
C60   C64   1.417975 A    
C48   C49   1.409613 A    
C29   C32   1.422140 A    
N3    C54   1.355714 A    
C98   C99   1.527362 S    
N21   C93   1.449224 S    
C20   C22   1.419244 A    
N9    C66   1.360358 A    
O3    Cu1   1.945404 S    
C99   H107  1.111141 S    
C46   C50   1.410306 A    
C102  H112  1.110753 S    
C29   C35   1.419534 A    
C84   H62   1.111564 S    
C55   C59   1.406797 A    
C12   N19   1.422262 S    
C72   C73   1.525177 S    
N5    C53   1.355626 A    
C57   N7    1.361452 A    
C88   H73   1.111857 S    
C24   N18   1.422952 S    
Cu1   Cu2   2.643803 S    
C95   H96   1.111026 S    
C59   C63   1.416950 A    
C81   H51   1.109902 S    
N24   C96   1.446374 S    
C75   C76   1.526066 S    
O2    C2    1.289254 A    
C36   N24   1.428500 S    
C73   H33   1.110787 S    
C87   C88   1.532187 S    
C5    C21   1.409988 A    
C49   C54   1.463898 S    
C80   H49   1.114100 S    
C99   H106  1.110261 S    
C55   H7    1.080314 S    
C2    C52   1.484422 S    
C82   H54   1.110721 S    
C36   C38   1.409936 A    
C92   H83   1.110484 S    
C96   H99   1.111343 S    
C14   C16   1.390090 A    
C67   H14   1.109371 S    
C41   C45   1.406995 A    
C39   H5    1.080666 S    
C97   C98   1.530162 S    
C56   N8    1.359286 A    
C89   H75   1.110611 S    
C85   H65   1.111123 S    
Cu1   N8    1.986818 S    
C90   H78   1.110893 S    
O21   C103  1.422788 S    
C106  C107  1.528795 S    
N22   H89   1.030741 S    
C95   H95   1.111341 S    
O8    Cu2   1.953085 S    
C69   H22   1.110915 S    
C11   C27   1.422216 A    
C82   H52   1.110740 S    
C100  H109  1.110387 S    
C98   H103  1.111332 S    
C48   N16   1.430634 S    
O18   C90   1.416812 S    
O4    C1    1.290772 A    
C85   H66   1.110480 S    
C29   C33   1.411352 A    
C41   C51   1.420144 A    
C10   O17   1.386376 S    
C31   C33   1.414222 A    
C108  H126  1.111239 S    
C56   H8    1.077839 S    
C44   C51   1.416542 A    
C77   C78   1.534622 S    
C43   C52   1.418351 A    
C86   H68   1.110480 S    
C15   H3    1.083006 S    
C19   C34   1.417954 A    
C9    C17   1.407010 A    
C60   O14   1.389514 S    
C47   C50   1.405187 A    
C5    N1    1.364534 A    
N19   H63   1.027464 S    
C86   H69   1.109972 S    
C91   C92   1.525350 S    
N23   H93   1.029814 S    
C61   C63   1.416761 A    
N19   C85   1.445195 S    
N17   C83   1.447343 S    
C13   C27   1.406275 A    
O5    C3    1.287177 A    
C25   C38   1.421984 A    
C7    C25   1.413820 A    
C103  H116  1.116914 S    
C92   H82   1.110467 S    
O6    C4    1.289464 A    
C26   C37   1.421936 A    
C8    C26   1.413546 A    
C101  H110  1.110147 S    
C62   C64   1.417782 A    
C97   H101  1.107021 S    
C68   H17   1.112099 S    
C6    N2    1.364493 A    
C78   C79   1.525162 S    
C58   C62   1.414487 A    
N3    N5    1.329532 A    
N16   H23   1.031377 S    
C23   C39   1.393146 A    
C107  C108  1.526171 S    
N18   H59   1.031852 S    
C24   C40   1.393379 A    
C87   H72   1.114843 S    
C30   C31   1.422478 A    
C37   N21   1.425850 S    
N2    C8    1.365469 A    
N10   N11   1.335920 A    
C91   H81   1.109459 S    
C98   H104  1.107438 S    
C9    O18   1.386303 S    
C97   H102  1.116783 S    
C77   H42   1.116477 S    
C96   H100  1.111025 S    
C78   H44   1.109956 S    
C72   H29   1.111566 S    
C70   H26   1.112402 S    
C71   C72   1.534585 S    
Cu2   N7    1.986818 S    
C93   H86   1.109718 S    
N9    N12   1.336129 A    
C22   C24   1.416178 A    
C76   H40   1.110764 S    
C12   C28   1.422364 A    
C61   O15   1.382826 S    
C59   O13   1.382797 S    
C92   H84   1.110743 S    
C21   C23   1.416156 A    
C5    O9    1.348863 S    
C81   H50   1.111557 S    
O6    Cu2   1.952970 S    
C94   H90   1.109715 S    
C75   H36   1.111556 S    
C16   H4    1.082999 S    
C81   C82   1.526088 S    
C58   H10   1.077658 S    
C10   C12   1.407972 A    
C87   H71   1.110887 S    
C102  H113  1.110069 S    
C71   H28   1.116792 S    
C63   C66   1.504657 S    
C23   N17   1.422949 S    
C38   N22   1.425826 S    
C73   H32   1.110568 S    
C74   H34   1.111030 S    
N22   C94   1.449208 S    
C83   H58   1.111566 S    
C73   H31   1.111116 S    
C79   H47   1.110775 S    
C84   H60   1.110188 S    
C108  H127  1.110626 S    
N10   C65   1.361254 A    
C57   C61   1.406846 A    
C67   H12   1.110550 S    
C69   H20   1.111514 S    
C56   C60   1.415752 A    
C62   O16   1.388508 S    
C104  H117  1.111193 S    
O16   C80   1.417585 S    
O20   C100  1.415661 S    
C100  C101  1.528630 S    
C79   H46   1.110576 S    
N21   H85   1.030747 S    
C86   H70   1.111119 S    
C7    O12   1.347385 S    
N23   C95   1.446376 S    
C11   N20   1.422626 S    
O15   C77   1.416685 S    
C6    C22   1.410230 A    
C93   H88   1.112468 S    
C16   C18   1.396793 A    
C74   H35   1.113993 S    
C19   C21   1.419241 A    
C83   H57   1.111920 S    
C44   C48   1.411023 A    
C80   H48   1.111060 S    
C74   C75   1.530965 S    
C103  C104  1.530781 S    
C43   C47   1.404121 A    
C14   C28   1.406676 A    
N12   C65   1.361399 A    
C94   H91   1.109579 S    
N18   C84   1.447342 S    
C3    C27   1.479880 S    
C68   H18   1.109532 S    
C45   C49   1.411031 A    
C46   N14   1.430352 S    
C9    C11   1.408273 A    
C105  H119  1.110701 S    
O4    Cu2   1.945404 S    
N20   H67   1.027763 S    
O2    Cu2   1.946954 S    
O7    C4    1.287484 A    
C88   H74   1.109487 S    
N16   C70   1.451472 S    
C44   O22   1.386499 S    
O8    C3    1.289264 A    
O17   C87   1.416950 S    
C13   H1    1.082941 S    
C30   C34   1.411446 A    
N11   C66   1.360205 A    
O1    Cu1   1.946954 S    
C6    O10   1.348825 S    
C91   H80   1.111871 S    
O3    C2    1.289373 A    
N14   H15   1.031363 S    
N13   H11   1.031492 S    
C90   H79   1.114782 S    
C42   C52   1.417182 A    
C107  H124  1.110497 S    
C20   C26   1.416651 A    
C72   H30   1.110009 S    
C84   H61   1.111920 S    
C78   H43   1.111554 S    
C96   H98   1.110319 S    
C75   H37   1.109812 S    
O13   C71   1.416842 S    
C35   N23   1.428545 S    
C77   H41   1.110941 S    
N1    C7    1.365478 A    
