data_mof_unit_3991.cif
_audit_creation_date              2012-12-11T14:42:05-0500
_audit_creation_method            fapswitch 2.2
_symmetry_space_group_name_H-M    P1
_symmetry_Int_Tables_number       1
_space_group_crystal_system       triclinic
_cell_length_a                    19.099421
_cell_length_b                    11.122406
_cell_length_c                    18.847713
_cell_angle_alpha                 90.291466
_cell_angle_beta                  90.09085
_cell_angle_gamma                 89.50406
_cell_volume                      4003.64167165

loop_
_atom_site_label
_atom_site_type_symbol
_atom_type_description
_atom_site_fract_x
_atom_site_fract_y
_atom_site_fract_z
_atom_type_partial_charge
C1    C     C_R   0.724352 0.963236 0.856253 0.557080
C2    C     C_R   0.273097 0.957039 0.146083 0.555520
C3    C     C_R   0.224419 0.463066 0.856184 0.545924
C4    C     C_R   0.773002 0.456812 0.146195 0.555140
C5    C     C_R   0.697781 0.470772 0.036375 0.121659
C6    C     C_R   0.303242 0.456490 0.963482 0.123153
C7    C     C_R   0.198134 0.971584 0.036101 0.121161
C8    C     C_R   0.803133 0.956823 0.963609 0.121155
C9    C     C_R   0.755538 0.421194 0.073805 0.017581
C10   C     C_R   0.237030 0.440420 0.931475 0.021056
C11   C     C_R   0.255888 0.922010 0.073531 0.019996
C12   C     C_R   0.736924 0.940742 0.931588 0.018325
C13   C     C_R   0.808208 0.360013 0.036935 -0.159024
C14   C     C_R   0.177488 0.427099 0.974549 -0.133152
C15   C     C_R   0.308713 0.861277 0.036615 -0.157679
C16   C     C_R   0.677381 0.927442 0.974670 -0.133792
C17   C     C_R   0.809095 0.357499 0.964092 0.130121
C18   C     C_R   0.183109 0.421341 0.048000 0.128263
C19   C     C_R   0.309497 0.858535 0.963772 0.130472
C20   C     C_R   0.683022 0.921650 0.048133 0.130339
C21   C     C_R   0.750150 0.402591 0.925983 0.014792
C22   C     C_R   0.250331 0.418978 0.078591 0.001093
C23   C     C_R   0.250432 0.903329 0.925720 0.012412
C24   C     C_R   0.750251 0.919257 0.078705 0.002227
C25   C     C_R   0.499776 0.284233 0.533897 0.135837
C26   C     C_R   0.516878 0.275233 0.461462 0.111900
C27   C     C_R   0.955421 0.736993 0.550139 0.086889
C28   C     C_R   0.948807 0.753839 0.477531 0.088200
C29   C     C_R   0.502407 0.167105 0.426638 0.004351
C30   C     C_R   0.496935 0.176709 0.573919 0.014351
C31   C     C_R   0.986342 0.677310 0.429871 0.019269
C32   C     C_R   0.006174 0.657259 0.573930 0.021074
C33   C     C_R   0.496457 0.060720 0.466025 0.099448
C34   C     C_R   0.485986 0.067069 0.539749 0.115386
C35   C     C_R   0.036078 0.595068 0.454100 0.074085
C36   C     C_R   0.044031 0.581009 0.526758 0.093035
C37   C     C_R   0.820080 0.411376 0.551443 -0.175492
C38   C     C_R   0.245739 0.250194 0.487011 -0.165068
C39   C     C_R   0.295370 0.806158 0.528477 -0.187844
C40   C     C_R   0.727255 0.830368 0.468045 -0.171711
C41   C     C_R   0.832670 0.432869 0.480010 0.102262
C42   C     C_R   0.241517 0.277630 0.560549 0.115768
C43   C     C_R   0.308818 0.830360 0.457454 0.120738
C44   C     C_R   0.711666 0.858600 0.536521 0.091146
C45   C     C_R   0.525660 0.177581 0.845561 0.531898
C46   C     C_R   0.475614 0.176854 0.155773 0.538038
C47   C     C_R   0.025687 0.677568 0.845587 0.534864
C48   C     C_R   0.975602 0.676860 0.155761 0.537953
C49   C     C_R   0.778421 0.478497 0.437019 0.009512
C50   C     C_R   0.251573 0.398780 0.582600 0.016560
C51   C     C_R   0.255887 0.895571 0.418782 0.014331
C52   C     C_R   0.726612 0.971998 0.564295 0.016223
C53   C     C_R   0.713708 0.506473 0.468237 -0.198823
C54   C     C_R   0.272280 0.482719 0.533597 -0.178029
C55   C     C_R   0.190240 0.917166 0.449492 -0.190420
C56   C     C_R   0.750534 0.061543 0.517821 -0.176542
C57   C     C_R   0.698627 0.478086 0.539263 0.101137
C58   C     C_R   0.282346 0.451674 0.463645 0.099315
C59   C     C_R   0.177534 0.888053 0.520494 0.094085
C60   C     C_R   0.757224 0.037356 0.444111 0.101835
C61   C     C_R   0.752871 0.425007 0.580385 0.012565
C62   C     C_R   0.266354 0.337935 0.438058 0.033305
C63   C     C_R   0.232324 0.838414 0.561798 0.007166
C64   C     C_R   0.747117 0.917310 0.420487 0.027619
C65   C     C_R   0.738569 0.362597 0.853081 0.551022
C66   C     C_R   0.261217 0.365397 0.148322 0.548054
C67   C     C_R   0.238646 0.862819 0.852968 0.551460
C68   C     C_R   0.761186 0.865494 0.148373 0.533269
C69   C     C_R   0.710832 0.998218 0.639415 0.571831
C70   C     C_R   0.272887 0.952957 0.351650 0.546810
C71   C     C_R   0.229583 0.449516 0.650617 0.541082
C72   C     C_R   0.789823 0.499441 0.360557 0.580500
C73   C     C_R   0.529162 0.177929 0.644809 0.553854
C74   C     C_R   0.470363 0.175818 0.355616 0.536988
C75   C     C_R   0.032066 0.674652 0.644442 0.594949
C76   C     C_R   0.967044 0.678219 0.356397 0.568445
C77   C     C_R   0.739392 0.363730 0.647154 0.546804
C78   C     C_R   0.274227 0.310815 0.361218 0.572818
C79   C     C_R   0.226027 0.813027 0.638533 0.573515
C80   C     C_R   0.758859 0.868670 0.350059 0.540774
C81   C     C_2   0.487063 0.165135 0.909969 -0.128401
C82   C     C_2   0.518745 0.164764 0.094126 -0.092669
C83   C     C_2   0.987100 0.665035 0.909995 -0.128869
C84   C     C_2   0.018751 0.664786 0.094127 -0.091366
C85   C     C_2   0.487192 0.132400 0.034702 -0.137272
C86   C     C_2   0.523632 0.145304 0.968470 -0.149057
C87   C     C_2   0.987228 0.632301 0.034715 -0.138322
C88   C     C_2   0.023673 0.645182 0.968487 -0.150738
C89   C     C_R   0.695483 0.459607 0.962603 -0.163879
C90   C     C_R   0.309315 0.442677 0.036732 -0.155388
C91   C     C_R   0.195821 0.960451 0.962341 -0.165486
C92   C     C_R   0.809212 0.943035 0.036853 -0.153819
Cr1   Cr    Cr6+3 0.769270 0.163730 0.750710 1.019396
Cr2   Cr    Cr6+3 0.230730 0.163730 0.249290 1.009017
Cr3   Cr    Cr6+3 0.269270 0.663730 0.750710 0.997198
Cr4   Cr    Cr6+3 0.730730 0.663730 0.249290 0.993548
Cr5   Cr    Cr6+3 0.612620 0.009790 0.748780 0.994703
Cr6   Cr    Cr6+3 0.387380 0.009790 0.251220 0.967332
Cr7   Cr    Cr6+3 0.112620 0.509790 0.748780 0.996822
Cr8   Cr    Cr6+3 0.887380 0.509790 0.251220 1.001263
Cr9   Cr    Cr6+3 0.614160 0.322500 0.747710 0.971332
Cr10  Cr    Cr6+3 0.385840 0.322500 0.252290 0.988038
Cr11  Cr    Cr6+3 0.114160 0.822500 0.747710 1.010243
Cr12  Cr    Cr6+3 0.885840 0.822500 0.252290 0.998507
H1    H     H_    0.431803 0.109386 0.034443 0.140290
H2    H     H_    0.580684 0.145671 0.967735 0.149079
H3    H     H_    0.931847 0.609234 0.034459 0.139911
H4    H     H_    0.080725 0.645572 0.967753 0.148955
H5    H     H_    0.672969 0.546751 0.436061 0.121126
H6    H     H_    0.282793 0.573751 0.550056 0.127055
H7    H     H_    0.149098 0.960283 0.418884 0.121998
H8    H     H_    0.759352 0.151468 0.538026 0.126033
H9    H     H_    0.572250 0.197140 0.094793 0.084975
H10   H     H_    0.430228 0.169420 0.909749 0.071000
H11   H     H_    0.072227 0.697287 0.094780 0.086624
H12   H     H_    0.930266 0.669248 0.909782 0.072677
H13   H     H_    0.649920 0.492713 0.934176 0.128801
H14   H     H_    0.361009 0.445646 0.060454 0.135704
H15   H     H_    0.150212 0.993443 0.933942 0.129073
H16   H     H_    0.860911 0.945986 0.060565 0.136357
H17   H     H_    0.853019 0.321652 0.064313 0.132717
H18   H     H_    0.125597 0.429836 0.951315 0.148720
H19   H     H_    0.353602 0.823121 0.063961 0.132634
H20   H     H_    0.625493 0.930126 0.951428 0.147512
H21   H     H_    0.862696 0.375450 0.583188 0.131012
H22   H     H_    0.235791 0.159782 0.468383 0.114576
H23   H     H_    0.336495 0.762499 0.558717 0.126521
H24   H     H_    0.718087 0.739387 0.450576 0.138806
O1    O     O_R   0.784320 0.290430 0.830510 -0.465521
O2    O     O_R   0.215680 0.290430 0.169490 -0.497368
O3    O     O_R   0.284320 0.790430 0.830510 -0.464372
O4    O     O_R   0.715680 0.790430 0.169490 -0.500291
O5    O     O_R   0.554640 0.080370 0.673500 -0.498789
O6    O     O_R   0.445360 0.080370 0.326500 -0.523390
O7    O     O_R   0.054640 0.580370 0.673500 -0.492722
O8    O     O_R   0.945360 0.580370 0.326500 -0.510708
O9    O     O_R   0.543920 0.282180 0.666790 -0.508883
O10   O     O_R   0.456080 0.282180 0.333210 -0.512604
O11   O     O_R   0.043920 0.782180 0.666790 -0.481310
O12   O     O_R   0.956080 0.782180 0.333210 -0.503686
O13   O     O_R   0.679040 0.374160 0.674430 -0.493640
O14   O     O_R   0.320960 0.374160 0.325570 -0.473443
O15   O     O_R   0.179040 0.874160 0.674430 -0.483624
O16   O     O_R   0.820960 0.874160 0.325570 -0.473002
O17   O     O_3   0.665350 0.165340 0.749070 -0.274330
O18   O     O_3   0.334650 0.165340 0.250930 -0.269478
O19   O     O_3   0.165350 0.665340 0.749070 -0.271803
O20   O     O_3   0.834650 0.665340 0.250930 -0.264586
O21   O     O_R   0.762640 0.040960 0.825200 -0.462926
O22   O     O_R   0.237360 0.040960 0.174800 -0.459617
O23   O     O_R   0.262640 0.540960 0.825200 -0.466829
O24   O     O_R   0.737360 0.540960 0.174800 -0.457452
O25   O     O_R   0.667400 0.923970 0.829950 -0.538102
O26   O     O_R   0.332600 0.923970 0.170050 -0.545941
O27   O     O_R   0.167400 0.423970 0.829950 -0.545626
O28   O     O_R   0.832600 0.423970 0.170050 -0.540679
O29   O     O_R   0.553960 0.081340 0.821780 -0.503718
O30   O     O_R   0.446040 0.081340 0.178220 -0.499371
O31   O     O_R   0.053960 0.581340 0.821780 -0.504857
O32   O     O_R   0.946040 0.581340 0.178220 -0.500205
O33   O     O_R   0.543180 0.283240 0.826740 -0.533667
O34   O     O_R   0.456820 0.283240 0.173260 -0.525942
O35   O     O_R   0.043180 0.783240 0.826740 -0.525707
O36   O     O_R   0.956820 0.783240 0.173260 -0.527078
O37   O     O_R   0.678360 0.375140 0.822710 -0.519297
O38   O     O_R   0.321640 0.375140 0.177290 -0.507816
O39   O     O_R   0.178360 0.875140 0.822710 -0.513417
O40   O     O_R   0.821640 0.875140 0.177290 -0.515821
O41   O     O_R   0.785050 0.289380 0.670560 -0.546285
O42   O     O_R   0.214950 0.289380 0.329440 -0.526428
O43   O     O_R   0.285050 0.789380 0.670560 -0.563211
O44   O     O_R   0.714950 0.789380 0.329440 -0.558140
O45   O     O_R   0.763320 0.039990 0.676930 -0.517920
O46   O     O_R   0.236680 0.039990 0.323070 -0.532457
O47   O     O_R   0.263320 0.539990 0.676930 -0.541237
O48   O     O_R   0.736680 0.539990 0.323070 -0.538281
O49   O     O_R   0.668130 0.922920 0.670000 -0.477340
O50   O     O_R   0.331870 0.922920 0.330000 -0.507297
O51   O     O_R   0.168130 0.422920 0.670000 -0.486423
O52   O     O_R   0.831870 0.422920 0.330000 -0.497443
N1    N     N_2   0.901314 0.413912 0.453085 -0.477507
H25   H     H_    0.937615 0.449701 0.486934 0.247062
C93   C     C_3   0.919363 0.290287 0.436401 -0.295359
H26   H     H_    0.915839 0.233326 0.484521 0.113881
H27   H     H_    0.973496 0.285688 0.415280 0.125765
H28   H     H_    0.885266 0.254325 0.394203 0.202298
N2    N     N_2   0.227610 0.182888 0.609476 -0.525495
H29   H     H_    0.227332 0.099279 0.585771 0.254840
C94   C     C_3   0.265786 0.180970 0.676069 -0.306789
H30   H     H_    0.241640 0.243269 0.715118 0.174442
H31   H     H_    0.321550 0.203771 0.667950 0.111076
H32   H     H_    0.263515 0.089564 0.699465 0.151837
N3    N     N_2   0.379585 0.803590 0.432710 -0.498285
H33   H     H_    0.413689 0.779708 0.472527 0.229813
C95   C     C_3   0.399952 0.741877 0.366326 -0.248920
H34   H     H_    0.445596 0.682652 0.375382 0.078511
H35   H     H_    0.424920 0.802575 0.327677 0.163277
H36   H     H_    0.355420 0.698186 0.338909 0.172234
N4    N     N_2   0.667462 0.779334 0.571865 -0.499848
H37   H     H_    0.680900 0.692691 0.561620 0.259436
C96   C     C_3   0.594294 0.808111 0.560674 -0.261818
H38   H     H_    0.570621 0.745816 0.521278 0.106885
H39   H     H_    0.587871 0.901374 0.541827 0.208907
H40   H     H_    0.566204 0.805024 0.611998 0.176133
N5    N     N_2   0.626971 0.491655 0.562539 -0.466612
H41   H     H_    0.596727 0.526463 0.522716 0.224222
C97   C     C_3   0.606383 0.549875 0.629228 -0.225833
H42   H     H_    0.563429 0.614428 0.620397 0.077552
H43   H     H_    0.651136 0.591556 0.657610 0.151886
H44   H     H_    0.579664 0.486655 0.664586 0.220725
N6    N     N_2   0.323048 0.527592 0.422903 -0.508207
H45   H     H_    0.309334 0.615040 0.430919 0.263152
C98   C     C_3   0.396532 0.498287 0.430355 -0.259862
H46   H     H_    0.421580 0.564259 0.466201 0.094885
H47   H     H_    0.421511 0.496407 0.377405 0.191437
H48   H     H_    0.404573 0.406989 0.452160 0.184136
N7    N     N_2   0.108265 0.899170 0.547278 -0.472074
H49   H     H_    0.072566 0.863348 0.512360 0.245159
C99   C     C_3   0.086903 0.018814 0.569194 -0.278204
H50   H     H_    0.116857 0.048062 0.616332 0.194428
H51   H     H_    0.031068 0.017927 0.585295 0.137346
H52   H     H_    0.093350 0.083867 0.525141 0.113058
N8    N     N_2   0.771815 0.134170 0.396914 -0.532395
H53   H     H_    0.771635 0.217065 0.421581 0.256988
C100  C     C_3   0.736281 0.137319 0.328910 -0.306680
H54   H     H_    0.764898 0.081464 0.289508 0.168315
H55   H     H_    0.735517 0.230690 0.308217 0.151744
H56   H     H_    0.681360 0.106799 0.333901 0.116072
N9    N     N_2   0.643298 0.535465 0.071564 -0.486208
H57   H     H_    0.619225 0.599089 0.040023 0.233884
C101  C     C_3   0.592875 0.460853 0.107150 -0.284585
H58   H     H_    0.562009 0.409730 0.067342 0.140481
H59   H     H_    0.556428 0.518589 0.138363 0.132351
H60   H     H_    0.619422 0.397704 0.144162 0.149741
N10   N     N_2   0.362867 0.493894 0.924138 -0.486194
H61   H     H_    0.402234 0.532497 0.953811 0.227654
C102  C     C_3   0.388804 0.413914 0.869275 -0.273959
H62   H     H_    0.443004 0.387278 0.882515 0.154807
H63   H     H_    0.390158 0.462175 0.817930 0.159578
H64   H     H_    0.356196 0.332119 0.863388 0.120275
N11   N     N_2   0.143548 0.035972 0.071297 -0.486767
H65   H     H_    0.119707 0.100017 0.039876 0.234109
C103  C     C_3   0.092843 0.960929 0.106136 -0.284521
H66   H     H_    0.062419 0.909998 0.065881 0.139843
H67   H     H_    0.056036 0.018297 0.137147 0.133912
H68   H     H_    0.119119 0.897574 0.143215 0.151760
N12   N     N_2   0.862799 0.993994 0.924262 -0.490439
H69   H     H_    0.902179 0.032508 0.953957 0.227664
C104  C     C_3   0.888776 0.913606 0.869637 -0.264880
H70   H     H_    0.942982 0.887104 0.882968 0.153761
H71   H     H_    0.890127 0.961471 0.818168 0.173672
H72   H     H_    0.856184 0.831754 0.863965 0.125174
N13   N     N_2   0.868550 0.303837 0.930230 -0.465687
H73   H     H_    0.893957 0.239250 0.959944 0.234204
C105  C     C_3   0.917170 0.388284 0.900400 -0.280546
H74   H     H_    0.956214 0.339164 0.867393 0.145309
H75   H     H_    0.945210 0.434948 0.943876 0.135860
H76   H     H_    0.889542 0.454775 0.866316 0.151347
N14   N     N_2   0.121610 0.432615 0.090645 -0.510225
H77   H     H_    0.129224 0.462459 0.141959 0.255016
C106  C     C_3   0.069618 0.339323 0.084265 -0.293132
H78   H     H_    0.086621 0.259037 0.114551 0.170521
H79   H     H_    0.059983 0.314481 0.028013 0.127945
H80   H     H_    0.019434 0.372279 0.107132 0.152487
N15   N     N_2   0.368826 0.804496 0.929873 -0.465603
H81   H     H_    0.394326 0.740090 0.959652 0.233902
C107  C     C_3   0.417319 0.888504 0.899403 -0.281218
H82   H     H_    0.455991 0.838968 0.866161 0.143781
H83   H     H_    0.445812 0.935263 0.942531 0.136589
H84   H     H_    0.389524 0.954919 0.865399 0.149047
N16   N     N_2   0.621544 0.932831 0.090817 -0.510496
H85   H     H_    0.629209 0.962620 0.142138 0.249335
C108  C     C_3   0.569656 0.839361 0.084504 -0.294810
H86   H     H_    0.586934 0.758931 0.114499 0.169753
H87   H     H_    0.559766 0.814893 0.028242 0.129021
H88   H     H_    0.519549 0.871943 0.107727 0.150329
N17   N     N_2   0.484879 0.397847 0.567195 -0.487392
H89   H     H_    0.491950 0.473928 0.538294 0.228469
C109  C     C_3   0.422730 0.406152 0.611100 -0.300982
H90   H     H_    0.437049 0.404245 0.668082 0.159597
H91   H     H_    0.386314 0.331853 0.599109 0.142060
H92   H     H_    0.395596 0.493243 0.601808 0.130564
N18   N     N_2   0.543537 0.373363 0.421029 -0.507140
H93   H     H_    0.537858 0.460521 0.437623 0.218455
C110  C     C_3   0.604530 0.348155 0.377583 -0.279571
H94   H     H_    0.619059 0.429891 0.347827 0.151386
H95   H     H_    0.593821 0.277253 0.337643 0.142446
H96   H     H_    0.648723 0.317741 0.411420 0.159838
N19   N     N_2   0.913870 0.802919 0.600259 -0.507551
H97   H     H_    0.900183 0.889783 0.587288 0.257464
C111  C     C_3   0.857213 0.734781 0.630578 -0.299071
H98   H     H_    0.878026 0.654382 0.658585 0.139651
H99   H     H_    0.820550 0.705328 0.588246 0.150793
H100  H     H_    0.828218 0.791436 0.669520 0.168364
N20   N     N_2   0.905300 0.848543 0.452265 -0.459837
H101  H     H_    0.859887 0.857483 0.480479 0.255360
C112  C     C_3   0.940108 0.962857 0.443726 -0.268179
H102  H     H_    0.946014 0.008554 0.495725 0.097065
H103  H     H_    0.908096 0.021416 0.408759 0.175789
H104  H     H_    0.992523 0.951099 0.419004 0.149985
N21   N     N_2   0.510640 0.948319 0.433356 -0.552290
H105  H     H_    0.471900 0.924749 0.399758 0.314811
C113  C     C_3   0.577182 0.939235 0.397478 -0.331849
H106  H     H_    0.573748 0.978526 0.343487 0.138461
H107  H     H_    0.592304 0.843069 0.392539 0.168061
H108  H     H_    0.617443 0.988015 0.428111 0.167257
N22   N     N_2   0.465870 0.964302 0.579763 -0.518666
H109  H     H_    0.463048 0.885378 0.551777 0.252321
C114  C     C_3   0.406534 0.980109 0.626698 -0.296805
H110  H     H_    0.415684 0.051948 0.666426 0.138677
H111  H     H_    0.398490 0.895833 0.656532 0.168540
H112  H     H_    0.358810 0.002294 0.595543 0.159079
N23   N     N_2   0.079248 0.527491 0.406525 -0.521849
H113  H     H_    0.052811 0.480754 0.367707 0.274437
C115  C     C_3   0.138331 0.593589 0.379500 -0.305745
H114  H     H_    0.120104 0.668609 0.345217 0.128785
H115  H     H_    0.172233 0.532627 0.347551 0.182060
H116  H     H_    0.169887 0.630517 0.424026 0.158712
N24   N     N_2   0.089438 0.488948 0.552240 -0.447122
H117  H     H_    0.135028 0.481810 0.523720 0.277183
C116  C     C_3   0.056285 0.373144 0.560002 -0.266171
H118  H     H_    0.091749 0.309788 0.587875 0.179340
H119  H     H_    0.045511 0.333790 0.507156 0.127847
H120  H     H_    0.007153 0.381640 0.591217 0.133496

loop_
_geom_bond_atom_site_label_1
_geom_bond_atom_site_label_2
_ccdc_geom_bond_type
C105  H75   S    
Cr2   O18   S    
C55   C59   A    
C112  H103  S    
C111  H98   S    
C32   C75   S    
C13   H17   S    
C113  H107  S    
N21   H105  S    
C88   H4    S    
C53   H5    S    
N16   H85   S    
C40   H24   S    
C29   C33   A    
C108  H88   S    
C9    C13   A    
C11   C15   A    
N8    H53   S    
C97   H44   S    
C8    C92   A    
C47   C83   S    
C81   C86   D    
C35   N23   S    
C95   H36   S    
C114  H111  S    
C83   C88   D    
N4    H37   S    
C69   O45   A    
C41   C49   A    
N1    C93   S    
C115  H115  S    
C59   N7    S    
Cr9   O9    S    
N1    H25   S    
C17   C21   A    
Cr12  O12   S    
C19   C23   A    
C93   H26   S    
N9    H57   S    
C113  H106  S    
C16   C20   A    
C7    N11   S    
Cr3   O19   S    
C18   N14   S    
C80   O44   A    
C82   C85   D    
N13   C105  S    
C67   O39   A    
Cr7   O19   S    
C55   H7    S    
Cr5   O17   S    
C45   C81   S    
N14   C106  S    
Cr11  O15   S    
Cr12  O36   S    
C57   C61   A    
C48   O36   A    
Cr2   O22   S    
C36   N24   S    
C59   C63   A    
C60   C64   A    
C25   C26   A    
C110  H95   S    
Cr2   O42   S    
C31   C76   S    
C73   O9    A    
C49   C53   A    
C74   O6    A    
Cr1   O45   S    
C101  H60   S    
C51   C55   A    
C109  H91   S    
C16   H20   S    
C77   O13   A    
C95   H34   S    
C87   H3    S    
N3    H33   S    
N22   C114  S    
C5    C89   A    
C38   C62   A    
C42   N2    S    
C2    O22   A    
Cr6   O26   S    
Cr11  O39   S    
Cr7   O31   S    
Cr5   O5    S    
C100  H56   S    
Cr11  O19   S    
N20   C112  S    
C47   O31   A    
C85   C86   S    
C48   O32   A    
Cr9   O17   S    
C104  H70   S    
Cr2   O2    S    
C32   C36   A    
C111  H99   S    
C106  H78   S    
C107  H84   S    
N23   C115  S    
C99   H51   S    
Cr4   O24   S    
C78   O42   A    
C45   O33   A    
C54   H6    S    
N11   H65   S    
C23   C67   S    
C94   H31   S    
Cr3   O47   S    
C46   C82   S    
C79   O15   A    
C8    N12   S    
C61   C77   S    
C80   O16   A    
C81   H10   S    
Cr6   O50   S    
C8    C12   A    
C116  H120  S    
Cr10  O38   S    
C102  H62   S    
C96   H39   S    
C86   H2    S    
C1    C12   S    
C2    C11   S    
C24   C92   A    
C38   H22   S    
C100  H54   S    
N5    C97   S    
C4    O24   A    
C30   C34   A    
C12   C16   A    
C45   O29   A    
C10   C14   A    
C93   H28   S    
C29   C74   S    
N7    H49   S    
C6    C90   A    
C5    C9    A    
C33   N21   S    
C109  H90   S    
C103  H68   S    
N19   H97   S    
C70   O46   A    
C20   N16   S    
C42   C50   A    
C68   O40   A    
C89   H13   S    
C116  H118  S    
N22   H109  S    
C91   H15   S    
C72   O52   A    
Cr8   O52   S    
C60   N8    S    
C115  H116  S    
C18   C22   A    
C62   C78   S    
C82   H9    S    
C106  H80   S    
C107  H82   S    
N8    C100  S    
C13   C17   A    
C43   N3    S    
C102  H63   S    
C92   H16   S    
C98   H47   S    
C75   O11   A    
C99   H52   S    
C108  H87   S    
C5    N9    S    
C37   C41   A    
C40   C44   A    
C102  H64   S    
N18   H93   S    
C97   H43   S    
Cr10  O14   S    
C4    C9    S    
C105  H74   S    
C95   H35   S    
C58   C62   A    
C87   C88   S    
C14   H18   S    
Cr12  O20   S    
Cr1   O21   S    
C35   C36   A    
C116  H119  S    
C21   C89   A    
C98   H46   S    
C15   C19   A    
C74   O10   A    
Cr1   O41   S    
C50   C54   A    
C90   H14   S    
C78   O14   A    
C75   O7    A    
C103  H66   S    
C65   O37   A    
C96   H38   S    
C79   O43   A    
C68   O4    A    
C52   C69   S    
C69   O49   A    
Cr6   O30   S    
C104  H72   S    
Cr7   O27   S    
N10   H61   S    
C1    O21   A    
Cr5   O25   S    
C19   N15   S    
C47   O35   A    
Cr8   O28   S    
N12   C104  S    
C105  H76   S    
C115  H114  S    
Cr3   O3    S    
C64   C80   S    
C41   N1    S    
Cr1   O1    S    
C113  H108  S    
N21   C113  S    
Cr4   O20   S    
C97   H42   S    
C99   H50   S    
N15   C107  S    
C53   C57   A    
N5    H41   S    
C56   C60   A    
C50   C71   S    
Cr7   O51   S    
C110  H94   S    
Cr5   O49   S    
N6    H45   S    
Cr10  O34   S    
C7    C91   A    
C3    O27   A    
C22   C90   A    
Cr7   O7    S    
C101  H59   S    
C27   N19   S    
C1    O25   A    
C34   N22   S    
C4    O28   A    
C31   C35   A    
Cr3   O23   S    
N20   H101  S    
C98   H48   S    
C25   C30   A    
Cr4   O48   S    
C21   C65   S    
C27   C32   A    
C3    O23   A    
C28   C31   A    
C6    C10   A    
C65   O1    A    
N2    H29   S    
N9    C101  S    
C107  H83   S    
C43   C51   A    
N23   H113  S    
N13   H73   S    
C71   O47   A    
C72   O48   A    
C94   H30   S    
C24   C68   S    
N24   H117  S    
N4    C96   S    
Cr3   O43   S    
C46   O30   A    
C6    N10   S    
N18   C110  S    
C112  H102  S    
C14   C18   A    
C84   C87   D    
C76   O8    A    
C63   C79   S    
C114  H110  S    
C7    C11   A    
C17   N13   S    
C15   H19   S    
C38   C42   A    
C110  H96   S    
C93   H27   S    
C57   N5    S    
Cr10  O10   S    
C109  H92   S    
C71   O51   A    
C22   C66   S    
C100  H55   S    
Cr9   O13   S    
C20   C24   A    
C103  H67   S    
C49   C72   S    
Cr12  O16   S    
Cr1   O17   S    
C51   C70   S    
N15   H81   S    
Cr4   O4    S    
N10   C102  S    
C85   H1    S    
C37   H21   S    
C76   O12   A    
C104  H71   S    
C39   H23   S    
C66   O38   A    
C111  H100  S    
C25   N17   S    
C106  H79   S    
C30   C73   S    
C70   O50   A    
C39   C43   A    
C112  H104  S    
Cr6   O18   S    
N3    C95   S    
C48   C84   S    
N11   C103  S    
Cr5   O29   S    
C94   H32   S    
Cr9   O37   S    
Cr11  O11   S    
Cr12  O40   S    
Cr8   O32   S    
C33   C34   A    
C26   N18   S    
Cr2   O46   S    
N6    C98   S    
C73   O5    A    
C84   H11   S    
N17   C109  S    
C46   O34   A    
C96   H40   S    
C23   C91   A    
N14   H77   S    
C27   C28   A    
C54   C58   A    
C114  H112  S    
N16   C108  S    
C83   H12   S    
C67   O3    A    
C37   C61   A    
N12   H69   S    
C44   N4    S    
N7    C99   S    
C39   C63   A    
Cr6   O6    S    
Cr11  O35   S    
C40   C64   A    
Cr9   O33   S    
C3    C10   S    
C2    O26   A    
Cr10  O18   S    
C44   C52   A    
Cr8   O20   S    
N19   C111  S    
C58   N6    S    
N2    C94   S    
Cr8   O8    S    
C26   C29   A    
C77   O41   A    
Cr4   O44   S    
C101  H58   S    
N24   C116  S    
C28   N20   S    
N17   H89   S    
C56   H8    S    
C52   C56   A    
C66   O2    A    
C108  H86   S    
