data_mof_unit_1789.cif
_audit_creation_date              2012-12-11T15:23:44-0500
_audit_creation_method            fapswitch 2.2
_symmetry_space_group_name_H-M    P1
_symmetry_Int_Tables_number       1
_space_group_crystal_system       triclinic
_cell_length_a                    17.301232
_cell_length_b                    24.280905
_cell_length_c                    14.962208
_cell_angle_alpha                 89.797385
_cell_angle_beta                  125.289795
_cell_angle_gamma                 90.155372
_cell_volume                      5130.41936004

loop_
_atom_site_label
_atom_site_type_symbol
_atom_type_description
_atom_site_fract_x
_atom_site_fract_y
_atom_site_fract_z
_atom_type_partial_charge
C1    C     C_R   0.360369 0.345574 0.912663 -0.126643
C2    C     C_R   0.642950 0.346460 0.089286 -0.124604
C3    C     C_R   0.861870 0.845290 0.912336 -0.123885
C4    C     C_R   0.144349 0.846901 0.089515 -0.127520
C5    C     C_R   0.315645 0.640808 0.002090 0.061205
C6    C     C_R   0.682377 0.646504 0.002148 0.062804
C7    C     C_R   0.822971 0.150830 0.999395 0.063379
C8    C     C_R   0.187749 0.138029 0.999778 0.060601
C9    C     C_R   0.562241 0.498743 0.364895 0.050951
C10   C     C_R   0.541637 0.498336 0.714985 0.041393
C11   C     C_R   0.958646 0.998084 0.285375 0.038703
C12   C     C_R   0.935116 0.998799 0.633925 0.047732
C13   C     C_R   0.176188 0.499636 0.673756 0.097554
C14   C     C_R   0.795463 0.499139 0.369474 0.097382
C15   C     C_R   0.675884 0.999534 0.675142 0.097003
C16   C     C_R   0.294583 0.998962 0.369749 0.099673
C17   C     C_2   0.925095 0.458871 0.541771 -0.130388
C18   C     C_2   0.025638 0.466025 0.623626 -0.122372
C19   C     C_2   0.424538 0.958009 0.540346 -0.133191
C20   C     C_2   0.525075 0.964919 0.622773 -0.120949
C21   C     C_2   0.871363 0.502412 0.485967 -0.178090
C22   C     C_2   0.074373 0.500502 0.603413 -0.193909
C23   C     C_2   0.370764 0.001805 0.486123 -0.179650
C24   C     C_2   0.574023 0.000269 0.604415 -0.192919
C25   C     C_R   0.154808 0.681451 0.909826 -0.219608
C26   C     C_R   0.845021 0.685626 0.097479 -0.220408
C27   C     C_R   0.660133 0.188597 0.905034 -0.220689
C28   C     C_R   0.348572 0.179807 0.093895 -0.218505
C29   C     C_R   0.598182 0.224779 0.905866 0.328044
C30   C     C_R   0.404339 0.222054 0.095150 0.332291
C31   C     C_R   0.098634 0.722881 0.909203 0.332510
C32   C     C_R   0.905710 0.723497 0.097191 0.327958
C33   C     C_R   0.632370 0.255018 0.002420 0.094415
C34   C     C_R   0.365468 0.255021 0.000084 0.092718
C35   C     C_R   0.138280 0.756087 0.003701 0.092948
C36   C     C_R   0.871125 0.754070 0.000466 0.094185
C37   C     C_R   0.710625 0.234676 0.102001 -0.221666
C38   C     C_R   0.287224 0.234948 0.900116 -0.228802
C39   C     C_R   0.217529 0.736534 0.103483 -0.224896
C40   C     C_R   0.793563 0.733368 0.900799 -0.225130
C41   C     C_R   0.270006 0.693901 0.104507 -0.159900
C42   C     C_R   0.736209 0.693964 0.900822 -0.161610
C43   C     C_R   0.769945 0.197308 0.101515 -0.163321
C44   C     C_R   0.235494 0.191377 0.898582 -0.157996
C45   C     C_R   0.403591 0.625155 0.092478 -0.128201
C46   C     C_R   0.592667 0.633421 0.910903 -0.127712
C47   C     C_R   0.910745 0.135301 0.090143 -0.130545
C48   C     C_R   0.098405 0.124090 0.908610 -0.126509
C49   C     C_R   0.244586 0.670702 0.005661 0.093068
C50   C     C_R   0.755862 0.675076 0.000422 0.094496
C51   C     C_R   0.750257 0.179362 0.001605 0.095219
C52   C     C_R   0.259886 0.167980 0.997192 0.092580
C53   C     C_R   0.601395 0.547637 0.621694 -0.166355
C54   C     C_R   0.606079 0.547844 0.532599 -0.170495
C55   C     C_R   0.892362 0.047648 0.465842 -0.172124
C56   C     C_R   0.898114 0.047342 0.377467 -0.165423
C57   C     C_R   0.595630 0.498179 0.479192 0.143619
C58   C     C_R   0.585055 0.497870 0.655844 0.144531
C59   C     C_R   0.915276 0.997574 0.344621 0.144276
C60   C     C_R   0.902517 0.998087 0.519858 0.141683
C61   C     C_R   0.601906 0.448078 0.529765 -0.171224
C62   C     C_R   0.596529 0.447919 0.618280 -0.166989
C63   C     C_R   0.904166 0.947649 0.383083 -0.167949
C64   C     C_R   0.897636 0.947904 0.470754 -0.167676
C65   C     C_R   0.544274 0.453180 0.300604 -0.116264
C66   C     C_R   0.515874 0.452642 0.747556 -0.125659
C67   C     C_R   0.984366 0.952483 0.252933 -0.117985
C68   C     C_R   0.952486 0.953223 0.698277 -0.121544
C69   C     C_R   0.233000 0.545409 0.716549 -0.219062
C70   C     C_R   0.752053 0.544784 0.304350 -0.239804
C71   C     C_R   0.732622 0.045385 0.717767 -0.216783
C72   C     C_R   0.251781 0.044689 0.304630 -0.238764
C73   C     C_R   0.548020 0.544780 0.302494 -0.136904
C74   C     C_R   0.509555 0.544480 0.738844 -0.121109
C75   C     C_R   0.990331 0.044339 0.260845 -0.117767
C76   C     C_R   0.951039 0.044827 0.696815 -0.138073
C77   C     C_R   0.232830 0.453415 0.719645 0.336632
C78   C     C_R   0.748195 0.453195 0.305353 0.359606
C79   C     C_R   0.732779 0.953347 0.720198 0.338211
C80   C     C_R   0.247033 0.953105 0.305641 0.347090
C81   C     C_R   0.312491 0.628127 0.909404 -0.122464
C82   C     C_R   0.687766 0.628327 0.093651 -0.129850
C83   C     C_R   0.816598 0.132802 0.907633 -0.124876
C84   C     C_R   0.190380 0.124648 0.092175 -0.127170
C85   C     C_R   0.444044 0.347503 0.093370 -0.132777
C86   C     C_R   0.553636 0.346690 0.908209 -0.143429
C87   C     C_R   0.946928 0.846635 0.092804 -0.146598
C88   C     C_R   0.056863 0.847553 0.907948 -0.129426
C89   C     C_R   0.389637 0.313560 0.003519 0.054487
C90   C     C_R   0.609518 0.313471 0.998980 0.057231
C91   C     C_R   0.893648 0.812722 0.003050 0.057305
C92   C     C_R   0.113740 0.814416 0.999108 0.055059
H1    H     H_    0.333872 0.329650 0.832834 0.104242
H2    H     H_    0.679565 0.332576 0.172465 0.104385
H3    H     H_    0.834714 0.829887 0.831999 0.102269
H4    H     H_    0.179088 0.832819 0.172481 0.105291
H5    H     H_    0.896641 0.543454 0.519520 0.135750
H6    H     H_    0.039761 0.529488 0.535502 0.139055
H7    H     H_    0.396058 0.042684 0.520656 0.136583
H8    H     H_    0.539524 0.029906 0.537639 0.138453
H9    H     H_    0.129643 0.659122 0.835135 0.128861
H10   H     H_    0.866842 0.665762 0.173548 0.126877
H11   H     H_    0.638200 0.168693 0.829158 0.127974
H12   H     H_    0.373045 0.157828 0.168941 0.127049
H13   H     H_    0.733962 0.252126 0.180084 0.124407
H14   H     H_    0.258126 0.256194 0.823423 0.127849
H15   H     H_    0.246884 0.757552 0.180168 0.125704
H16   H     H_    0.769147 0.751846 0.822914 0.126222
H17   H     H_    0.335605 0.684102 0.181812 0.115164
H18   H     H_    0.672602 0.682594 0.822827 0.111245
H19   H     H_    0.834336 0.186512 0.179311 0.111566
H20   H     H_    0.170881 0.180966 0.820806 0.115301
H21   H     H_    0.601071 0.586781 0.655708 0.106074
H22   H     H_    0.608192 0.587218 0.500222 0.106727
H23   H     H_    0.889519 0.087015 0.497285 0.107617
H24   H     H_    0.898304 0.086455 0.342834 0.106672
H25   H     H_    0.600874 0.408830 0.495331 0.108810
H26   H     H_    0.591530 0.408591 0.648608 0.109251
H27   H     H_    0.910178 0.908311 0.354069 0.109290
H28   H     H_    0.899040 0.908673 0.505911 0.108194
H29   H     H_    0.431486 0.628887 0.177812 0.093878
H30   H     H_    0.560008 0.647672 0.828549 0.083139
H31   H     H_    0.944728 0.149061 0.172920 0.083529
H32   H     H_    0.071032 0.128179 0.823423 0.093793
H33   H     H_    0.557666 0.410552 0.325734 0.090364
H34   H     H_    0.526471 0.409809 0.738970 0.092892
H35   H     H_    0.973850 0.909621 0.261945 0.092232
H36   H     H_    0.936018 0.910742 0.672818 0.084351
H37   H     H_    0.212245 0.587326 0.688948 0.114174
H38   H     H_    0.762010 0.586807 0.332923 0.115348
H39   H     H_    0.711417 0.087286 0.690627 0.112513
H40   H     H_    0.262098 0.086749 0.333124 0.117322
H41   H     H_    0.567505 0.586734 0.330659 0.084778
H42   H     H_    0.506714 0.585832 0.711587 0.084151
H43   H     H_    0.992558 0.085705 0.287154 0.083583
H44   H     H_    0.932581 0.086917 0.668756 0.086264
H45   H     H_    0.256741 0.638655 0.826338 0.092203
H46   H     H_    0.745783 0.633018 0.178725 0.097031
H47   H     H_    0.761776 0.142603 0.823820 0.089256
H48   H     H_    0.248503 0.130281 0.176959 0.098520
H49   H     H_    0.904330 0.417074 0.514390 0.154267
H50   H     H_    0.061678 0.436763 0.690966 0.145221
H51   H     H_    0.403440 0.916429 0.511123 0.153691
H52   H     H_    0.560929 0.935030 0.688971 0.145299
N1    N     N_R   0.395440 0.396300 0.944370 -0.035651
N2    N     N_R   0.604560 0.396300 0.055630 -0.037049
N3    N     N_R   0.895440 0.896300 0.944370 -0.035407
N4    N     N_R   0.104560 0.896300 0.055630 -0.037448
N5    N     N_R   0.449890 0.602500 0.055780 -0.042068
N6    N     N_R   0.550110 0.602500 0.944220 -0.039946
N7    N     N_R   0.949890 0.102500 0.055780 -0.039693
N8    N     N_R   0.050110 0.102500 0.944220 -0.042294
N9    N     N_R   0.525090 0.470990 0.205640 -0.038422
N10   N     N_R   0.474910 0.470990 0.794360 -0.041645
N11   N     N_R   0.025090 0.970990 0.205640 -0.038451
N12   N     N_R   0.974910 0.970990 0.794360 -0.040043
N13   N     N_R   0.320240 0.527820 0.794510 -0.054445
N14   N     N_R   0.679760 0.527820 0.205490 -0.051213
N15   N     N_R   0.820240 0.027820 0.794510 -0.053279
N16   N     N_R   0.179760 0.027820 0.205490 -0.052305
N17   N     N_R   0.524580 0.527810 0.205160 -0.037123
N18   N     N_R   0.475420 0.527810 0.794840 -0.038882
N19   N     N_R   0.024580 0.027810 0.205160 -0.037159
N20   N     N_R   0.975420 0.027810 0.794840 -0.038293
N21   N     N_R   0.320750 0.470990 0.794990 -0.061166
N22   N     N_R   0.679250 0.470990 0.205010 -0.058372
N23   N     N_R   0.820750 0.970990 0.794990 -0.060294
N24   N     N_R   0.179250 0.970990 0.205010 -0.058783
N25   N     N_R   0.393580 0.602500 0.942610 -0.039802
N26   N     N_R   0.606420 0.602500 0.057390 -0.038976
N27   N     N_R   0.893580 0.102500 0.942610 -0.038594
N28   N     N_R   0.106420 0.102500 0.057390 -0.039965
N29   N     N_R   0.451750 0.396300 0.057540 -0.042006
N30   N     N_R   0.548250 0.396300 0.942460 -0.040043
N31   N     N_R   0.951750 0.896300 0.057540 -0.041611
N32   N     N_R   0.048250 0.896300 0.942460 -0.040862
Ni1   Ni    Ni4+2 0.435420 0.434250 0.870220 0.206844
Ni2   Ni    Ni4+2 0.564580 0.434250 0.129780 0.203992
Ni3   Ni    Ni4+2 0.935420 0.934250 0.870220 0.204504
Ni4   Ni    Ni4+2 0.064580 0.934250 0.129780 0.205300
Ni5   Ni    Ni4+2 0.563400 0.564580 0.128670 0.209460
Ni6   Ni    Ni4+2 0.436600 0.564580 0.871330 0.214599
Ni7   Ni    Ni4+2 0.063400 0.064580 0.128670 0.213434
Ni8   Ni    Ni4+2 0.936600 0.064580 0.871330 0.210570
C93   C     C_3   0.497797 0.228406 0.805773 -1.078641
H53   H     H_    0.468350 0.186257 0.778395 0.264919
H54   H     H_    0.451592 0.250009 0.823513 0.254170
H55   H     H_    0.495753 0.249387 0.738388 0.248304
C94   C     C_3   0.503166 0.229474 0.196633 -1.080423
H56   H     H_    0.537684 0.188642 0.227451 0.263184
H57   H     H_    0.547887 0.253385 0.179249 0.253990
H58   H     H_    0.500916 0.249728 0.261491 0.249876
C95   C     C_3   0.998566 0.728998 0.809391 -1.083305
H59   H     H_    0.965054 0.687743 0.781467 0.264306
H60   H     H_    0.954596 0.752792 0.827713 0.253231
H61   H     H_    0.998190 0.748749 0.742117 0.249138
C96   C     C_3   0.005193 0.728764 0.198465 -1.075036
H62   H     H_    0.036524 0.687128 0.227861 0.263893
H63   H     H_    0.051338 0.751252 0.181394 0.254957
H64   H     H_    0.004883 0.749604 0.264182 0.249093
C97   C     C_3   0.206964 0.396723 0.672042 -1.079430
H65   H     H_    0.187190 0.370938 0.717224 0.248088
H66   H     H_    0.145443 0.398353 0.584804 0.264081
H67   H     H_    0.266943 0.378320 0.674793 0.250529
C98   C     C_3   0.740477 0.398690 0.347267 -1.114546
H68   H     H_    0.794350 0.369726 0.356954 0.248339
H69   H     H_    0.748367 0.403772 0.425870 0.258343
H70   H     H_    0.669234 0.380726 0.289722 0.250604
C99   C     C_3   0.707226 0.896848 0.671638 -1.084574
H71   H     H_    0.687564 0.870569 0.716349 0.249500
H72   H     H_    0.645799 0.898726 0.584380 0.264493
H73   H     H_    0.767354 0.878838 0.674185 0.248207
C100  C     C_3   0.235811 0.899530 0.347522 -1.092759
H74   H     H_    0.287300 0.868904 0.356347 0.242769
H75   H     H_    0.245300 0.905440 0.426852 0.260926
H76   H     H_    0.163100 0.883144 0.290295 0.253084
H77   H     H_    0.484989 0.336386 0.178765 0.113215
H78   H     H_    0.509503 0.334470 0.823618 0.113914
H79   H     H_    0.990168 0.834860 0.177784 0.113680
H80   H     H_    0.015384 0.835879 0.822929 0.113411

loop_
_geom_bond_atom_site_label_1
_geom_bond_atom_site_label_2
_ccdc_geom_bond_type
C25   C31   A    
C23   H7    S    
C55   C56   A    
C82   N26   A    
C3    N3    A    
C6    C82   A    
C3    C91   A    
C87   C91   A    
C27   C29   A    
C14   C70   A    
C97   H65   S    
C20   H52   S    
C7    C83   A    
C19   C20   S    
C16   C72   A    
C43   C51   A    
C83   H47   S    
C76   H44   S    
C39   C41   A    
C100  H74   S    
N16   N24   A    
C81   H45   S    
C12   C68   A    
N14   N22   A    
N4    N32   A    
C43   H19   S    
C22   H6    S    
C15   C71   A    
C32   C36   A    
C14   C21   S    
C75   N19   A    
C10   C58   S    
N18   Ni6   S    
C26   C50   A    
C8    C52   S    
N8    N28   A    
N12   Ni3   S    
N3    N31   A    
C93   H54   S    
C24   H8    S    
C96   H62   S    
C77   N21   A    
C4    N4    A    
C54   H22   S    
C70   H38   S    
C99   H73   S    
N7    N27   A    
N2    Ni2   S    
C17   H49   S    
C86   H78   S    
C30   C94   S    
C27   H11   S    
C2    C90   A    
C85   H77   S    
C65   N9    A    
C53   H21   S    
C4    H4    S    
C1    N1    A    
N32   Ni3   S    
C15   C79   A    
C72   N16   A    
C88   C92   A    
C29   C33   A    
C27   C51   A    
C95   H60   S    
C74   N18   A    
C83   N27   A    
N2    N30   A    
C69   N13   A    
N22   Ni2   S    
C81   N25   A    
N15   Ni8   S    
N8    Ni8   S    
N24   Ni4   S    
C100  H75   S    
C68   H36   S    
N16   Ni7   S    
C9    C57   S    
C85   N29   A    
C40   H16   S    
C35   C92   S    
C44   C52   A    
C40   C42   A    
N4    Ni4   S    
C8    C84   A    
C55   C60   A    
N5    Ni5   S    
C97   H66   S    
C5    C49   S    
C94   H56   S    
C9    C73   A    
N15   N23   A    
C11   C59   S    
C41   C49   A    
C1    C89   A    
C11   C67   A    
C38   C44   A    
C72   H40   S    
C25   C49   A    
C10   C66   A    
C13   C77   A    
C78   N22   A    
C62   H26   S    
C30   C34   A    
N19   Ni7   S    
C94   H58   S    
C20   C24   D    
N27   Ni8   S    
C2    H2    S    
N6    Ni6   S    
C86   C90   A    
N13   N21   A    
C31   C95   S    
C85   C89   A    
C26   C32   A    
C34   C38   A    
C93   H55   S    
C41   H17   S    
N11   N19   A    
C53   C54   A    
C5    C45   A    
C16   C80   A    
C33   C37   A    
C88   H80   S    
N9    N17   A    
C86   N30   A    
C65   H33   S    
C38   H14   S    
C96   H64   S    
C35   C39   A    
C8    C48   A    
C37   H13   S    
C32   C96   S    
N20   Ni8   S    
C67   H35   S    
C5    C81   A    
C28   H12   S    
C73   N17   A    
C99   H71   S    
C36   C40   A    
N21   Ni1   S    
C95   H61   S    
C17   C18   S    
C56   H24   S    
C6    C50   S    
C57   C61   A    
N30   Ni1   S    
C84   H48   S    
N31   Ni4   S    
C58   C62   A    
C42   C50   A    
C44   H20   S    
C36   C91   S    
C1    H1    S    
C15   C24   S    
C46   N6    A    
C47   N7    A    
N23   Ni3   S    
C95   H59   S    
C16   C23   S    
C87   H79   S    
C48   N8    A    
C12   C76   A    
C97   H67   S    
N5    N25   A    
C37   C43   A    
C76   N20   A    
N13   Ni6   S    
C66   H34   S    
C79   N23   A    
C87   N31   A    
N11   Ni4   S    
C19   C23   D    
C66   N10   A    
C100  H76   S    
C79   C99   S    
C98   H68   S    
N9    Ni2   S    
C18   H50   S    
C19   H51   S    
C6    C46   A    
C18   C22   D    
N10   N18   A    
N1    N29   A    
C84   N28   A    
C77   C97   S    
C48   H32   S    
C53   C58   A    
N7    Ni7   S    
C47   H31   S    
C28   C52   A    
C67   N11   A    
C2    N2    A    
C71   N15   A    
C80   C100  S    
C59   C63   A    
C64   H28   S    
C56   C59   A    
C60   C64   A    
C45   H29   S    
C13   C69   A    
C96   H63   S    
C42   H18   S    
C34   C89   S    
C7    C51   S    
N26   Ni5   S    
C61   H25   S    
C11   C75   A    
C33   C90   S    
C82   H46   S    
C10   C74   A    
N28   Ni7   S    
C25   H9    S    
C93   H53   S    
N6    N26   A    
C75   H43   S    
C55   H23   S    
N29   Ni2   S    
C74   H42   S    
C31   C35   A    
C28   C30   A    
C99   H72   S    
C29   C93   S    
C13   C22   S    
C45   N5    A    
C14   C78   A    
N17   Ni5   S    
C61   C62   A    
C39   H15   S    
N14   Ni5   S    
C9    C65   A    
N25   Ni6   S    
C78   C98   S    
C21   H5    S    
C71   H39   S    
C63   C64   A    
C12   C60   S    
N3    Ni3   S    
C88   N32   A    
N12   N20   A    
C69   H37   S    
C63   H27   S    
C73   H41   S    
N10   Ni1   S    
N1    Ni1   S    
C46   H30   S    
C3    H3    S    
C98   H70   S    
C70   N14   A    
C98   H69   S    
C68   N12   A    
C80   N24   A    
C26   H10   S    
C7    C47   A    
C94   H57   S    
C4    C92   A    
C54   C57   A    
C17   C21   D    
