data_mof_unit_4668.cif
_audit_creation_date              2012-12-10T19:44:29-0500
_audit_creation_method            fapswitch 2.2
_symmetry_space_group_name_H-M    P1
_symmetry_Int_Tables_number       1
_space_group_crystal_system       triclinic
_cell_length_a                    10.80055
_cell_length_b                    12.319252
_cell_length_c                    13.187322
_cell_angle_alpha                 116.852579
_cell_angle_beta                  77.24665
_cell_angle_gamma                 101.221243
_cell_volume                      1517.71140144

loop_
_atom_site_label
_atom_site_type_symbol
_atom_type_description
_atom_site_fract_x
_atom_site_fract_y
_atom_site_fract_z
_atom_type_partial_charge
C1    C     C_R   0.514496 0.854788 0.286455 0.767690
C2    C     C_R   0.621770 0.823619 0.781143 -0.238339
C3    C     C_R   0.038878 0.954639 0.566159 -0.229032
C4    C     C_R   0.129393 0.997914 0.495200 -0.077326
C5    C     C_R   0.090831 0.041308 0.425672 0.030048
C6    C     C_R   0.961281 0.041458 0.430189 -0.192559
C7    C     C_R   0.870915 0.000286 0.502698 -0.077106
C8    C     C_R   0.909642 0.956303 0.571607 0.024856
C9    C     C_R   0.200479 0.202265 0.356546 0.176639
C10   C     C_R   0.293251 0.236354 0.280365 -0.141610
C11   C     C_R   0.367702 0.150120 0.190770 -0.157406
C12   C     C_R   0.737169 0.000389 0.501345 0.776612
C13   C     C_R   0.349376 0.028881 0.176172 -0.114442
C14   C     C_R   0.257132 0.993736 0.251495 -0.144404
C15   C     C_R   0.182777 0.080001 0.343079 0.070522
C16   C     C_R   0.300400 0.285122 0.008397 -0.159101
C17   C     C_R   0.454348 0.227000 0.835052 -0.091125
C18   C     C_R   0.624039 0.809794 0.089523 -0.203607
C19   C     C_R   0.656258 0.728562 0.975884 -0.195196
C20   C     C_R   0.600340 0.608004 0.935703 -0.086848
C21   C     C_R   0.512547 0.565002 0.010187 0.103351
C22   C     C_R   0.467636 0.652076 0.121285 0.021597
C23   C     C_R   0.481710 0.144928 0.713396 0.786040
C24   C     C_R   0.463951 0.439606 0.976340 -0.037286
C25   C     C_R   0.355254 0.407396 0.045266 0.046450
C26   C     C_R   0.301701 0.497337 0.149199 0.393804
C27   C     C_R   0.358688 0.618227 0.186470 -0.302795
C28   C     C_R   0.521781 0.344426 0.877892 0.364192
C29   C     C_R   0.346836 0.196677 0.902239 -0.237678
C30   C     C_R   0.531100 0.772464 0.163444 -0.080191
C31   C     C_R   0.703016 0.343398 0.325599 -0.214370
C32   C     C_R   0.329517 0.761644 0.648262 0.087713
C33   C     C_R   0.294945 0.666987 0.682485 -0.243744
C34   C     C_R   0.262973 0.999023 0.497831 0.787133
C35   C     C_R   0.359871 0.563100 0.626741 -0.140686
C36   C     C_R   0.460391 0.552189 0.534986 -0.014615
C37   C     C_R   0.493561 0.652431 0.504224 0.265493
C38   C     C_R   0.530397 0.447148 0.474317 -0.128177
C39   C     C_R   0.633178 0.445252 0.385321 0.110731
C40   C     C_R   0.666068 0.544753 0.356952 0.334555
C41   C     C_R   0.596860 0.646103 0.416439 -0.282720
C42   C     C_R   0.503105 0.342815 0.497917 0.076315
C43   C     C_R   0.671741 0.244756 0.353684 0.061312
C44   C     C_R   0.640289 0.949438 0.808058 0.483854
C45   C     C_R   0.738916 0.993288 0.742792 -0.098410
C46   C     C_R   0.817592 0.912684 0.650260 0.031414
C47   C     C_R   0.801064 0.788256 0.626964 -0.137775
C48   C     C_R   0.703492 0.744108 0.692408 -0.194530
Cu1   Cu    Cu3+1 0.529370 0.098270 0.475420 0.957800
Cu2   Cu    Cu3+1 0.470630 0.901730 0.524580 0.933370
H1    H     H_    0.544508 0.787256 0.828962 0.134618
H2    H     H_    0.439792 0.177483 0.132839 0.180132
H3    H     H_    0.407354 0.962087 0.107126 0.130793
H4    H     H_    0.245025 0.899568 0.239705 0.111005
H5    H     H_    0.295717 0.105658 0.870632 0.161530
H6    H     H_    0.217337 0.258388 0.058725 0.203346
H7    H     H_    0.673682 0.901473 0.120192 0.154914
H8    H     H_    0.623685 0.551760 0.844909 0.189880
H9    H     H_    0.727005 0.758603 0.919064 0.162277
H10   H     H_    0.313457 0.686502 0.265049 0.161314
H11   H     H_    0.725278 0.166240 0.307779 0.124397
H12   H     H_    0.781778 0.339464 0.257438 0.204977
H13   H     H_    0.425899 0.335613 0.562722 0.130765
H14   H     H_    0.279143 0.842285 0.692305 0.118136
H15   H     H_    0.329629 0.493277 0.657632 0.150029
H16   H     H_    0.217855 0.674290 0.752677 0.153912
H17   H     H_    0.628637 0.719312 0.392204 0.204258
H18   H     H_    0.751306 0.089518 0.761411 0.119124
H19   H     H_    0.860636 0.724881 0.555613 0.158853
H20   H     H_    0.689370 0.647618 0.672721 0.161242
H21   H     H_    0.068966 0.922410 0.620132 0.152570
H22   H     H_    0.930795 0.071531 0.374802 0.160843
H23   H     H_    0.308647 0.330240 0.291256 0.185568
N1    N     N_R   0.573890 0.246290 0.438210 -0.177021
N2    N     N_R   0.426890 0.754320 0.561170 -0.191492
O1    O     O_R   0.536940 0.972510 0.318130 -0.580627
O2    O     O_R   0.487330 0.806530 0.359650 -0.597388
O3    O     O_R   0.705160 0.082990 0.479250 -0.573077
O4    O     O_R   0.655550 0.917010 0.520760 -0.591881
O5    O     O_R   0.512670 0.193470 0.640350 -0.574095
O6    O     O_R   0.463060 0.027490 0.681870 -0.569687
O7    O     O_R   0.344450 0.082990 0.479240 -0.568359
O8    O     O_R   0.294840 0.917010 0.520750 -0.598777
O9    O     O_3   0.194259 0.465130 0.213564 -0.734493
H24   H     H_    0.170281 0.538456 0.284876 0.338209
O10   O     O_3   0.646194 0.365102 0.829280 -0.737052
H25   H     H_    0.681557 0.286085 0.779262 0.326244
O11   O     O_3   0.562582 0.030965 0.895625 -0.752357
H26   H     H_    0.494617 0.984928 0.929492 0.304520
O12   O     O_3   0.767260 0.541605 0.270716 -0.721785
H27   H     H_    0.778127 0.618136 0.260656 0.325678
I1    I     I_    0.094905 0.340619 0.491942 -0.411456

loop_
_geom_bond_atom_site_label_1
_geom_bond_atom_site_label_2
_ccdc_geom_bond_type
C1    O2    A    
C35   C36   A    
Cu2   O4    S    
C32   N2    A    
C7    C8    A    
C41   H17   S    
C45   C46   A    
C6    H22   S    
C26   C27   A    
C17   C23   S    
C31   C43   A    
C21   C22   A    
C36   C37   A    
C38   C42   A    
C27   H10   S    
C38   C39   A    
C10   H23   S    
C35   H15   S    
C12   O4    A    
C17   C29   A    
Cu1   O3    S    
C18   C19   A    
C47   H19   S    
C11   H2    S    
C19   C20   A    
C2    C44   A    
C12   O3    A    
Cu2   O8    S    
C18   C30   A    
C23   O5    A    
C23   O6    A    
C9    C10   A    
O11   H26   S    
C43   N1    A    
C37   N2    A    
C13   C14   A    
C17   C28   A    
C31   H12   S    
C9    I1    S    
C33   H16   S    
C13   H3    S    
C7    C12   S    
C4    C34   S    
C42   N1    A    
C24   C25   A    
C32   H14   S    
C3    C8    A    
C10   C11   A    
C39   C40   A    
O10   H25   S    
C29   H5    S    
C2    C48   A    
C25   C26   A    
Cu1   O7    S    
C3    H21   S    
C16   H6    S    
C18   H7    S    
C47   C48   A    
C45   H18   S    
Cu1   O1    S    
O9    H24   S    
C40   C41   A    
C14   H4    S    
C22   C27   A    
C28   O10   S    
C34   O8    A    
C20   H8    S    
C3    C4    A    
Cu2   O2    S    
C44   C45   A    
C43   H11   S    
C16   C25   A    
C46   C47   A    
C26   O9    S    
C22   C30   A    
Cu1   N1    S    
C1    O1    A    
C24   C28   A    
C48   H20   S    
C4    C5    A    
C6    C7    A    
Cu1   O5    S    
C19   H9    S    
C32   C33   A    
C36   C38   A    
C9    C15   A    
Cu2   N2    S    
C11   C13   A    
O12   H27   S    
C5    C6    A    
C1    C30   S    
C33   C35   A    
C31   C39   A    
C37   C41   A    
C8    C46   S    
C5    C15   S    
C2    H1    S    
C20   C21   A    
C16   C29   A    
Cu1   Cu2   S    
C21   C24   A    
C14   C15   A    
C34   O7    A    
C40   O12   S    
C44   O11   S    
C42   H13   S    
Cu2   O6    S    
