data_mof_unit_3853.cif
_audit_creation_date              2012-12-10T18:47:06-0500
_audit_creation_method            fapswitch 2.2
_symmetry_space_group_name_H-M    P1
_symmetry_Int_Tables_number       1
_space_group_crystal_system       triclinic
_cell_length_a                    10.717584
_cell_length_b                    9.896033
_cell_length_c                    14.91669
_cell_angle_alpha                 89.703819
_cell_angle_beta                  90.404845
_cell_angle_gamma                 90.067498
_cell_volume                      1582.02582264

loop_
_atom_site_label
_atom_site_type_symbol
_atom_type_description
_atom_site_fract_x
_atom_site_fract_y
_atom_site_fract_z
_atom_type_partial_charge
C1    C     C_R   0.260037 0.500022 0.500568 0.847757
C2    C     C_R   0.127470 0.500283 0.501452 -0.000447
C3    C     C_R   0.564973 0.072432 0.564014 0.360220
C4    C     C_R   0.447699 0.929475 0.430416 0.346611
C5    C     C_R   0.436163 0.073670 0.435540 0.352090
C6    C     C_R   0.556857 0.927506 0.568087 0.346313
C7    C     C_R   0.498949 0.499886 0.326970 0.883527
C8    C     C_R   0.499469 0.499531 0.673050 0.885981
C9    C     C_R   0.570315 0.403756 0.814755 -0.249364
C10   C     C_R   0.415158 0.583939 0.185435 -0.276487
C11   C     C_R   0.496848 0.497611 0.768603 -0.061128
C12   C     C_R   0.739938 0.500159 0.499974 0.847274
C13   C     C_R   0.496147 0.497833 0.231439 -0.055046
C14   C     C_R   0.419234 0.587582 0.813218 -0.294151
C15   C     C_R   0.571357 0.405463 0.186755 -0.249712
C16   C     C_R   0.415972 0.586000 0.905973 0.124433
C17   C     C_R   0.569632 0.402156 0.094046 0.120088
C18   C     C_R   0.492137 0.493361 0.953392 0.060858
C19   C     C_R   0.491724 0.493084 0.046654 0.060812
C20   C     C_R   0.569343 0.401573 0.907498 0.110451
C21   C     C_R   0.413836 0.584114 0.092615 0.110721
C22   C     C_R   0.338441 0.675423 0.951952 -0.222212
C23   C     C_R   0.336952 0.674056 0.045161 -0.224433
C24   C     C_R   0.645223 0.310791 0.048115 -0.221559
C25   C     C_3   0.762299 0.116230 0.615627 -0.264162
C26   C     C_3   0.495911 0.892658 0.284946 -0.276931
C27   C     C_3   0.247377 0.103589 0.363569 -0.241864
C28   C     C_3   0.553874 0.881331 0.718025 -0.244481
C29   C     C_R   0.644815 0.310240 0.954940 -0.220002
C30   C     C_R   0.063478 0.379462 0.486656 -0.203320
C31   C     C_R   0.936263 0.621492 0.516173 -0.191170
C32   C     C_R   0.935845 0.379940 0.484824 -0.220565
C33   C     C_R   0.064190 0.621426 0.516418 -0.200683
C34   C     C_R   0.872454 0.500630 0.500200 -0.004222
H1    H     H_    0.629640 0.334525 0.778360 0.179019
H2    H     H_    0.887804 0.715517 0.528657 0.166126
H3    H     H_    0.887316 0.286393 0.470861 0.146840
H4    H     H_    0.113064 0.715505 0.528747 0.153863
H5    H     H_    0.816799 0.203424 0.641244 0.174873
H6    H     H_    0.789504 0.100823 0.544405 0.125316
H7    H     H_    0.789255 0.026682 0.656386 0.188881
H8    H     H_    0.460310 0.851447 0.220914 0.174827
H9    H     H_    0.588080 0.845522 0.299510 0.164343
H10   H     H_    0.508184 0.002886 0.273208 0.174263
H11   H     H_    0.190536 0.188427 0.336768 0.165427
H12   H     H_    0.352779 0.649405 0.222105 0.176531
H13   H     H_    0.206749 0.073020 0.429247 0.115087
H14   H     H_    0.238953 0.019970 0.314670 0.198324
H15   H     H_    0.587025 0.806544 0.768396 0.185584
H16   H     H_    0.450745 0.869850 0.711738 0.135746
H17   H     H_    0.577400 0.982718 0.744677 0.183910
H18   H     H_    0.360771 0.657359 0.775568 0.141436
H19   H     H_    0.632042 0.337715 0.224306 0.143682
H20   H     H_    0.279522 0.746434 0.915871 0.144778
H21   H     H_    0.704843 0.240478 0.084207 0.143142
H22   H     H_    0.276989 0.744094 0.080109 0.148505
H23   H     H_    0.704047 0.239435 0.920021 0.147264
H24   H     H_    0.111534 0.285118 0.475866 0.152562
N1    N     N_R   0.500000 0.857200 0.500000 -0.193363
N2    N     N_R   0.500000 0.142800 0.500000 -0.192690
O1    O     O_R   0.316770 0.614620 0.499990 -0.615946
O2    O     O_3   0.409803 0.862807 0.353901 -0.571142
O3    O     O_3   0.372431 0.147580 0.370721 -0.555433
O4    O     O_3   0.615128 0.855966 0.636271 -0.567655
O5    O     O_R   0.683230 0.385380 0.500010 -0.608605
O6    O     O_R   0.683230 0.614620 0.500010 -0.604622
O7    O     O_R   0.316770 0.385380 0.499990 -0.603129
O8    O     O_R   0.499980 0.614680 0.367850 -0.577348
O9    O     O_R   0.500020 0.385320 0.632150 -0.574832
O10   O     O_R   0.500020 0.614680 0.632150 -0.580586
O11   O     O_R   0.499980 0.385320 0.367850 -0.571126
O12   O     O_3   0.634150 0.144820 0.625944 -0.573857
Zn1   Zn    Zn3+2 0.500000 0.653120 0.500000 1.008042
Zn2   Zn    Zn3+2 0.500000 0.346880 0.500000 1.016765

loop_
_geom_bond_atom_site_label_1
_geom_bond_atom_site_label_2
_ccdc_geom_bond_type
C27   H14   S    
C10   H12   S    
O11   Zn2   S    
C31   C33   A    
C32   C34   A    
C25   H6    S    
C31   H2    S    
C28   H15   S    
N1    Zn1   S    
C9    C20   A    
C8    O10   A    
C33   H4    S    
C7    C13   S    
C2    C30   A    
C3    C6    A    
C3    N2    A    
C27   H11   S    
O10   Zn1   S    
C13   C15   A    
C3    O12   S    
C26   O2    S    
C31   C34   A    
C26   H10   S    
C23   H22   S    
C22   H20   S    
O7    Zn2   S    
C32   H3    S    
C25   H5    S    
C24   H21   S    
C30   C32   A    
C9    C11   A    
C26   H8    S    
C8    O9    A    
C27   H13   S    
C12   O6    A    
C8    C11   S    
C28   O4    S    
C4    N1    A    
N2    Zn2   S    
C7    O8    A    
C1    O7    A    
C29   H23   S    
C26   H9    S    
C1    C2    S    
C18   C20   A    
C20   C29   A    
C21   C23   A    
C10   C21   A    
C7    O11   A    
C28   H17   S    
C14   C16   A    
C17   C24   A    
C25   H7    S    
C15   H19   S    
C17   C19   A    
C4    O2    S    
O9    Zn2   S    
C1    O1    A    
C5    O3    S    
C15   C17   A    
C18   C19   A    
C12   O5    A    
C6    O4    S    
C11   C14   A    
C25   O12   S    
C28   H16   S    
C24   C29   A    
C27   O3    S    
C9    H1    S    
C16   C22   A    
C5    N2    A    
O1    Zn1   S    
O8    Zn1   S    
C30   H24   S    
O6    Zn1   S    
C12   C34   S    
C6    N1    A    
C22   C23   A    
C14   H18   S    
O5    Zn2   S    
C2    C33   A    
C4    C5    A    
C19   C21   A    
C10   C13   A    
C16   C18   A    
