data_mof_unit_1456.cif
_audit_creation_date              2012-12-10T19:05:22-0500
_audit_creation_method            fapswitch 2.2
_symmetry_space_group_name_H-M    P1
_symmetry_Int_Tables_number       1
_space_group_crystal_system       triclinic
_cell_length_a                    9.57715
_cell_length_b                    10.840378
_cell_length_c                    17.279804
_cell_angle_alpha                 91.525688
_cell_angle_beta                  85.5076
_cell_angle_gamma                 90.905643
_cell_volume                      1787.67288277

loop_
_atom_site_label
_atom_site_type_symbol
_atom_type_description
_atom_site_fract_x
_atom_site_fract_y
_atom_site_fract_z
_atom_type_partial_charge
C1    C     C_R   0.501312 0.737918 0.501686 0.860295
C2    C     C_R   0.346960 0.529599 0.777541 -0.197277
C3    C     C_R   0.450842 0.591181 0.146705 0.383810
C4    C     C_R   0.441355 0.589680 0.228938 0.278594
C5    C     C_R   0.630241 0.440493 0.222687 -0.296440
C6    C     C_R   0.634975 0.438056 0.142282 -0.266943
C7    C     C_R   0.542693 0.509534 0.104462 0.129124
C8    C     C_2   0.435956 0.469352 0.981418 0.445227
C9    C     C_2   0.548529 0.501463 0.019708 -0.220432
C10   C     C_R   0.531390 0.512953 0.266073 -0.096302
C11   C     C_R   0.377890 0.934288 0.509027 0.048286
C12   C     C_R   0.481084 0.498668 0.649866 0.764675
C13   C     C_R   0.503059 0.871781 0.511320 -0.291615
C14   C     C_R   0.622751 0.940079 0.532418 0.371955
C15   C     C_R   0.616376 0.068814 0.541867 0.401139
C16   C     C_R   0.495453 0.130989 0.521378 -0.336961
C17   C     C_R   0.373362 0.060773 0.514411 0.031039
C18   C     C_3   0.261232 0.064904 0.458903 0.196680
C19   C     C_3   0.269449 0.925214 0.451658 -0.318280
C20   C     C_R   0.928420 0.402643 0.468617 0.157613
C21   C     C_R   0.920408 0.589480 0.538082 -0.060826
C22   C     C_R   0.067955 0.589540 0.539496 0.469594
C23   C     C_R   0.498440 0.262914 0.505917 0.826144
C24   C     C_R   0.075420 0.403588 0.467003 0.032662
C25   C     C_3   0.087853 0.352059 0.385020 0.218538
C26   C     C_3   0.928006 0.352767 0.387592 0.116668
C27   C     C_R   0.519041 0.504061 0.350364 0.869632
C28   C     C_R   0.469183 0.491016 0.734260 -0.012402
C29   C     C_R   0.579150 0.441662 0.771944 -0.150389
C30   C     C_R   0.567549 0.431695 0.852123 -0.217007
C31   C     C_R   0.446972 0.473535 0.895810 0.034691
C32   C     C_R   0.336304 0.521502 0.858009 -0.118778
Cu1   Cu    Cu3+1 0.359330 0.500020 0.500000 0.997223
Cu2   Cu    Cu3+1 0.640670 0.499980 0.500000 0.973796
H1    H     H_    0.673160 0.408939 0.739342 0.150316
H2    H     H_    0.708828 0.378302 0.109397 0.165017
H3    H     H_    0.292572 0.113614 0.404346 0.097664
H4    H     H_    0.173070 0.876050 0.475003 0.260674
H5    H     H_    0.312746 0.891711 0.393401 0.160209
H6    H     H_    0.860716 0.662112 0.568514 0.201429
H7    H     H_    0.134451 0.259172 0.381811 0.123431
H8    H     H_    0.884683 0.418097 0.347501 0.163138
H9    H     H_    0.699750 0.381633 0.251144 0.189536
H10   H     H_    0.649588 0.518891 0.988588 0.105849
H11   H     H_    0.242414 0.553880 0.890872 0.170055
H12   H     H_    0.260711 0.567512 0.749324 0.153245
H13   H     H_    0.652529 0.390753 0.879828 0.127996
N1    N     N_R   0.852130 0.499070 0.499500 -0.239029
N2    N     N_R   0.148040 0.499110 0.499500 -0.208790
O1    O     O_R   0.381190 0.680360 0.500000 -0.559002
O2    O     O_R   0.618770 0.680320 0.499990 -0.584937
O3    O     O_R   0.367430 0.500040 0.613600 -0.621453
O4    O     O_R   0.605020 0.500000 0.613590 -0.587794
O5    O     O_R   0.381230 0.319680 0.500010 -0.603001
O6    O     O_R   0.618810 0.319640 0.500000 -0.535796
O7    O     O_R   0.394980 0.500000 0.386410 -0.482364
O8    O     O_R   0.632570 0.499960 0.386400 -0.602875
O9    O     O_3   0.747150 0.884447 0.543796 -0.660831
H14   H     H_    0.782444 0.849972 0.492356 0.332830
O10   O     O_3   0.732215 0.130044 0.567284 -0.656274
H15   H     H_    0.698604 0.201232 0.600405 0.321496
O11   O     O_3   0.132157 0.101025 0.495879 -0.691069
H16   H     H_    0.147574 0.183453 0.520117 0.338957
O12   O     O_3   0.125816 0.684760 0.580739 -0.732847
H17   H     H_    0.209043 0.653576 0.603063 0.360425
O13   O     O_3   0.151088 0.436165 0.331515 -0.540246
C33   C     C_3   0.154539 0.384509 0.255162 0.097708
H18   H     H_    0.179494 0.460191 0.214172 0.189962
H19   H     H_    0.050723 0.346350 0.240953 0.129106
C34   C     C_3   0.267015 0.285816 0.240473 -0.839313
H20   H     H_    0.224373 0.194195 0.258322 0.222038
H21   H     H_    0.301488 0.279599 0.177704 0.229689
H22   H     H_    0.359117 0.308120 0.273460 0.258024
O14   O     O_3   0.346535 0.660872 0.274213 -0.721790
H23   H     H_    0.264700 0.676475 0.244438 0.331301
O15   O     O_3   0.866958 0.234055 0.382833 -0.717315
H24   H     H_    0.903218 0.182379 0.423232 0.375240
O16   O     O_3   0.376204 0.672480 0.106185 -0.708224
H25   H     H_    0.358167 0.747966 0.138697 0.317751
O17   O     O_3   0.306721 0.450503 0.022177 -0.546680
C35   C     C_3   0.254704 0.331183 0.004279 0.043308
H26   H     H_    0.315147 0.260678 0.032637 0.144925
H27   H     H_    0.259827 0.309972 0.940730 0.146991
C36   C     C_3   0.101527 0.321416 0.034437 -0.784460
H28   H     H_    0.038974 0.389115 0.005194 0.245506
H29   H     H_    0.060553 0.227023 0.022406 0.206976
H30   H     H_    0.090109 0.340440 0.097874 0.239569

loop_
_geom_bond_atom_site_label_1
_geom_bond_atom_site_label_2
_ccdc_geom_bond_type
C10   C27   S    
C8    C9    D    
C15   O10   S    
C36   H30   S    
C35   H26   S    
C2    H12   S    
Cu1   O3    S    
C11   C19   S    
Cu2   O2    S    
C29   C30   A    
C12   C28   S    
C28   C29   A    
C18   H3    S    
C36   H29   S    
C3    C7    A    
C5    C6    A    
Cu1   N2    S    
C15   C16   A    
C24   N2    A    
C2    C32   A    
C18   C19   S    
C32   H11   S    
Cu1   O1    S    
C12   O3    A    
C36   H28   S    
C20   C24   A    
C16   C17   A    
Cu2   O8    S    
C26   O15   S    
C34   H20   S    
C1    O1    A    
C4    O14   S    
C12   O4    A    
C21   N1    A    
Cu1   O7    S    
O13   C33   S    
C5    H9    S    
Cu2   O6    S    
C13   C14   A    
C35   H27   S    
Cu1   Cu2   S    
C14   O9    S    
O14   H23   S    
C33   H18   S    
C30   H13   S    
C24   C25   S    
C27   O8    A    
C25   H7    S    
O16   H25   S    
C18   O11   S    
C25   C26   S    
O10   H15   S    
C33   H19   S    
O11   H16   S    
C19   H4    S    
C31   C32   A    
C34   H22   S    
C17   C18   S    
O15   H24   S    
C1    O2    A    
C20   N1    A    
C19   H5    S    
C22   N2    A    
C16   C23   S    
C1    C13   S    
C4    C10   A    
C3    C4    A    
C35   C36   S    
C26   H8    S    
C23   O5    A    
Cu1   O5    S    
C7    C9    S    
C11   C17   A    
C9    H10   S    
C27   O7    A    
C8    C31   S    
C25   O13   S    
O17   C35   S    
C34   H21   S    
C23   O6    A    
C6    C7    A    
C29   H1    S    
C33   C34   S    
O12   H17   S    
O9    H14   S    
C5    C10   A    
C11   C13   A    
C30   C31   A    
C21   H6    S    
C20   C26   S    
C6    H2    S    
C22   O12   S    
Cu2   N1    S    
Cu2   O4    S    
C8    O17   S    
C14   C15   A    
C2    C28   A    
C21   C22   A    
C3    O16   S    
