data_mof_unit_356.cif
_audit_creation_date              2012-12-11T17:36:24-0500
_audit_creation_method            fapswitch 2.2
_symmetry_space_group_name_H-M    P1
_symmetry_Int_Tables_number       1
_space_group_crystal_system       triclinic
_cell_length_a                    25.866649
_cell_length_b                    6.889302
_cell_length_c                    21.650723
_cell_angle_alpha                 90.584284
_cell_angle_beta                  96.331739
_cell_angle_gamma                 90.862371
_cell_volume                      3833.98477928

loop_
_atom_site_label
_atom_site_type_symbol
_atom_type_description
_atom_site_fract_x
_atom_site_fract_y
_atom_site_fract_z
_atom_type_partial_charge
O1    O     O_R   0.208650 0.594520 0.175450 -0.532269
O2    O     O_R   0.791350 0.405480 0.824550 -0.532269
O3    O     O_R   0.291350 0.094520 0.324550 -0.537870
O4    O     O_R   0.708650 0.905480 0.675450 -0.537870
O5    O     O_R   0.192980 0.260780 0.300160 -0.531134
O6    O     O_R   0.807020 0.739220 0.699840 -0.531133
O7    O     O_R   0.307020 0.760780 0.199840 -0.528005
O8    O     O_R   0.692980 0.239220 0.800160 -0.528005
C1    C     C_R   0.177795 0.432904 0.317052 0.683094
C2    C     C_R   0.822205 0.567096 0.682948 0.683095
C3    C     C_R   0.320450 0.933613 0.180505 0.687969
C4    C     C_R   0.679550 0.066387 0.819495 0.687967
O9    O     O_R   0.202550 0.264660 0.174420 -0.534000
O10   O     O_R   0.797450 0.735340 0.825580 -0.534000
O11   O     O_R   0.297450 0.764660 0.325580 -0.535833
O12   O     O_R   0.702550 0.235340 0.674420 -0.535832
O13   O     O_R   0.300990 0.096480 0.197920 -0.537044
O14   O     O_R   0.699010 0.903520 0.802080 -0.537043
O15   O     O_R   0.199010 0.596480 0.302080 -0.542568
O16   O     O_R   0.800990 0.403520 0.697920 -0.542568
C5    C     C_R   0.190754 0.431463 0.150963 0.752393
C6    C     C_R   0.809246 0.568537 0.849037 0.752392
C7    C     C_R   0.308906 0.936042 0.349145 0.697472
C8    C     C_R   0.691094 0.063958 0.650856 0.697474
O17   O     O_3   0.282290 0.427760 0.257860 -0.359630
O18   O     O_3   0.717710 0.572240 0.742140 -0.359629
O19   O     O_3   0.217710 0.927760 0.242140 -0.356978
O20   O     O_3   0.782290 0.072240 0.757860 -0.356979
V1    V     V_3+5 0.244010 0.152080 0.248540 1.500639
V2    V     V_3+5 0.755990 0.847920 0.751460 1.500641
V3    V     V_3+5 0.255990 0.652080 0.251460 1.496012
V4    V     V_3+5 0.744010 0.347920 0.748540 1.496015
C9    C     C_R   0.658224 0.041836 0.590774 -0.064066
C10   C     C_R   0.341773 0.958167 0.409228 -0.064074
C11   C     C_R   0.843127 0.570616 0.908731 -0.075776
C12   C     C_R   0.156873 0.429384 0.091269 -0.075775
C13   C     C_R   0.647997 0.882827 0.489567 -0.017004
C14   C     C_R   0.351999 0.117231 0.510427 -0.016997
C15   C     C_R   0.857220 0.673840 0.016784 -0.030155
C16   C     C_R   0.142780 0.326160 0.983216 -0.030155
C17   C     C_R   0.679746 0.953552 0.541452 -0.185161
C18   C     C_R   0.320251 0.046490 0.458543 -0.185148
C19   C     C_R   0.825657 0.661799 0.960238 -0.177939
C20   C     C_R   0.174342 0.338201 0.039762 -0.177939
C21   C     C_R   0.604375 0.073563 0.585558 -0.146106
C22   C     C_R   0.395620 0.926419 0.414450 -0.146111
C23   C     C_R   0.894509 0.504527 0.912883 -0.170114
C24   C     C_R   0.105491 0.495473 0.087116 -0.170114
C25   C     C_R   0.571438 0.018501 0.531011 0.106227
C26   C     C_R   0.428558 0.981494 0.468997 0.106224
C27   C     C_R   0.930003 0.541030 0.966870 0.096756
C28   C     C_R   0.069997 0.458970 0.033129 0.096755
C29   C     C_R   0.593374 0.904581 0.485841 0.056324
C30   C     C_R   0.406621 0.095442 0.514161 0.056328
C31   C     C_R   0.909085 0.607751 0.020975 0.046033
C32   C     C_R   0.090914 0.392249 0.979024 0.046033
C33   C     C_R   0.516611 0.054893 0.522956 0.010618
C34   C     C_R   0.483384 0.945097 0.477054 0.010620
C35   C     C_R   0.984770 0.503899 0.970073 -0.009559
C36   C     C_R   0.015230 0.496101 0.029926 -0.009559
C37   C     C_R   0.506469 0.801840 0.441756 0.159883
C38   C     C_R   0.493527 0.198152 0.558254 0.159887
C39   C     C_R   0.989115 0.521193 0.083888 0.149971
C40   C     C_R   0.010885 0.478807 0.916112 0.149971
C41   C     C_R   0.560246 0.797611 0.442064 -0.170484
C42   C     C_R   0.439749 0.202401 0.557940 -0.170480
C43   C     C_R   0.938945 0.593734 0.078694 -0.176816
C44   C     C_R   0.061055 0.406266 0.921306 -0.176817
H1    H     H_    0.576121 0.692546 0.412086 0.164364
H2    H     H_    0.423876 0.307474 0.587916 0.164368
H3    H     H_    0.921560 0.622053 0.121074 0.169477
H4    H     H_    0.078439 0.377947 0.878926 0.169477
H5    H     H_    0.411901 0.876962 0.373414 0.138167
H6    H     H_    0.588096 0.122997 0.626597 0.138164
H7    H     H_    0.094211 0.577589 0.125909 0.150369
H8    H     H_    0.905789 0.422411 0.874091 0.150369
H9    H     H_    0.278730 0.072287 0.454538 0.107438
H10   H     H_    0.721268 0.927782 0.545451 0.107437
H11   H     H_    0.213346 0.280888 0.043232 0.135084
H12   H     H_    0.786654 0.719112 0.956768 0.135084
C45   C     C_R   0.435822 0.806845 0.092278 -0.125542
C46   C     C_R   0.564177 0.193155 0.907722 -0.125541
C47   C     C_R   0.087202 0.308989 0.439406 -0.118862
C48   C     C_R   0.912798 0.691012 0.560594 -0.118863
H13   H     H_    0.461743 0.685893 0.089249 0.118710
H14   H     H_    0.538256 0.314107 0.910751 0.118710
H15   H     H_    0.082364 0.192401 0.471576 0.118617
H16   H     H_    0.917636 0.807599 0.528424 0.118617
C49   C     C_R   0.396190 0.794331 0.131622 -0.138079
C50   C     C_R   0.603810 0.205669 0.868378 -0.138076
C51   C     C_R   0.125803 0.295118 0.398707 -0.145039
C52   C     C_R   0.874197 0.704882 0.601293 -0.145041
H17   H     H_    0.392890 0.663821 0.158448 0.144321
H18   H     H_    0.607110 0.336178 0.841551 0.144322
H19   H     H_    0.150148 0.168264 0.400919 0.121456
H20   H     H_    0.849853 0.831736 0.599082 0.121457
C53   C     C_R   0.361834 0.949139 0.137086 -0.096830
C54   C     C_R   0.638166 0.050861 0.862914 -0.096831
C55   C     C_R   0.133958 0.445331 0.356933 -0.082785
C56   C     C_R   0.866042 0.554669 0.643067 -0.082786
C57   C     C_R   0.368295 0.117822 0.100791 -0.041455
C58   C     C_R   0.631704 0.882178 0.899209 -0.041454
C59   C     C_R   0.100659 0.608246 0.355630 -0.049532
C60   C     C_R   0.899341 0.391754 0.644370 -0.049532
C61   C     C_R   0.408197 0.128402 0.061954 -0.160345
C62   C     C_R   0.591803 0.871598 0.938045 -0.160344
C63   C     C_R   0.062312 0.620593 0.396720 -0.147092
C64   C     C_R   0.937688 0.379407 0.603280 -0.147093
H21   H     H_    0.412817 0.257761 0.034748 0.119544
H22   H     H_    0.587183 0.742239 0.965252 0.119544
H23   H     H_    0.037436 0.746225 0.395599 0.123668
H24   H     H_    0.962564 0.253774 0.604401 0.123668
C65   C     C_R   0.442081 0.974471 0.057516 0.113083
C66   C     C_R   0.557919 0.025529 0.942484 0.113082
C67   C     C_R   0.055630 0.472845 0.439117 0.112374
C68   C     C_R   0.944370 0.527154 0.560883 0.112375
C69   C     C_1   0.483025 0.991343 0.017035 -0.035553
C70   C     C_1   0.516975 0.008657 0.982965 -0.035553
C71   C     C_1   0.016398 0.491269 0.482124 -0.031523
C72   C     C_1   0.983602 0.508731 0.517876 -0.031523
C73   C     C_1   0.672527 0.779853 0.442382 0.303242
N1    N     N_1   0.692192 0.697422 0.404656 -0.314776
C74   C     C_1   0.327470 0.220284 0.557596 0.303242
N2    N     N_1   0.307805 0.302782 0.595309 -0.314784
C75   C     C_1   0.835437 0.757821 0.069461 0.313042
N3    N     N_1   0.817977 0.825138 0.111584 -0.304449
C76   C     C_1   0.164563 0.242179 0.930539 0.313042
N4    N     N_1   0.182023 0.174862 0.888416 -0.304452
I1    I     I_    0.467749 0.546616 0.401245 -0.434100
I2    I     I_    0.532250 0.453358 0.598774 -0.434094
I3    I     I_    0.012596 0.405081 0.173870 -0.392679
I4    I     I_    0.987404 0.594919 0.826130 -0.392680
C77   C     C_1   0.334425 0.282581 0.100671 0.291965
N5    N     N_1   0.307567 0.415446 0.100314 -0.368925
C78   C     C_1   0.665574 0.717419 0.899329 0.291966
N6    N     N_1   0.692433 0.584554 0.899686 -0.368925
C79   C     C_1   0.103318 0.762532 0.311352 0.322198
N7    N     N_1   0.105136 0.886355 0.275890 -0.304445
C80   C     C_1   0.896682 0.237468 0.688648 0.322197
N8    N     N_1   0.894864 0.113645 0.724110 -0.304446

loop_
_geom_bond_atom_site_label_1
_geom_bond_atom_site_label_2
_ccdc_geom_bond_type
O17   V3    S    
C55   C59   A    
O18   V4    S    
C15   C75   S    
O19   V1    S    
C9    C21   A    
C38   I2    S    
O3    C7    A    
C10   C18   A    
O1    V3    S    
O15   V3    S    
C25   C33   A    
C74   N2    T    
C5    C12   S    
C42   H2    S    
O1    C5    A    
C6    C11   S    
C35   C40   A    
C26   C30   A    
C64   H24   S    
C62   C66   A    
C36   C39   A    
C40   C44   A    
C61   C65   A    
C23   H8    S    
C14   C18   A    
C59   C79   S    
C62   H22   S    
O4    C8    A    
C25   C29   A    
C44   H4    S    
C52   H20   S    
O13   V1    S    
O2    V4    S    
O3    V1    S    
C58   C78   S    
C28   C36   A    
C13   C17   A    
C1    O15   A    
C56   C60   A    
C15   C31   A    
C40   I4    S    
C2    O16   A    
C16   C32   A    
O12   C8    A    
O2    C6    A    
C58   C62   A    
C10   C22   A    
C39   I3    S    
C11   C19   A    
C16   C20   A    
C43   H3    S    
C14   C74   S    
C37   I1    S    
C13   C29   A    
C34   C37   A    
O11   C7    A    
C11   C23   A    
C35   C36   A    
C48   C68   A    
C57   C61   A    
C24   H7    S    
O10   V2    S    
C50   H18   S    
O5    V1    S    
O17   V1    S    
C80   N8    T    
C39   C43   A    
O7    V3    S    
C38   C42   A    
O19   V3    S    
C26   C34   A    
C47   C67   A    
C78   N6    T    
C46   C66   A    
C17   H10   S    
C15   C19   A    
C33   C38   A    
C19   H12   S    
C54   C58   A    
C16   C76   S    
O4    V2    S    
C68   C72   S    
C49   C53   A    
C21   H6    S    
O8    V4    S    
O7    C3    A    
O5    C1    A    
C31   C43   A    
C14   C30   A    
O20   V4    S    
O8    C4    A    
C7    C10   S    
C21   C25   A    
O9    C5    A    
C2    C56   S    
C63   C67   A    
C73   N1    T    
C66   C70   S    
C65   C69   S    
O6    V2    S    
O18   V2    S    
C67   C71   S    
C75   N3    T    
C13   C73   S    
C12   C20   A    
C27   C35   A    
C4    O14   A    
C76   N4    T    
C60   C64   A    
C29   C41   A    
C52   C56   A    
O16   V4    S    
O9    V1    S    
C61   H21   S    
C3    O13   A    
C63   H23   S    
C20   H11   S    
C48   H16   S    
C47   H15   S    
O6    C2    A    
C23   C27   A    
C71   C72   T    
O11   V3    S    
C30   C42   A    
C57   C77   S    
O12   V4    S    
C47   C51   A    
C79   N7    T    
C22   C26   A    
C8    C9    S    
C46   C50   A    
C60   C80   S    
C3    C53   S    
C9    C17   A    
C64   C68   A    
O20   V2    S    
C45   C49   A    
C32   C44   A    
C69   C70   T    
C46   H14   S    
O10   C6    A    
C33   C34   A    
C77   N5    T    
C41   H1    S    
C12   C24   A    
C27   C31   A    
C49   H17   S    
C45   H13   S    
O14   V2    S    
C51   H19   S    
C37   C41   A    
C24   C28   A    
C18   H9    S    
C1    C55   S    
C45   C65   A    
C4    C54   S    
C59   C63   A    
C48   C52   A    
C51   C55   A    
C50   C54   A    
C22   H5    S    
C53   C57   A    
C28   C32   A    
