data_mof_unit_4417.cif
_audit_creation_date              2012-10-26T20:29:03-0400
_audit_creation_method            fapswitch 2.2
_symmetry_space_group_name_H-M    P1
_symmetry_Int_Tables_number       1
_space_group_crystal_system       triclinic
_cell_length_a                    15.12966
_cell_length_b                    13.966136
_cell_length_c                    19.507373
_cell_angle_alpha                 90.065604
_cell_angle_beta                  91.761094
_cell_angle_gamma                 89.843513
_cell_volume                      4119.99961467

loop_
_atom_site_label
_atom_site_type_symbol
_atom_type_description
_atom_site_fract_x
_atom_site_fract_y
_atom_site_fract_z
_atom_type_partial_charge
C1    C     C_R   0.329861 0.500101 0.500814 0.529177
C2    C     C_R   0.951859 0.503683 0.507228 -0.055494
C3    C     C_R   0.479050 0.104907 0.558500 0.205220
C4    C     C_R   0.446405 0.892159 0.452543 0.226445
C5    C     C_R   0.521071 0.104923 0.441266 0.201465
C6    C     C_R   0.553760 0.891758 0.547686 0.227539
C7    C     C_R   0.487509 0.206432 0.559479 0.341467
C8    C     C_R   0.446940 0.790282 0.453962 0.363075
C9    C     C_R   0.511912 0.206261 0.440431 0.338225
C10   C     C_R   0.551906 0.789900 0.546972 0.357755
C11   C     C_R   0.500604 0.052813 0.499941 -0.014144
C12   C     C_R   0.670063 0.500031 0.499557 0.514706
C13   C     C_R   0.500579 0.944382 0.499839 0.000803
C14   C     C_R   0.499211 0.499723 0.367573 0.559053
C15   C     C_R   0.501792 0.499934 0.632305 0.546168
C16   C     C_R   0.434417 0.457334 0.743182 0.192824
C17   C     C_R   0.430350 0.549630 0.254510 0.234026
C18   C     C_R   0.558699 0.442942 0.255678 0.204113
C19   C     C_R   0.572855 0.548228 0.745837 0.231031
C20   C     C_R   0.426932 0.472848 0.813945 0.227718
C21   C     C_R   0.427825 0.547878 0.181764 0.239731
C22   C     C_R   0.561504 0.448640 0.183919 0.219900
C23   C     C_R   0.188034 0.581013 0.530326 0.182843
C24   C     C_R   0.564896 0.563466 0.817123 0.247458
C25   C     C_R   0.493350 0.522833 0.851207 -0.046847
C26   C     C_R   0.497289 0.502388 0.146728 -0.065678
C27   C     C_R   0.503881 0.500449 0.708167 -0.082834
C28   C     C_R   0.497053 0.498609 0.291490 -0.083649
C29   C     C_R   0.501338 0.603503 0.966927 -0.110733
C30   C     C_R   0.496494 0.424754 0.031511 -0.109894
C31   C     C_R   0.505174 0.597817 0.038508 -0.131051
C32   C     C_R   0.493275 0.430414 0.960195 -0.115279
C33   C     C_R   0.501768 0.508381 0.071210 0.044403
C34   C     C_R   0.814290 0.421071 0.529184 0.215261
C35   C     C_R   0.494799 0.519725 0.927198 0.061941
C36   C     C_R   0.096297 0.581652 0.530992 -0.120918
C37   C     C_R   0.906894 0.425581 0.533666 -0.135473
C38   C     C_R   0.905263 0.581281 0.479329 -0.122930
C39   C     C_R   0.091740 0.421538 0.483479 -0.145059
C40   C     C_3   0.302036 0.422639 0.686585 0.054194
C41   C     C_3   0.229273 0.350707 0.701927 -0.245345
C42   C     C_3   0.137700 0.391425 0.684061 -0.509016
C43   C     C_3   0.283087 0.571618 0.284228 0.032581
C44   C     C_3   0.270858 0.469731 0.311874 -0.283416
C45   C     C_R   0.813452 0.580713 0.475946 0.183648
C46   C     C_3   0.172902 0.443089 0.311721 -0.469383
C47   C     C_3   0.691157 0.420621 0.314590 0.045662
C48   C     C_3   0.769639 0.354865 0.301142 -0.248207
C49   C     C_3   0.857267 0.402917 0.321007 -0.508448
C50   C     C_3   0.693048 0.495443 0.685633 0.033236
C51   C     C_3   0.791685 0.490301 0.705753 -0.265881
C52   C     C_3   0.842904 0.580038 0.686983 -0.425255
C53   C     C_3   0.285449 0.508821 0.844477 0.015390
C54   C     C_3   0.264137 0.542481 0.916453 -0.270101
C55   C     C_3   0.182170 0.606422 0.915863 -0.493775
C56   C     C_R   0.184559 0.417556 0.482774 0.221847
C57   C     C_3   0.308344 0.534567 0.101324 -0.005081
C58   C     C_3   0.285273 0.433842 0.128557 -0.299257
C59   C     C_3   0.242117 0.371982 0.072525 -0.482841
C60   C     C_3   0.695593 0.452910 0.133393 0.013284
C61   C     C_3   0.764807 0.391814 0.098128 -0.252146
C62   C     C_3   0.853986 0.442605 0.097242 -0.497647
C63   C     C_3   0.706592 0.598316 0.863305 0.033494
C64   C     C_3   0.716961 0.500182 0.898535 -0.291673
C65   C     C_3   0.813977 0.479085 0.916744 -0.496683
C66   C     C_3   0.261964 0.658961 0.617383 0.014517
C67   C     C_R   0.232820 0.499833 0.504436 0.004008
C68   C     C_3   0.306004 0.753615 0.637603 -0.240937
C69   C     C_3   0.345814 0.749417 0.710392 -0.462358
C70   C     C_3   0.802965 0.254426 0.547508 0.010063
C71   C     C_3   0.803073 0.228116 0.471050 -0.270562
C72   C     C_3   0.841208 0.128336 0.460047 -0.504906
C73   C     C_3   0.743455 0.656148 0.385780 0.017170
C74   C     C_3   0.699534 0.750040 0.363134 -0.241802
C75   C     C_3   0.660520 0.742558 0.290235 -0.466298
C76   C     C_3   0.189756 0.250071 0.458810 0.008970
C77   C     C_3   0.181959 0.216052 0.533145 -0.270712
C78   C     C_R   0.767184 0.500336 0.500981 0.001201
C79   C     C_3   0.140375 0.116918 0.536341 -0.502039
C80   C     C_3   0.366750 0.064371 0.627761 -0.105136
C81   C     C_3   0.324297 0.987106 0.429767 -0.127430
C82   C     C_3   0.632058 0.057437 0.373262 -0.099705
C83   C     C_3   0.677085 0.982853 0.571739 -0.133568
C84   C     C_3   0.560960 0.241226 0.659230 -0.067112
C85   C     C_3   0.304896 0.755420 0.416646 -0.017080
C86   C     C_3   0.433149 0.242388 0.343429 -0.058979
C87   C     C_3   0.688868 0.749989 0.593385 -0.019494
C88   C     C_R   0.048339 0.502454 0.507758 -0.057200
Cu1   Cu    Cu3+1 0.500000 0.596430 0.500000 1.052920
Cu2   Cu    Cu3+1 0.500000 0.403570 0.500000 1.045935
H1    H     H_    0.501971 0.673144 0.942645 0.155434
H2    H     H_    0.284235 0.493584 0.708082 0.071223
H3    H     H_    0.656417 0.131321 0.364536 0.149801
H4    H     H_    0.647311 0.014379 0.327281 0.139223
H5    H     H_    0.661173 0.057789 0.557295 0.109392
H6    H     H_    0.704508 0.944225 0.527110 0.069874
H7    H     H_    0.730191 0.985816 0.612151 0.123897
H8    H     H_    0.616802 0.272025 0.630692 0.122594
H9    H     H_    0.575348 0.165333 0.672666 0.150683
H10   H     H_    0.556377 0.281410 0.708071 0.138620
H11   H     H_    0.277438 0.799119 0.373533 0.132239
H12   H     H_    0.269969 0.686026 0.415893 0.154291
H13   H     H_    0.239880 0.284250 0.672010 0.154346
H14   H     H_    0.289297 0.789938 0.466338 0.114224
H15   H     H_    0.379717 0.274867 0.373961 0.125616
H16   H     H_    0.416780 0.166721 0.330773 0.147496
H17   H     H_    0.435217 0.282095 0.294300 0.137804
H18   H     H_    0.713281 0.797096 0.635658 0.139249
H19   H     H_    0.720500 0.679253 0.600535 0.161220
H20   H     H_    0.710771 0.778096 0.543326 0.121847
H21   H     H_    0.232581 0.331260 0.757132 0.194021
H22   H     H_    0.123585 0.454217 0.716987 0.134102
H23   H     H_    0.086737 0.335928 0.692341 0.140805
H24   H     H_    0.133651 0.414025 0.629652 0.153555
H25   H     H_    0.255427 0.578839 0.231586 0.174564
H26   H     H_    0.241259 0.620347 0.314133 0.125792
H27   H     H_    0.306532 0.417158 0.280116 0.124246
H28   H     H_    0.299120 0.465436 0.364751 0.203261
H29   H     H_    0.492658 0.355262 0.055805 0.147796
H30   H     H_    0.165576 0.367431 0.327753 0.174089
H31   H     H_    0.141930 0.451206 0.259766 0.122283
H32   H     H_    0.137141 0.489989 0.347624 0.154847
H33   H     H_    0.686514 0.429716 0.370675 0.144659
H34   H     H_    0.703856 0.492214 0.291772 0.064619
H35   H     H_    0.762783 0.287530 0.330625 0.157277
H36   H     H_    0.769993 0.335646 0.246052 0.189641
H37   H     H_    0.867317 0.467204 0.288720 0.136913
H38   H     H_    0.912615 0.352097 0.313179 0.142467
H39   H     H_    0.858128 0.424804 0.375663 0.148700
H40   H     H_    0.508802 0.663056 0.068511 0.138148
H41   H     H_    0.686521 0.501459 0.629579 0.176115
H42   H     H_    0.664436 0.424947 0.700102 0.079930
H43   H     H_    0.799622 0.475983 0.761221 0.133330
H44   H     H_    0.821546 0.428084 0.679460 0.154819
H45   H     H_    0.844168 0.587911 0.630496 0.147122
H46   H     H_    0.912237 0.573419 0.706789 0.122755
H47   H     H_    0.813138 0.644954 0.709763 0.172367
H48   H     H_    0.225223 0.474870 0.821730 0.144334
H49   H     H_    0.299807 0.573191 0.812666 0.095567
H50   H     H_    0.252369 0.479234 0.949054 0.169623
H51   H     H_    0.489713 0.364839 0.930550 0.139380
H52   H     H_    0.320773 0.583717 0.938259 0.164793
H53   H     H_    0.192517 0.670682 0.883595 0.146940
H54   H     H_    0.169139 0.630155 0.968958 0.142701
H55   H     H_    0.123569 0.566472 0.895605 0.140806
H56   H     H_    0.339684 0.528957 0.051308 0.157006
H57   H     H_    0.244819 0.572125 0.089829 0.139701
H58   H     H_    0.344707 0.395003 0.148511 0.153627
H59   H     H_    0.237831 0.440731 0.170092 0.148452
H60   H     H_    0.182104 0.407866 0.050509 0.140430
H61   H     H_    0.222356 0.302276 0.094609 0.149505
H62   H     H_    0.062449 0.644583 0.549585 0.129975
H63   H     H_    0.289659 0.357845 0.031419 0.161582
H64   H     H_    0.726202 0.485735 0.180142 0.123745
H65   H     H_    0.675001 0.511626 0.097832 0.127137
H66   H     H_    0.773624 0.322393 0.125260 0.176802
H67   H     H_    0.741270 0.376179 0.044808 0.157931
H68   H     H_    0.846331 0.515348 0.074957 0.142161
H69   H     H_    0.900562 0.400683 0.066061 0.144153
H70   H     H_    0.882351 0.449020 0.150250 0.143366
H71   H     H_    0.739136 0.652258 0.897436 0.142323
H72   H     H_    0.742842 0.601961 0.815343 0.184122
H73   H     H_    0.945310 0.370015 0.559033 0.108217
H74   H     H_    0.679290 0.499795 0.946495 0.179143
H75   H     H_    0.691046 0.442677 0.864083 0.145150
H76   H     H_    0.854761 0.480919 0.870541 0.137083
H77   H     H_    0.820225 0.406842 0.940013 0.148971
H78   H     H_    0.840249 0.533032 0.953797 0.144960
H79   H     H_    0.312441 0.601657 0.623470 0.133213
H80   H     H_    0.206073 0.645269 0.651999 0.110119
H81   H     H_    0.359403 0.769649 0.601474 0.185881
H82   H     H_    0.256389 0.812395 0.634153 0.146214
H83   H     H_    0.293355 0.735530 0.747694 0.121339
H84   H     H_    0.940187 0.642722 0.459927 0.130349
H85   H     H_    0.377732 0.818900 0.723305 0.173134
H86   H     H_    0.396606 0.691933 0.714616 0.164673
H87   H     H_    0.759646 0.202461 0.573286 0.128159
H88   H     H_    0.868979 0.244680 0.572809 0.111781
H89   H     H_    0.734223 0.231332 0.449690 0.175347
H90   H     H_    0.844085 0.279531 0.442845 0.157239
H91   H     H_    0.911363 0.125758 0.478378 0.143595
H92   H     H_    0.838003 0.110607 0.404527 0.135700
H93   H     H_    0.803136 0.074128 0.488074 0.128987
H94   H     H_    0.693658 0.598636 0.379299 0.130712
H95   H     H_    0.051429 0.363724 0.463506 0.108936
H96   H     H_    0.800890 0.641403 0.352840 0.112804
H97   H     H_    0.645655 0.768099 0.398489 0.185162
H98   H     H_    0.749083 0.808657 0.365600 0.145949
H99   H     H_    0.713133 0.724982 0.253744 0.123994
H100  H     H_    0.629863 0.812019 0.275124 0.169169
H101  H     H_    0.608832 0.686203 0.287307 0.166147
H102  H     H_    0.233124 0.198387 0.432486 0.128521
H103  H     H_    0.126148 0.246902 0.429138 0.107898
H104  H     H_    0.248986 0.213958 0.557889 0.166981
H105  H     H_    0.140284 0.266145 0.562231 0.156739
H106  H     H_    0.305250 0.430300 0.630298 0.143665
H107  H     H_    0.071941 0.118900 0.514164 0.142491
H108  H     H_    0.138009 0.093411 0.590610 0.138237
H109  H     H_    0.179802 0.064280 0.507564 0.130208
H110  H     H_    0.326986 0.043020 0.581402 0.078326
H111  H     H_    0.349099 0.138135 0.643822 0.159308
H112  H     H_    0.348934 0.015259 0.669762 0.134487
H113  H     H_    0.340983 0.063361 0.438791 0.111725
H114  H     H_    0.300743 0.954602 0.477977 0.067879
H115  H     H_    0.268104 0.985653 0.391914 0.121343
H116  H     H_    0.667766 0.024027 0.417809 0.079107
N1    N     N_R   0.500000 0.258690 0.500000 -0.268108
N2    N     N_R   0.500000 0.741310 0.500000 -0.281565
O1    O     O_R   0.371460 0.581430 0.500010 -0.463626
O2    O     O_3   0.371429 0.605113 0.291016 -0.496123
O3    O     O_3   0.612549 0.376773 0.289550 -0.487836
O4    O     O_3   0.650315 0.576087 0.714986 -0.538940
O5    O     O_3   0.353849 0.438739 0.847218 -0.550394
O6    O     O_3   0.358897 0.594963 0.146844 -0.560206
O7    O     O_3   0.623245 0.394331 0.150002 -0.541143
O8    O     O_3   0.617899 0.628794 0.853076 -0.557600
O9    O     O_3   0.231887 0.664501 0.548397 -0.586466
O10   O     O_3   0.767230 0.346856 0.559037 -0.583982
O11   O     O_3   0.770599 0.663910 0.455297 -0.583665
O12   O     O_R   0.628540 0.418570 0.499990 -0.473696
O13   O     O_3   0.231003 0.340755 0.454744 -0.572566
O14   O     O_3   0.458232 0.055937 0.617522 -0.515793
O15   O     O_3   0.396545 0.938080 0.401450 -0.504407
O16   O     O_3   0.539950 0.056489 0.381529 -0.510477
O17   O     O_3   0.602639 0.937580 0.599246 -0.507265
O18   O     O_3   0.479864 0.251143 0.621877 -0.488030
O19   O     O_3   0.395904 0.738500 0.407119 -0.464535
O20   O     O_3   0.516564 0.250418 0.377703 -0.480254
O21   O     O_3   0.596599 0.738042 0.597539 -0.480980
O22   O     O_R   0.628540 0.581430 0.499990 -0.472770
O23   O     O_R   0.371460 0.418570 0.500010 -0.465472
O24   O     O_R   0.500020 0.581470 0.400190 -0.446731
O25   O     O_R   0.499980 0.418530 0.599810 -0.442596
O26   O     O_R   0.499980 0.581470 0.599810 -0.460146
O27   O     O_R   0.500020 0.418530 0.400190 -0.447010
O28   O     O_3   0.383971 0.386326 0.711525 -0.501119

loop_
_geom_bond_atom_site_label_1
_geom_bond_atom_site_label_2
_ccdc_geom_bond_type
Cu1   O26   S    
C63   H72   S    
C66   C68   S    
C21   C26   A    
C23   O9    S    
C82   H4    S    
C47   O3    S    
C34   C37   A    
C11   C13   S    
C41   C42   S    
C66   H79   S    
C47   H34   S    
C86   H17   S    
C3    C11   A    
C82   H116  S    
C4    C8    A    
C84   O18   S    
C73   H96   S    
C59   H63   S    
C22   C26   A    
C81   H113  S    
C87   H20   S    
C53   C54   S    
C36   C88   A    
C65   H78   S    
C70   O10   S    
C79   H107  S    
C75   H99   S    
C60   O7    S    
C72   H91   S    
C5    C11   A    
C31   H40   S    
C3    C7    A    
C40   H106  S    
C56   O13   S    
C68   H81   S    
C58   H58   S    
C38   H84   S    
Cu1   N2    S    
C82   O16   S    
C20   C25   A    
C16   O28   S    
C23   C67   A    
C80   H110  S    
C6    O17   S    
C86   O20   S    
C73   O11   S    
C73   C74   S    
C71   H89   S    
C4    C13   A    
C8    N2    A    
C43   O2    S    
C10   N2    A    
C38   C45   A    
C42   H22   S    
C42   H23   S    
C43   H25   S    
C48   H35   S    
C15   C27   S    
C42   H24   S    
C54   H50   S    
C87   H18   S    
C80   H111  S    
C68   C69   S    
C12   C78   S    
C47   C48   S    
C62   H68   S    
C46   H31   S    
C2    C88   S    
C45   C78   A    
C85   O19   S    
C69   H86   S    
C63   O8    S    
C19   C27   A    
Cu2   O12   S    
C58   H59   S    
C64   H74   S    
C37   H73   S    
C16   C27   A    
C50   O4    S    
C79   H108  S    
C18   C22   A    
C57   H56   S    
C17   C28   A    
C86   H16   S    
C69   H83   S    
C39   C88   A    
C81   O15   S    
C14   O27   A    
C8    O19   S    
C44   C46   S    
C52   H47   S    
C81   H114  S    
C74   H98   S    
C77   C79   S    
C49   H37   S    
C80   H112  S    
C55   H53   S    
C74   C75   S    
C1    O1    A    
C51   C52   S    
C84   H10   S    
C32   C35   A    
C75   H100  S    
C18   C28   A    
C24   C25   A    
C7    N1    A    
C17   O2    S    
C9    N1    A    
C73   H94   S    
C70   H88   S    
Cu1   O1    S    
C58   C59   S    
C87   O21   S    
C49   H39   S    
C65   H76   S    
C21   O6    S    
C10   O21   S    
C17   C21   A    
C1    C67   S    
C19   O4    S    
Cu2   O25   S    
C60   C61   S    
C71   H90   S    
C75   H101  S    
C77   H104  S    
C5    C9    A    
C64   H75   S    
C76   H102  S    
C61   H67   S    
C43   H26   S    
C45   O11   S    
C2    C38   A    
C26   C33   S    
C47   H33   S    
C39   C56   A    
C44   H28   S    
C16   C20   A    
C83   H5    S    
C15   O25   A    
C31   C33   A    
C50   C51   S    
C46   H30   S    
C76   C77   S    
C32   H51   S    
C70   C71   S    
C85   H14   S    
C50   H42   S    
C25   C35   S    
C40   C41   S    
C54   H52   S    
C3    O14   S    
C53   H48   S    
C57   H57   S    
C43   C44   S    
C83   H7    S    
Cu1   O22   S    
C62   H70   S    
Cu2   O23   S    
C86   H15   S    
C4    O15   S    
C61   H66   S    
C30   H29   S    
C29   H1    S    
C85   H11   S    
C80   O14   S    
C81   H115  S    
C74   H97   S    
C83   O17   S    
C59   H60   S    
C63   H71   S    
C49   H38   S    
C65   H77   S    
C54   C55   S    
C48   C49   S    
C53   O5    S    
C55   H54   S    
C30   C33   A    
C53   H49   S    
C84   H9    S    
C14   O24   A    
C66   H80   S    
C36   H62   S    
C72   H93   S    
C63   C64   S    
C50   H41   S    
C6    C10   A    
C34   O10   S    
C70   H87   S    
C12   O22   A    
C87   H19   S    
C7    O18   S    
C59   H61   S    
C76   O13   S    
C66   O9    S    
C56   C67   A    
C79   H109  S    
C29   C35   A    
C84   H8    S    
C20   O5    S    
C18   O3    S    
C77   H105  S    
C60   H65   S    
C72   H92   S    
C71   C72   S    
C29   C31   A    
C64   C65   S    
C6    C13   A    
C30   C32   A    
C51   H43   S    
C2    C37   A    
C57   C58   S    
C44   H27   S    
C52   H46   S    
C83   H6    S    
C15   O26   A    
C51   H44   S    
Cu2   O27   S    
C19   C24   A    
C9    O20   S    
Cu1   O24   S    
C61   C62   S    
C40   O28   S    
C60   H64   S    
C1    O23   A    
C40   H2    S    
C55   H55   S    
C76   H103  S    
C48   H36   S    
Cu2   N1    S    
C39   H95   S    
C41   H13   S    
C5    O16   S    
C57   O6    S    
C23   C36   A    
C41   H21   S    
C82   H3    S    
C52   H45   S    
C62   H69   S    
C46   H32   S    
C69   H85   S    
C14   C28   S    
Cu1   Cu2   S    
C22   O7    S    
C12   O12   A    
C34   C78   A    
C85   H12   S    
C68   H82   S    
C24   O8    S    
