data_mof_unit_4820.cif
_audit_creation_date              2012-12-10T20:35:52-0500
_audit_creation_method            fapswitch 2.2
_symmetry_space_group_name_H-M    P1
_symmetry_Int_Tables_number       1
_space_group_crystal_system       triclinic
_cell_length_a                    15.761396
_cell_length_b                    10.672403
_cell_length_c                    9.945965
_cell_angle_alpha                 88.781104
_cell_angle_beta                  90.480492
_cell_angle_gamma                 91.182104
_cell_volume                      1672.24295889

loop_
_atom_site_label
_atom_site_type_symbol
_atom_type_description
_atom_site_fract_x
_atom_site_fract_y
_atom_site_fract_z
_atom_type_partial_charge
C1    C     C_R   0.501338 0.260380 0.501400 0.967065
C2    C     C_3   0.949885 0.409312 0.613450 -0.153893
C3    C     C_3   0.916671 0.498625 0.497451 -0.236921
C4    C     C_3   0.951532 0.636136 0.525721 0.679173
C5    C     C_3   0.051564 0.638626 0.507436 0.396550
C6    C     C_1   0.825106 0.499289 0.500429 0.294073
C7    C     C_1   0.174512 0.497210 0.498291 0.278164
C8    C     C_1   0.249748 0.498146 0.498648 -0.008294
C9    C     C_R   0.457647 0.058044 0.593065 -0.130328
C10   C     C_R   0.509188 0.128395 0.505507 -0.149335
C11   C     C_R   0.571720 0.069688 0.428710 0.173681
C12   C     C_R   0.338541 0.499629 0.499586 0.923471
C13   C     C_R   0.571275 0.937410 0.425456 0.406282
C14   C     C_R   0.508405 0.870996 0.498258 -0.067229
C15   C     C_R   0.455865 0.931099 0.585028 -0.155296
C16   C     C_3   0.362742 0.915596 0.607910 0.027025
C17   C     C_3   0.363710 0.058221 0.622922 0.670456
C18   C     C_R   0.432098 0.453108 0.070769 -0.019061
C19   C     C_R   0.561415 0.563377 0.070578 0.421762
C20   C     C_R   0.561180 0.563346 0.927639 0.305580
C21   C     C_R   0.431464 0.455108 0.929260 -0.020755
C22   C     C_3   0.389853 0.329515 0.920561 0.054004
C23   C     C_R   0.502944 0.739153 0.498742 0.980111
C24   C     C_3   0.393836 0.323437 0.075187 0.599768
C25   C     C_R   0.661380 0.500240 0.500430 0.909683
C26   C     C_3   0.049152 0.417841 0.623043 0.641006
C27   C     C_3   0.048222 0.439116 0.361073 0.438851
C28   C     C_3   0.947810 0.454811 0.354710 0.515915
C29   C     C_1   0.749986 0.499892 0.501307 -0.016558
C30   C     C_3   0.082635 0.497657 0.497760 -0.168899
H1    H     H_    0.923037 0.440472 0.709705 0.181237
H2    H     H_    0.348999 0.861700 0.702405 0.170455
H3    H     H_    0.431333 0.262255 0.870433 0.150140
N1    N     N_R   0.499430 0.499140 0.142800 -0.183677
N2    N     N_R   0.499430 0.499180 0.857150 -0.179635
O1    O     O_R   0.500010 0.316790 0.614690 -0.626765
O2    O     O_R   0.500000 0.316760 0.385350 -0.543205
O3    O     O_R   0.377150 0.500020 0.614720 -0.580432
O4    O     O_R   0.377140 0.499990 0.385380 -0.586114
O5    O     O_R   0.500000 0.683240 0.614650 -0.605957
O6    O     O_R   0.499990 0.683210 0.385310 -0.616816
O7    O     O_R   0.622860 0.500010 0.614620 -0.593019
O8    O     O_R   0.622850 0.499980 0.385280 -0.593937
Zn1   Zn    Zn3+2 0.500010 0.500020 0.653130 1.036866
Zn2   Zn    Zn3+2 0.499990 0.499980 0.346870 1.067042
Br1   Br    Br    0.903262 0.237175 0.614812 -0.294657
O9    O     O_3   0.074628 0.478012 0.742296 -0.734009
H4    H     H_    0.050693 0.430019 0.820265 0.358664
O10   O     O_3   0.913943 0.721207 0.433770 -0.638470
H5    H     H_    0.931452 0.807100 0.460747 0.420748
Br2   Br    Br    0.656058 0.169400 0.331888 -0.378013
O11   O     O_3   0.628964 0.870311 0.353346 -0.734997
H6    H     H_    0.668881 0.927723 0.305667 0.402890
Br3   Br    Br    0.302291 0.849826 0.451337 -0.381779
Br4   Br    Br    0.296114 0.155432 0.495320 -0.240120
O12   O     O_3   0.346469 0.091936 0.755562 -0.704049
H7    H     H_    0.386065 0.047717 0.817758 0.329760
O13   O     O_3   0.625122 0.630244 0.133378 -0.657929
H8    H     H_    0.603345 0.656485 0.220333 0.402529
O14   O     O_3   0.085143 0.297822 0.624532 -0.617861
H9    H     H_    0.072706 0.255646 0.712272 0.395222
Br5   Br    Br    0.645282 0.666063 0.837570 -0.293235
Br6   Br    Br    0.277068 0.346119 0.840309 -0.255995
Br7   Br    Br    0.286437 0.317207 0.169537 -0.231328
O15   O     O_3   0.449513 0.232081 0.126139 -0.699573
H10   H     H_    0.505272 0.243652 0.081193 0.325028
O16   O     O_3   0.087486 0.502398 0.251567 -0.705310
H11   H     H_    0.067629 0.460860 0.168296 0.391733
Br8   Br    Br    0.084046 0.263149 0.343811 -0.179822
Br9   Br    Br    0.886946 0.302812 0.293921 -0.220814
O17   O     O_3   0.922431 0.542291 0.253968 -0.656016
H12   H     H_    0.963382 0.613085 0.245517 0.428091
Br10  Br    Br    0.110198 0.735083 0.650432 -0.286135
O18   O     O_3   0.071304 0.705470 0.387550 -0.672266
H13   H     H_    0.133926 0.713863 0.381480 0.403904
O19   O     O_3   0.926315 0.673442 0.655151 -0.695918
H14   H     H_    0.961674 0.633522 0.725563 0.367498

loop_
_geom_bond_atom_site_label_1
_geom_bond_atom_site_label_2
_ccdc_geom_bond_type
C18   C21   A    
C19   C20   A    
C3    C6    S    
C25   O8    A    
C7    C8    T    
C2    Br1   S    
C18   C24   S    
C3    C28   S    
C15   C16   S    
O12   H7    S    
C5    O18   S    
O10   H5    S    
C22   Br6   S    
C20   N2    A    
C16   C17   S    
C9    C10   A    
C17   Br4   S    
C27   Br8   S    
C1    O2    A    
O4    Zn2   S    
C24   Br7   S    
C7    C30   S    
C13   C14   A    
C27   C30   S    
C12   O3    A    
O7    Zn1   S    
C19   O13   S    
C25   C29   S    
O18   H13   S    
O16   H11   S    
C27   O16   S    
O19   H14   S    
O13   H8    S    
O14   H9    S    
C14   C23   S    
O3    Zn1   S    
C13   O11   S    
O8    Zn2   S    
O9    H4    S    
C8    C12   S    
C2    C26   S    
N1    Zn2   S    
N2    Zn1   S    
C18   N1    A    
C17   O12   S    
C26   O9    S    
C24   O15   S    
C9    C17   S    
C26   C30   S    
C22   C24   S    
O1    Zn1   S    
C28   O17   S    
O2    Zn2   S    
C3    C4    S    
O11   H6    S    
C5    C30   S    
C22   H3    S    
C5    Br10  S    
C28   Br9   S    
C1    C10   S    
C4    C5    S    
C19   N1    A    
C25   O7    A    
C21   N2    A    
C16   H2    S    
C23   O6    A    
C4    O10   S    
C12   O4    A    
C2    C3    S    
C9    C15   A    
O17   H12   S    
C11   C13   A    
C20   Br5   S    
C16   Br3   S    
C4    O19   S    
C11   Br2   S    
C10   C11   A    
O5    Zn1   S    
C6    C29   T    
O15   H10   S    
C27   C28   S    
O6    Zn2   S    
C14   C15   A    
C2    H1    S    
C21   C22   S    
C26   O14   S    
C23   O5    A    
C1    O1    A    
