data_mof_unit_670.cif
_audit_creation_date              2013-03-05T15:52:55-0500
_audit_creation_method            fapswitch 2.2
_symmetry_space_group_name_H-M    P1
_symmetry_Int_Tables_number       1
_space_group_crystal_system       triclinic
_cell_length_a                    15.018617
_cell_length_b                    10.62549
_cell_length_c                    10.082794
_cell_angle_alpha                 86.339277
_cell_angle_beta                  88.940715
_cell_angle_gamma                 91.524371
_cell_volume                      1604.83404353

loop_
_atom_site_label
_atom_site_type_symbol
_atom_site_description
_atom_site_fract_x
_atom_site_fract_y
_atom_site_fract_z
_atom_type_partial_charge
O1    O     O_R   0.500000 0.316780 0.614690 -0.573115
O2    O     O_R   0.499990 0.316750 0.385360 -0.627857
C1    C     C_R   0.510938 0.261084 0.504430 0.904362
O3    O     O_R   0.367850 0.499980 0.614680 -0.591404
O4    O     O_R   0.367840 0.499960 0.385350 -0.617960
C2    C     C_R   0.327255 0.499119 0.500059 0.955268
Zn1   Zn    Zn3+2 0.500010 0.500020 0.653130 1.022192
Zn2   Zn    Zn3+2 0.499990 0.499980 0.346870 1.006922
O5    O     O_R   0.500010 0.683250 0.614640 -0.638919
O6    O     O_R   0.500000 0.683220 0.385310 -0.628336
O7    O     O_R   0.632160 0.500040 0.614650 -0.604268
O8    O     O_R   0.632150 0.500020 0.385320 -0.605816
C3    C     C_R   0.493499 0.739904 0.497087 0.961705
C4    C     C_R   0.672390 0.500746 0.498936 0.989020
C5    C     C_R   0.814373 0.620759 0.486993 0.199456
C6    C     C_R   0.768054 0.504121 0.496206 -0.189145
C7    C     C_R   0.812092 0.390312 0.500603 0.203085
C8    C     C_R   0.904086 0.391684 0.484295 0.050179
C9    C     C_R   0.953105 0.506820 0.485312 -0.039928
C10   C     C_R   0.908646 0.622852 0.491799 0.038224
C11   C     C_R   0.947512 0.279772 0.463908 -0.154158
C12   C     C_R   0.039622 0.277023 0.455498 0.083596
C13   C     C_R   0.090230 0.387491 0.477872 0.105823
C14   C     C_R   0.046619 0.504604 0.481975 -0.058450
C15   C     C_R   0.096751 0.619055 0.481246 -0.032817
C16   C     C_R   0.053345 0.732713 0.501876 0.266069
C17   C     C_R   0.959769 0.734702 0.507203 0.055152
C18   C     C_R   0.182646 0.385803 0.499463 -0.059247
C19   C     C_R   0.231111 0.500430 0.496185 -0.155343
C20   C     C_R   0.189312 0.614332 0.464023 0.274849
H1    H     H_    0.910165 0.193630 0.449114 0.195632
C21   C     C_R   0.516493 0.084590 0.764527 0.271659
C22   C     C_R   0.471777 0.014070 0.869552 0.134124
C23   C     C_R   0.413538 0.914756 0.843913 0.177314
C24   C     C_R   0.407989 0.876039 0.714587 0.238581
C25   C     C_R   0.463456 0.934374 0.611189 -0.087712
C26   C     C_R   0.503237 0.051977 0.631293 -0.119411
C27   C     C_R   0.530505 0.127424 0.516020 -0.090304
C28   C     C_R   0.556187 0.069726 0.400550 0.323251
H2    H     H_    0.561311 0.896993 0.305806 0.205657
C29   C     C_R   0.536020 0.943357 0.390878 -0.156988
C30   C     C_R   0.488543 0.875576 0.493820 -0.058802
C31   C     C_R   0.354241 0.386772 0.146278 0.131283
C32   C     C_R   0.272786 0.393560 0.081651 0.155294
C33   C     C_R   0.273970 0.381401 0.944119 0.025053
C34   C     C_R   0.357135 0.382239 0.876910 0.112820
C35   C     C_R   0.431461 0.439469 0.934446 0.121459
C36   C     C_R   0.430865 0.440384 0.077204 0.035173
N1    N     N_R   0.499150 0.498800 0.142780 -0.129136
C37   C     C_R   0.560292 0.570179 0.065107 0.184094
C38   C     C_R   0.560088 0.570923 0.923215 0.179622
N2    N     N_R   0.499120 0.498720 0.857170 -0.117943
Br1   Br    Br    0.744359 0.771111 0.458554 -0.500202
Br2   Br    Br    0.609718 0.201490 0.811481 -0.312757
Br3   Br    Br    0.484953 0.056273 0.048818 -0.435544
Br4   Br    Br    0.346102 0.825684 0.987878 -0.352115
Br5   Br    Br    0.314735 0.757456 0.681649 -0.386807
N3    N     N_3   0.623298 0.652754 0.124311 -0.387640
H3    H     H_    0.610561 0.745256 0.089945 0.193355
H4    H     H_    0.610697 0.653767 0.225005 0.259541
N4    N     N_3   0.361303 0.273593 0.229620 -0.405352
H5    H     H_    0.422134 0.231755 0.213721 0.267586
H6    H     H_    0.351567 0.291236 0.328549 0.218388
N5    N     N_3   0.191809 0.377503 0.159780 -0.436231
H7    H     H_    0.188819 0.454627 0.218934 0.204185
H8    H     H_    0.135954 0.384285 0.099715 0.225922
N6    N     N_3   0.193278 0.350475 0.878040 -0.442319
H9    H     H_    0.188427 0.412234 0.793678 0.220278
H10   H     H_    0.196448 0.258334 0.848061 0.201056
N7    N     N_3   0.371016 0.291301 0.781619 -0.375108
H11   H     H_    0.322435 0.299960 0.710556 0.201044
H12   H     H_    0.359207 0.202591 0.830263 0.184470
Br6   Br    Br    0.746988 0.232888 0.536979 -0.421815
N8    N     N_3   0.621794 0.657903 0.852659 -0.397888
H13   H     H_    0.618894 0.652558 0.751662 0.266063
H14   H     H_    0.600964 0.749060 0.867867 0.178175
N9    N     N_3   0.080532 0.165030 0.413887 -0.415222
H15   H     H_    0.105740 0.185747 0.317421 0.219737
H16   H     H_    0.033275 0.092203 0.406012 0.213864
N10   N     N_3   0.228289 0.270243 0.526730 -0.494233
H17   H     H_    0.193387 0.215281 0.601245 0.235782
H18   H     H_    0.233191 0.220570 0.441341 0.240685
Br7   Br    Br    0.254301 0.745403 0.356456 -0.356947
Br8   Br    Br    0.118189 0.881138 0.552895 -0.450142
N11   N     N_3   0.917246 0.848378 0.539301 -0.361293
H19   H     H_    0.935784 0.920239 0.467826 0.224550
H20   H     H_    0.937365 0.873449 0.632973 0.242063
Br9   Br    Br    0.631626 0.155163 0.264538 -0.334989

loop_
_geom_bond_atom_site_label_1
_geom_bond_atom_site_label_2
_geom_bond_distance
_ccdc_geom_bond_type
C22   Br3   1.902455 S    
C23   Br4   1.935917 S    
C8    C11   1.396118 A    
C29   C30   1.397970 A    
C25   C30   1.422382 A    
C24   C25   1.422309 A    
C38   N8    1.437079 S    
C28   C29   1.378538 A    
N9    H15   1.045201 S    
C32   N5    1.437053 S    
Zn1   O7    2.015218 S    
C11   H1    1.080676 S    
C16   C17   1.406184 A    
C19   C20   1.400640 A    
N8    H14   1.045399 S    
C5    Br1   1.944778 S    
C18   C19   1.400407 A    
Zn1   N2    2.056251 S    
C8    C9    1.411643 A    
O4    C2    1.296781 A    
O7    C4    1.303425 A    
N3    H4    1.030099 S    
C5    C6    1.401988 A    
N4    H6    1.035102 S    
C23   C24   1.395431 A    
C20   Br7   1.940168 S    
C17   N11   1.433473 S    
O5    C3    1.301187 A    
C9    C10   1.422189 A    
C1    C27   1.455777 S    
C6    C7    1.392313 A    
C33   N6    1.434275 S    
C13   C14   1.424121 A    
N7    H11   1.033772 S    
C31   C36   1.420809 A    
N9    H16   1.043805 S    
C11   C12   1.385588 A    
C7    Br6   1.926104 S    
C28   Br9   1.928027 S    
O3    Zn1   2.029382 S    
C21   Br2   1.932454 S    
C3    C30   1.443785 S    
C37   C38   1.430244 A    
N11   H20   1.045325 S    
C5    C10   1.417200 A    
N8    H13   1.025192 S    
C38   N2    1.385955 A    
C37   N3    1.437076 S    
C14   C15   1.412731 A    
N10   H18   1.040667 S    
N3    H3    1.044831 S    
N11   H19   1.044456 S    
N6    H9    1.045478 S    
O1    C1    1.302143 A    
N5    H8    1.045037 S    
C31   C32   1.398046 A    
C26   C27   1.416756 A    
C35   C36   1.439918 A    
Zn2   O8    2.029383 S    
C7    C8    1.387932 A    
C21   C26   1.424794 A    
O3    C2    1.317020 A    
C36   N1    1.384846 A    
O8    C4    1.305415 A    
C4    C6    1.435941 S    
C13   C18   1.409313 A    
C32   C33   1.400727 A    
C31   N4    1.429900 S    
C15   C20   1.400375 A    
Zn1   O5    1.960759 S    
C34   C35   1.408988 A    
C25   C26   1.398787 A    
C16   Br8   1.934070 S    
O1    Zn1   2.009338 S    
O2    Zn2   1.960759 S    
C12   N9    1.436219 S    
N10   H17   1.045668 S    
O6    C3    1.314616 A    
O4    Zn2   2.015218 S    
N7    H12   1.043711 S    
C35   N2    1.382039 A    
C10   C17   1.416173 A    
C24   Br5   1.906869 S    
C21   C22   1.406924 A    
C9    C14   1.405083 A    
C15   C16   1.412679 A    
N5    H7    1.045311 S    
C27   C28   1.402588 A    
C22   C23   1.392666 A    
O2    C1    1.319097 A    
N4    H5    1.040808 S    
C18   N10   1.435906 S    
C34   N7    1.422018 S    
C33   C34   1.409510 A    
C2    C19   1.445610 S    
Zn2   O6    2.009338 S    
N1    C37   1.375604 A    
C12   C13   1.413863 A    
H2    C29   1.083787 S    
N6    H10   1.044944 S    
Zn2   N1    2.058906 S    
