data_mof_unit_2143.cif
_audit_creation_date              2012-12-10T17:31:10-0500
_audit_creation_method            fapswitch 2.2
_symmetry_space_group_name_H-M    P1
_symmetry_Int_Tables_number       1
_space_group_crystal_system       triclinic
_cell_length_a                    11.989312
_cell_length_b                    12.901461
_cell_length_c                    15.460537
_cell_angle_alpha                 87.139052
_cell_angle_beta                  115.370791
_cell_angle_gamma                 93.549684
_cell_volume                      2155.91544256

loop_
_atom_site_label
_atom_site_type_symbol
_atom_type_description
_atom_site_fract_x
_atom_site_fract_y
_atom_site_fract_z
_atom_type_partial_charge
C1    C     C_R   0.477648 0.299448 0.499623 0.905241
C2    C     C_R   0.522499 0.700551 0.500733 0.902587
C3    C     C_R   0.657815 0.585457 0.109810 -0.227270
C4    C     C_R   0.363771 0.593897 0.888883 -0.232614
C5    C     C_R   0.744259 0.579319 0.072691 -0.235750
C6    C     C_R   0.276910 0.597039 0.925888 -0.239228
C7    C     C_R   0.536796 0.811797 0.502721 -0.094219
C8    C     C_R   0.464124 0.188133 0.499845 -0.097630
C9    C     C_R   0.335744 0.030553 0.468632 0.107920
C10   C     C_R   0.666161 0.968946 0.538308 0.110514
C11   C     C_R   0.348163 0.138208 0.474071 -0.239643
C12   C     C_R   0.653178 0.861503 0.530381 -0.241144
C13   C     C_R   0.569297 0.132088 0.523292 -0.266325
C14   C     C_R   0.431989 0.867835 0.480672 -0.265624
C15   C     C_R   0.559985 0.025349 0.517546 0.128413
C16   C     C_R   0.441843 0.974268 0.488899 0.128055
C17   C     C_R   0.001236 0.594946 0.406732 -0.335288
C18   C     C_R   0.998646 0.404927 0.593063 -0.331142
C19   C     C_R   0.122563 0.586446 0.416511 0.018462
C20   C     C_R   0.877376 0.413447 0.583362 0.021074
C21   C     C_R   0.162012 0.459727 0.541255 -0.056627
C22   C     C_R   0.837936 0.540283 0.458699 -0.053575
C23   C     C_R   0.576362 0.497224 0.680493 0.872702
C24   C     C_R   0.424365 0.507641 0.319596 0.879354
C25   C     C_R   0.040658 0.465687 0.534067 0.091207
C26   C     C_R   0.959264 0.534299 0.465822 0.093030
C27   C     C_R   0.624417 0.512870 0.783363 -0.061091
C28   C     C_R   0.381417 0.529122 0.216985 -0.060190
C29   C     C_R   0.791410 0.543953 0.939555 -0.202627
C30   C     C_R   0.222649 0.570252 0.059674 -0.203118
C31   C     C_R   0.751249 0.520775 0.843268 -0.200429
C32   C     C_R   0.257256 0.545619 0.156407 -0.199689
C33   C     C_R   0.539154 0.529891 0.819719 -0.260399
C34   C     C_R   0.470333 0.540564 0.181154 -0.262420
C35   C     C_R   0.577041 0.558832 0.913995 0.091916
C36   C     C_R   0.438799 0.568949 0.085779 0.092200
C37   C     C_R   0.704996 0.561468 0.975675 0.178610
C38   C     C_R   0.312253 0.579755 0.023541 0.179635
C39   C     C_R   0.489635 0.577605 0.949632 0.067930
C40   C     C_R   0.529340 0.578168 0.049634 0.070258
H1    H     H_    0.841847 0.584103 0.120732 0.143629
H2    H     H_    0.181032 0.608150 0.877394 0.146454
H3    H     H_    0.845780 0.366651 0.629245 0.124773
H4    H     H_    0.154132 0.633140 0.370554 0.127083
H5    H     H_    0.940819 0.648331 0.353304 0.143020
H6    H     H_    0.058983 0.351387 0.646338 0.145541
H7    H     H_    0.564286 0.523076 0.228108 0.160785
H8    H     H_    0.442192 0.517392 0.773855 0.158735
H9    H     H_    0.187345 0.538737 0.183467 0.151870
H10   H     H_    0.818802 0.509143 0.815886 0.153120
H11   H     H_    0.889591 0.547531 0.985818 0.129087
H12   H     H_    0.125936 0.580168 0.012893 0.128876
H13   H     H_    0.693824 0.598101 0.185705 0.141015
H14   H     H_    0.330608 0.606402 0.812478 0.151643
H15   H     H_    0.342161 0.827826 0.457449 0.185016
H16   H     H_    0.658718 0.172372 0.544627 0.184897
H17   H     H_    0.733916 0.816715 0.547690 0.158433
H18   H     H_    0.267382 0.182921 0.456812 0.160676
H19   H     H_    0.774552 0.593068 0.406778 0.121137
H20   H     H_    0.225374 0.406935 0.593169 0.125271
N1    N     N_R   0.799120 0.480200 0.517090 -0.096481
N2    N     N_R   0.200880 0.519800 0.482910 -0.096905
O1    O     O_R   0.580150 0.341050 0.504560 -0.621489
O2    O     O_R   0.419850 0.658950 0.495440 -0.625726
O3    O     O_R   0.388090 0.353760 0.493600 -0.622031
O4    O     O_R   0.611910 0.646240 0.506400 -0.623894
O5    O     O_R   0.650890 0.490020 0.640860 -0.622735
O6    O     O_R   0.349110 0.509980 0.359140 -0.620834
O7    O     O_R   0.458830 0.502730 0.629890 -0.621562
O8    O     O_R   0.541170 0.497270 0.370110 -0.619257
Zn1   Zn    Zn3+2 0.628240 0.491510 0.507320 0.940215
Zn2   Zn    Zn3+2 0.371760 0.508490 0.492680 0.938493
N3    N     N_3   0.216338 0.978512 0.441678 -0.472950
H21   H     H_    0.216970 0.939418 0.502767 0.179175
H22   H     H_    0.147193 0.032356 0.420821 0.185731
N4    N     N_3   0.786089 0.020675 0.567663 -0.470780
H23   H     H_    0.813828 0.045068 0.637654 0.174488
H24   H     H_    0.851222 0.968813 0.570313 0.182419

loop_
_geom_bond_atom_site_label_1
_geom_bond_atom_site_label_2
_ccdc_geom_bond_type
C8    C13   A    
C5    C37   A    
C1    C8    S    
N3    H21   S    
C23   O7    A    
C2    C7    S    
C24   O8    A    
C27   C33   A    
C17   C26   A    
C35   C37   A    
C9    C16   A    
C17   H5    S    
C10   C15   A    
C19   N2    A    
C15   C16   A    
C1    O1    A    
C30   C38   A    
C23   O5    A    
C20   N1    A    
C21   C25   A    
C17   C19   A    
C10   N4    S    
C7    C14   A    
C1    O3    A    
C6    C38   A    
O8    Zn1   S    
C23   C27   S    
C11   H18   S    
O5    Zn1   S    
C13   H16   S    
N1    Zn1   S    
C14   H15   S    
C28   C34   A    
N3    H22   S    
C18   C25   A    
C9    N3    S    
C18   H6    S    
C2    O2    A    
C7    C12   A    
C27   C31   A    
C36   C40   A    
N4    H23   S    
C21   H20   S    
C4    C6    A    
C22   H19   S    
C3    C5    A    
C25   C26   A    
O7    Zn2   S    
C35   C39   A    
O4    Zn1   S    
C4    C39   A    
C28   C32   A    
O6    Zn2   S    
N2    Zn2   S    
C9    C11   A    
C21   N2    A    
C10   C12   A    
C12   H17   S    
O1    Zn1   S    
C3    C40   A    
C13   C15   A    
C22   C26   A    
C14   C16   A    
C31   H10   S    
C39   C40   A    
C20   H3    S    
C19   H4    S    
C29   H11   S    
C5    H1    S    
C4    H14   S    
C24   C28   S    
N4    H24   S    
C2    O4    A    
O3    Zn2   S    
C36   C38   A    
C29   C31   A    
C22   N1    A    
C30   C32   A    
C3    H13   S    
C30   H12   S    
C8    C11   A    
C33   C35   A    
C34   C36   A    
C18   C20   A    
O2    Zn2   S    
C32   H9    S    
C24   O6    A    
C6    H2    S    
C29   C37   A    
C33   H8    S    
C34   H7    S    
