data_mof_unit_4005.cif
_audit_creation_date              2012-10-26T20:09:47-0400
_audit_creation_method            fapswitch 2.2
_symmetry_space_group_name_H-M    P1
_symmetry_Int_Tables_number       1
_space_group_crystal_system       triclinic
_cell_length_a                    10.780832
_cell_length_b                    9.484405
_cell_length_c                    15.860687
_cell_angle_alpha                 90.06997
_cell_angle_beta                  88.222016
_cell_angle_gamma                 89.040073
_cell_volume                      1620.74097394

loop_
_atom_site_label
_atom_site_type_symbol
_atom_type_description
_atom_site_fract_x
_atom_site_fract_y
_atom_site_fract_z
_atom_type_partial_charge
Br1   Br    Br    0.313964 0.166688 0.635712 -0.413085
Br2   Br    Br    0.334918 0.839723 0.651256 -0.317627
Br3   Br    Br    0.083927 0.810072 0.537524 -0.482576
Br4   Br    Br    0.134481 0.552065 0.683828 -0.402629
C1    C     C_R   0.259467 0.501089 0.499027 0.606260
C2    C     C_3   0.920972 0.490021 0.585510 -0.204167
C3    C     C_3   0.077227 0.385532 0.435777 -0.307218
C4    C     C_3   0.120613 0.502463 0.497726 0.056797
C5    C     C_3   0.877041 0.497758 0.493246 0.001330
C6    C     C_R   0.499350 0.499974 0.340434 0.531471
C7    C     C_3   0.934112 0.371269 0.442422 -0.264566
C8    C     C_3   0.622472 0.081370 0.473701 -0.154372
C9    C     C_3   0.621416 0.914564 0.471377 -0.154394
C10   C     C_3   0.471213 0.085901 0.587622 0.187278
C11   C     C_3   0.477127 0.918511 0.588533 0.196528
C12   C     C_3   0.639075 0.542932 0.945014 -0.184856
C13   C     C_3   0.407941 0.084574 0.443784 -0.098968
C14   C     C_3   0.405581 0.918381 0.445857 -0.101887
C15   C     C_R   0.739541 0.498931 0.494891 0.535532
C16   C     C_R   0.500106 0.499981 0.659679 0.610036
C17   C     C_3   0.413732 0.607501 0.051403 -0.233019
C18   C     C_3   0.476796 0.354536 0.049652 -0.228136
C19   C     C_3   0.480623 0.351551 0.952187 -0.225279
C20   C     C_3   0.410610 0.606145 0.953950 -0.213149
C21   C     C_1   0.501897 0.499704 0.749312 0.026499
C22   C     C_3   0.514191 0.502187 0.082710 0.101615
C23   C     C_3   0.647961 0.544583 0.044756 0.071391
C24   C     C_3   0.508448 0.500080 0.916978 0.036925
C25   C     C_3   0.691048 0.692724 0.079815 -0.241369
C26   C     C_3   0.667216 0.827500 0.027681 -0.305407
C27   C     C_3   0.682238 0.959988 0.080852 -0.466065
C28   C     C_3   0.751895 0.432151 0.066941 -0.236453
C29   C     C_3   0.788934 0.420775 0.160522 -0.290295
C30   C     C_3   0.756887 0.278137 0.199452 -0.440539
C31   C     C_1   0.504351 0.499382 0.824835 -0.048012
C32   C     C_1   0.506834 0.500648 0.175135 -0.082037
C33   C     C_1   0.501758 0.500087 0.250778 -0.060641
C34   C     C_3   0.066094 0.646675 0.464421 0.048867
C35   C     C_3   0.062456 0.464025 0.586044 0.075043
C36   C     C_3   0.926496 0.633144 0.449792 -0.206170
Cu1   Cu    Cu3+1 0.499860 0.642410 0.500040 0.963612
Cu2   Cu    Cu3+1 0.499860 0.357590 0.500040 0.934290
H1    H     H_    0.316413 0.575982 0.934266 0.150036
H2    H     H_    0.697167 0.875216 0.511448 0.127681
H3    H     H_    0.649307 0.122375 0.410126 0.124246
H4    H     H_    0.643934 0.876545 0.406192 0.120655
H5    H     H_    0.542762 0.122572 0.631317 0.107936
H6    H     H_    0.556299 0.887059 0.628309 0.093106
H7    H     H_    0.313405 0.126348 0.459541 0.165984
H8    H     H_    0.312090 0.884573 0.466600 0.201891
H9    H     H_    0.429223 0.119608 0.378101 0.104860
H10   H     H_    0.420334 0.877175 0.380616 0.103752
H11   H     H_    0.320631 0.577680 0.077369 0.109669
H12   H     H_    0.389995 0.314796 0.929426 0.144720
H13   H     H_    0.380954 0.330175 0.072830 0.113805
H14   H     H_    0.536531 0.268892 0.074374 0.107217
H15   H     H_    0.429267 0.715498 0.075341 0.117590
H16   H     H_    0.553188 0.274666 0.929202 0.116993
H17   H     H_    0.427434 0.713574 0.928629 0.128461
H18   H     H_    0.662544 0.644250 0.914859 0.114861
H19   H     H_    0.707964 0.467557 0.915523 0.102536
H20   H     H_    0.113622 0.673284 0.403338 0.102351
H21   H     H_    0.079023 0.349395 0.596925 0.171035
H22   H     H_    0.875644 0.728985 0.472852 0.168106
H23   H     H_    0.910416 0.628166 0.380820 0.081490
H24   H     H_    0.895621 0.590379 0.618645 0.185677
H25   H     H_    0.610353 0.965002 0.132543 0.142675
H26   H     H_    0.775773 0.960214 0.108264 0.148282
H27   H     H_    0.671855 0.054865 0.040585 0.138077
H28   H     H_    0.736301 0.832545 0.974325 0.161590
H29   H     H_    0.573404 0.830570 0.001780 0.161435
H30   H     H_    0.649676 0.709834 0.144029 0.143973
H31   H     H_    0.793018 0.689724 0.088821 0.133454
H32   H     H_    0.656626 0.256558 0.195059 0.159450
H33   H     H_    0.811572 0.193118 0.166787 0.140431
H34   H     H_    0.873767 0.403283 0.620415 0.108472
H35   H     H_    0.780174 0.277380 0.267038 0.132253
H36   H     H_    0.891099 0.432854 0.164014 0.135539
H37   H     H_    0.747575 0.506298 0.200270 0.158077
H38   H     H_    0.730056 0.326635 0.041592 0.138396
H39   H     H_    0.837821 0.461075 0.030630 0.118118
H40   H     H_    0.106266 0.412492 0.369870 0.103380
H41   H     H_    0.120170 0.281203 0.450147 0.150518
H42   H     H_    0.896247 0.368244 0.378116 0.116004
H43   H     H_    0.910169 0.270411 0.474333 0.145001
H44   H     H_    0.695719 0.115460 0.516810 0.120297
N1    N     N_3   0.500250 0.143650 0.501830 -0.245448
N2    N     N_3   0.500250 0.856350 0.501830 -0.246515
O1    O     O_R   0.317570 0.620260 0.500050 -0.437935
O2    O     O_R   0.317570 0.379740 0.500050 -0.488916
O3    O     O_R   0.499890 0.620310 0.379470 -0.521240
O4    O     O_R   0.499890 0.379690 0.379470 -0.515579
O5    O     O_R   0.682190 0.620260 0.500020 -0.530460
O6    O     O_R   0.682190 0.379740 0.500020 -0.522684
O7    O     O_R   0.499870 0.620210 0.620600 -0.458880
O8    O     O_R   0.499870 0.379790 0.620600 -0.472984

loop_
_geom_bond_atom_site_label_1
_geom_bond_atom_site_label_2
_ccdc_geom_bond_type
C12   C24   S    
C19   H16   S    
Cu1   O1    S    
C17   C22   S    
C23   C25   S    
Cu1   Cu2   S    
C3    H41   S    
C13   H9    S    
C2    C5    S    
C26   H29   S    
C14   H10   S    
C3    C4    S    
C27   H25   S    
C28   H39   S    
C22   C23   S    
C6    C33   S    
Cu2   O8    S    
C32   C33   T    
C10   N1    S    
C30   H35   S    
C26   C27   S    
C29   H36   S    
C25   H31   S    
C16   C21   S    
C12   H18   S    
C5    C15   S    
Cu1   O5    S    
C24   C31   S    
C4    C35   S    
C1    O2    A    
C15   O5    A    
C30   H33   S    
C25   H30   S    
C12   C23   S    
C16   O8    A    
C6    O4    A    
Cu2   O6    S    
C4    C34   S    
C11   H6    S    
C26   H28   S    
C13   C14   S    
C18   C19   S    
C27   H26   S    
Br3   C34   S    
C13   H7    S    
C29   H37   S    
C18   H14   S    
C5    C36   S    
C14   N2    S    
Cu2   O2    S    
C3    C7    S    
C17   H15   S    
C25   C26   S    
C28   H38   S    
Br4   C35   S    
C2    H24   S    
C29   C30   S    
C19   C24   S    
Br2   C11   S    
C5    C7    S    
C10   H5    S    
C15   O6    A    
C30   H32   S    
C22   C32   S    
Cu1   O3    S    
C16   O7    A    
C21   C31   T    
C6    O3    A    
C36   H23   S    
C12   H19   S    
C14   H8    S    
C19   H12   S    
C9    H4    S    
Cu1   N2    S    
C8    N1    S    
C23   C28   S    
C10   C11   S    
C20   C24   S    
C8    H3    S    
C1    C4    S    
C2    H34   S    
C18   H13   S    
Cu2   N1    S    
C7    H42   S    
C35   H21   S    
C36   H22   S    
C8    H44   S    
C28   C29   S    
C34   C36   S    
Cu1   O7    S    
C7    H43   S    
C20   H17   S    
C17   H11   S    
C9    N2    S    
Cu2   O4    S    
C13   N1    S    
C27   H27   S    
C3    H40   S    
C8    C9    S    
C18   C22   S    
C17   C20   S    
C20   H1    S    
C2    C35   S    
Br1   C10   S    
C9    H2    S    
C1    O1    A    
C11   N2    S    
C34   H20   S    
