data_mof_unit_2778.cif
_audit_creation_date              2012-12-11T15:49:01-0500
_audit_creation_method            fapswitch 2.2
_symmetry_space_group_name_H-M    P1
_symmetry_Int_Tables_number       1
_space_group_crystal_system       triclinic
_cell_length_a                    21.665656
_cell_length_b                    7.1777
_cell_length_c                    14.928584
_cell_angle_alpha                 90.022862
_cell_angle_beta                  106.652575
_cell_angle_gamma                 89.982401
_cell_volume                      2224.17234573

loop_
_atom_site_label
_atom_site_type_symbol
_atom_type_description
_atom_site_fract_x
_atom_site_fract_y
_atom_site_fract_z
_atom_type_partial_charge
O1    O     O_R   0.335860 0.638190 0.002110 -0.542374
O2    O     O_R   0.664140 0.361810 0.997890 -0.541651
O3    O     O_R   0.164140 0.138190 0.997890 -0.542784
O4    O     O_R   0.835860 0.861810 0.002110 -0.543237
O5    O     O_R   0.217530 0.305920 0.861960 -0.535004
O6    O     O_R   0.782470 0.694080 0.138040 -0.532537
O7    O     O_R   0.282470 0.805920 0.138040 -0.535189
O8    O     O_R   0.717530 0.194080 0.861960 -0.535724
C1    C     C_R   0.205792 0.476938 0.825981 0.691722
C2    C     C_R   0.794494 0.523210 0.173969 0.690887
C3    C     C_R   0.294200 0.976982 0.174022 0.691042
C4    C     C_R   0.705499 0.023146 0.826028 0.685692
O9    O     O_R   0.338690 0.308320 0.993240 -0.539943
O10   O     O_R   0.661310 0.691680 0.006760 -0.540600
O11   O     O_R   0.161310 0.808320 0.006760 -0.539819
O12   O     O_R   0.838690 0.191680 0.993240 -0.541631
O13   O     O_R   0.286170 0.140430 0.130100 -0.538394
O14   O     O_R   0.713830 0.859570 0.869900 -0.539178
O15   O     O_R   0.213830 0.640430 0.869900 -0.538005
O16   O     O_R   0.786170 0.359570 0.130100 -0.531391
C5    C     C_R   0.365298 0.477648 0.999756 0.699179
C6    C     C_R   0.634709 0.522337 0.000248 0.696281
C7    C     C_R   0.134706 0.977693 0.000257 0.699909
C8    C     C_R   0.865290 0.022293 0.999759 0.697398
O17   O     O_3   0.232630 0.472410 0.044750 -0.374552
O18   O     O_3   0.767370 0.527590 0.955250 -0.376795
O19   O     O_3   0.267370 0.972410 0.955250 -0.374097
O20   O     O_3   0.732630 0.027590 0.044750 -0.367449
V1    V     V_3+5 0.253220 0.196620 0.991700 1.470272
V2    V     V_3+5 0.746780 0.803380 0.008300 1.491119
V3    V     V_3+5 0.246780 0.696620 0.008300 1.470403
V4    V     V_3+5 0.753220 0.303380 0.991700 1.487541
C9    C     C_R   0.040131 0.856886 0.046760 -0.103586
C10   C     C_R   0.959831 0.142930 0.953168 -0.107496
C11   C     C_R   0.459812 0.357404 0.952806 -0.104620
C12   C     C_R   0.540241 0.642382 0.047340 -0.114151
H1    H     H_    0.070800 0.746196 0.084332 0.193514
H2    H     H_    0.929133 0.253413 0.915376 0.190859
H3    H     H_    0.429086 0.247180 0.914860 0.193742
H4    H     H_    0.571000 0.752375 0.085535 0.191535
C13   C     C_R   0.975929 0.864390 0.049190 0.230660
C14   C     C_R   0.024043 0.135446 0.950802 0.229146
C15   C     C_R   0.524012 0.365028 0.950359 0.231027
C16   C     C_R   0.476028 0.634782 0.049713 0.226778
C17   C     C_R   0.934490 0.009210 0.001395 -0.165933
C18   C     C_R   0.065494 0.990715 0.998629 -0.167902
C19   C     C_R   0.565509 0.509310 0.998613 -0.164861
C20   C     C_R   0.434517 0.490605 0.001415 -0.167063
C21   C     C_R   0.677414 0.014601 0.724939 -0.063331
C22   C     C_R   0.321774 0.987273 0.275183 -0.062561
C23   C     C_R   0.822525 0.514851 0.275060 -0.053664
C24   C     C_R   0.178172 0.487132 0.724837 -0.063389
C25   C     C_R   0.689970 0.003129 0.570156 -0.034479
C26   C     C_R   0.309158 0.034106 0.428510 -0.011365
C27   C     C_R   0.809866 0.503185 0.429776 -0.000503
C28   C     C_R   0.190724 0.533761 0.571502 -0.012116
C29   C     C_R   0.716927 0.011019 0.666449 -0.132258
C30   C     C_R   0.282405 0.019853 0.332327 -0.125318
C31   C     C_R   0.782964 0.511607 0.333482 -0.070121
C32   C     C_R   0.217526 0.519108 0.667643 -0.125589
C33   C     C_R   0.610658 0.010490 0.687558 -0.183718
C34   C     C_R   0.388271 0.974050 0.313602 -0.182056
C35   C     C_R   0.889271 0.510860 0.312513 -0.182831
C36   C     C_R   0.111653 0.474552 0.686511 -0.178551
C37   C     C_R   0.581316 0.007570 0.589571 0.072596
C38   C     C_R   0.417563 0.997315 0.410834 0.058456
C39   C     C_R   0.918556 0.507982 0.410507 0.063186
C40   C     C_R   0.082311 0.497541 0.589268 0.062560
C41   C     C_R   0.622417 0.001518 0.530071 -0.033167
C42   C     C_R   0.376492 0.021647 0.469459 -0.037523
C43   C     C_R   0.877418 0.500865 0.469926 -0.032531
C44   C     C_R   0.123367 0.522061 0.530626 -0.037267
C45   C     C_R   0.512777 0.010462 0.549512 -0.011165
C46   C     C_R   0.486068 0.998038 0.450843 -0.002132
C47   C     C_R   0.987081 0.511318 0.450620 -0.008141
C48   C     C_R   0.013789 0.497876 0.549252 -0.010429
C49   C     C_R   0.528538 0.993082 0.394630 -0.236633
C50   C     C_R   0.470259 0.029674 0.605168 -0.238809
C51   C     C_R   0.971276 0.490620 0.605373 -0.233827
C52   C     C_R   0.029571 0.531858 0.395023 -0.232597
C53   C     C_R   0.595270 0.995047 0.432265 0.371731
C54   C     C_R   0.403535 0.035335 0.567090 0.456931
C55   C     C_R   0.904532 0.492148 0.567696 0.458155
C56   C     C_R   0.096296 0.536856 0.433050 0.455983
H5    H     H_    0.415271 0.945292 0.264919 0.108800
H6    H     H_    0.583604 0.008012 0.737750 0.110452
H7    H     H_    0.084714 0.446826 0.735353 0.108874
H8    H     H_    0.916374 0.508140 0.262377 0.110076
H9    H     H_    0.230797 0.033795 0.302313 0.180029
H10   H     H_    0.768829 0.012461 0.695607 0.184304
H11   H     H_    0.269153 0.532555 0.697601 0.180287
H12   H     H_    0.731082 0.514071 0.304244 0.157938
H13   H     H_    0.723067 0.998596 0.528221 0.232900
H14   H     H_    0.276196 0.057856 0.469532 0.223916
H15   H     H_    0.776731 0.499010 0.471659 0.204809
H16   H     H_    0.223680 0.557259 0.530460 0.224031
H17   H     H_    0.511119 0.993317 0.319775 0.183691
H18   H     H_    0.487630 0.046216 0.679539 0.185350
H19   H     H_    0.988637 0.488304 0.680200 0.184260
H20   H     H_    0.012164 0.549937 0.320746 0.184669
N1    N     N_3   0.955400 0.726076 0.103745 -0.635994
H21   H     H_    0.934164 0.792080 0.149944 0.225136
H22   H     H_    0.921960 0.638074 0.059103 0.246182
N2    N     N_3   0.044542 0.273396 0.896068 -0.635477
H23   H     H_    0.065836 0.206841 0.850101 0.223254
H24   H     H_    0.077966 0.361608 0.940596 0.247073
N3    N     N_3   0.544489 0.227437 0.895320 -0.636314
H25   H     H_    0.565756 0.294061 0.849363 0.223563
H26   H     H_    0.577907 0.138933 0.939655 0.247120
N4    N     N_3   0.455578 0.771980 0.104939 -0.638607
H27   H     H_    0.434246 0.704774 0.150644 0.221400
H28   H     H_    0.422177 0.860703 0.060722 0.247986
S1    S     S_3+6 0.643242 0.991028 0.353461 -0.009256
O21   O     O_2   0.684223 0.818595 0.371198 -0.335549
O22   O     O_2   0.602417 0.990561 0.253277 -0.332207
O23   O     O_3   0.691571 0.178783 0.371797 -0.496033
H29   H     H_    0.662520 0.285950 0.370553 0.327600
S2    S     S_3+6 0.355462 0.061180 0.644913 -0.023427
O24   O     O_2   0.395979 0.055303 0.745190 -0.336864
O25   O     O_2   0.321102 0.245117 0.626028 -0.355393
O26   O     O_3   0.300907 0.888257 0.626492 -0.515772
H30   H     H_    0.270993 0.924042 0.662820 0.360701
S3    S     S_3+6 0.856503 0.480307 0.646211 -0.021742
O27   O     O_2   0.815987 0.307115 0.625424 -0.357098
O28   O     O_2   0.897477 0.474856 0.746269 -0.334053
O29   O     O_3   0.808123 0.667878 0.630691 -0.514656
H31   H     H_    0.775902 0.637736 0.664036 0.358417
S4    S     S_3+6 0.144334 0.563541 0.355240 -0.023198
O30   O     O_2   0.103747 0.559420 0.254976 -0.336965
O31   O     O_2   0.178960 0.746956 0.374879 -0.354988
O32   O     O_3   0.198636 0.389958 0.372819 -0.515921
H32   H     H_    0.228545 0.426001 0.336546 0.360428

loop_
_geom_bond_atom_site_label_1
_geom_bond_atom_site_label_2
_ccdc_geom_bond_type
O17   V3    S    
O1    C5    A    
N1    H21   S    
C27   C31   A    
C35   H8    S    
O19   V1    S    
O13   V1    S    
C45   C46   A    
O3    C7    A    
C10   C14   A    
C48   C51   A    
C52   C56   A    
O4    V2    S    
O15   V3    S    
S4    O30   D    
S2    O25   D    
N2    H24   S    
C4    C21   S    
C21   C29   A    
S3    O27   D    
O7    C3    A    
O5    C1    A    
O29   H31   S    
C8    C17   S    
C36   C40   A    
O9    V1    S    
O16   V4    S    
O4    C8    A    
S3    O28   D    
C2    C23   S    
C38   C46   A    
O1    V3    S    
C37   C45   A    
O23   H29   S    
C12   C19   A    
O2    V4    S    
C14   C18   A    
O3    V1    S    
S2    O24   D    
C24   C32   A    
N4    H27   S    
C1    O15   A    
C2    O16   A    
C28   C44   A    
C46   C49   A    
C50   H18   S    
N3    H25   S    
C49   H17   S    
O14   V2    S    
C11   C15   A    
C47   C52   A    
C36   H7    S    
O5    V1    S    
C40   C44   A    
C5    C20   S    
O11   C7    A    
C6    C19   S    
C25   C41   A    
O12   C8    A    
C7    C18   S    
C52   H20   S    
C9    C18   A    
N3    H26   S    
C1    C24   S    
C56   S4    S    
O10   V2    S    
C11   C20   A    
N2    H23   S    
C43   C55   A    
C34   H5    S    
C35   C39   A    
C21   C33   A    
C29   H10   S    
C34   C38   A    
C25   H13   S    
O8    V4    S    
C12   H4    S    
O7    V3    S    
C27   H15   S    
C24   C36   A    
C25   C29   A    
O18   V4    S    
S3    O29   S    
C45   C50   A    
C9    H1    S    
C28   C32   A    
S4    O31   D    
S2    O26   S    
C22   C30   A    
C11   H3    S    
C47   C48   A    
O2    C6    A    
C50   C54   A    
C26   C42   A    
C49   C53   A    
O8    C4    A    
C23   C35   A    
C10   C17   A    
C15   N3    S    
C40   C48   A    
O26   H30   S    
C44   C56   A    
O6    V2    S    
C22   C34   A    
C12   C16   A    
C23   C31   A    
C54   S2    S    
C4    O14   A    
O32   H32   S    
S4    O32   S    
S1    O21   D    
C26   C30   A    
C32   H11   S    
C51   H19   S    
C28   H16   S    
C3    O13   A    
C10   H2    S    
C14   N2    S    
O6    C2    A    
O11   V3    S    
O12   V4    S    
C9    C13   A    
S1    O23   S    
O20   V2    S    
C3    C22   S    
O9    C5    A    
C51   C55   A    
O10   C6    A    
C38   C42   A    
C37   C41   A    
C13   N1    S    
C39   C43   A    
C31   H12   S    
C42   C54   A    
C30   H9    S    
N4    H28   S    
C26   H14   S    
C41   C53   A    
C33   H6    S    
C33   C37   A    
C39   C47   A    
N1    H22   S    
C53   S1    S    
C13   C17   A    
C55   S3    S    
C15   C19   A    
C27   C43   A    
C16   C20   A    
S1    O22   D    
C16   N4    S    
