data_mof_unit_1261.cif
_audit_creation_date              2012-10-26T20:07:45-0400
_audit_creation_method            fapswitch 2.2
_symmetry_space_group_name_H-M    P1
_symmetry_Int_Tables_number       1
_space_group_crystal_system       triclinic
_cell_length_a                    9.566809
_cell_length_b                    10.834702
_cell_length_c                    16.978933
_cell_angle_alpha                 88.203819
_cell_angle_beta                  94.868938
_cell_angle_gamma                 88.65736
_cell_volume                      1752.11223578

loop_
_atom_site_label
_atom_site_type_symbol
_atom_type_description
_atom_site_fract_x
_atom_site_fract_y
_atom_site_fract_z
_atom_type_partial_charge
C1    C     C_R   0.501378 0.262462 0.498593 0.531905
C2    C     C_R   0.062950 0.585129 0.454063 0.111268
C3    C     C_R   0.518709 0.497366 0.650737 0.531097
C4    C     C_R   0.481440 0.504752 0.348837 0.522034
C5    C     C_R   0.532602 0.495237 0.737344 -0.021917
C6    C     C_R   0.469018 0.517792 0.261640 -0.045808
C7    C     C_R   0.504306 0.385753 0.779857 -0.061568
C8    C     C_R   0.555025 0.602603 0.224254 -0.022385
C9    C     C_R   0.516934 0.384029 0.863535 0.030262
C10   C     C_R   0.551106 0.609024 0.140968 0.030131
C11   C     C_R   0.545257 0.495121 0.902904 0.187940
C12   C     C_R   0.498363 0.737676 0.500995 0.528844
C13   C     C_R   0.455392 0.537206 0.095553 0.149703
C14   C     C_R   0.574507 0.603976 0.860033 0.029601
C15   C     C_R   0.359579 0.462588 0.132448 0.056963
C16   C     C_R   0.570555 0.603879 0.776769 -0.031183
C17   C     C_R   0.373371 0.445251 0.215804 -0.024996
C18   C     C_R   0.397402 0.068025 0.534682 -0.109011
C19   C     C_R   0.601356 0.932463 0.464246 -0.112142
C20   C     C_2   0.647690 0.684951 0.272971 0.297119
C21   C     C_2   0.460911 0.274473 0.735267 0.210564
C22   C     C_2   0.640775 0.695646 0.100222 0.322574
C23   C     C_R   0.390121 0.940137 0.535634 -0.018641
C24   C     C_2   0.509328 0.264549 0.909259 0.319970
C25   C     C_2   0.612149 0.716149 0.903749 0.239429
C26   C     C_2   0.245371 0.404808 0.082050 0.295844
C27   C     C_3   0.601895 0.719030 0.728594 -0.325209
C28   C     C_3   0.295111 0.343313 0.255198 -0.303290
C29   C     C_3   0.270622 0.881191 0.574435 -0.347561
C30   C     C_3   0.718046 0.121040 0.417083 -0.344335
C31   C     C_2   0.879081 0.318629 0.597197 0.235463
C32   C     C_2   0.120616 0.679975 0.401603 0.244836
C33   C     C_R   0.606411 0.060556 0.461633 -0.016944
C34   C     C_R   0.495014 0.871795 0.500662 0.017546
C35   C     C_R   0.503825 0.128530 0.498383 0.016487
C36   C     C_R   0.085314 0.415942 0.545089 0.053688
C37   C     C_R   0.914708 0.584188 0.455067 0.059894
C38   C     C_R   0.936988 0.414517 0.545648 0.115416
Cu1   Cu    Cu3+1 0.640660 0.500020 0.500000 0.921618
Cu2   Cu    Cu3+1 0.359340 0.499980 0.500000 0.923405
H1    H     H_    0.319071 0.121292 0.562604 0.155076
H2    H     H_    0.258091 0.387581 0.020464 0.185125
H3    H     H_    0.605079 0.804459 0.762651 0.179256
H4    H     H_    0.704036 0.705929 0.703057 0.170520
H5    H     H_    0.519066 0.736125 0.679708 0.115196
H6    H     H_    0.275083 0.265244 0.215387 0.181401
H7    H     H_    0.358242 0.301519 0.307601 0.130367
H8    H     H_    0.194169 0.380668 0.273436 0.183831
H9    H     H_    0.310680 0.809815 0.619339 0.145844
H10   H     H_    0.208177 0.949821 0.604958 0.158670
H11   H     H_    0.198125 0.839069 0.529079 0.176135
H12   H     H_    0.679877 0.879396 0.436367 0.140677
H13   H     H_    0.669026 0.190341 0.372951 0.154730
H14   H     H_    0.794686 0.166129 0.458883 0.177300
H15   H     H_    0.777505 0.052845 0.384526 0.156778
H16   H     H_    0.774393 0.324986 0.615024 0.170304
H17   H     H_    0.226210 0.674814 0.385176 0.175625
H18   H     H_    0.151378 0.350106 0.581309 0.179664
H19   H     H_    0.848671 0.650427 0.419295 0.181330
H20   H     H_    0.610966 0.724574 0.325622 0.093022
H21   H     H_    0.504420 0.255436 0.679795 0.105818
H22   H     H_    0.710246 0.661497 0.058195 0.157132
H23   H     H_    0.528559 0.177704 0.881528 0.159070
H24   H     H_    0.541639 0.753307 0.944299 0.150143
N1    N     N_2   0.554678 0.494394 0.986553 -0.202795
N2    N     N_2   0.449251 0.543992 0.011830 -0.273975
N3    N     N_R   0.852070 0.500030 0.499980 -0.281300
N4    N     N_R   0.147930 0.499970 0.500020 -0.283252
O1    O     O_R   0.618740 0.319660 0.500000 -0.527699
O2    O     O_2   0.371590 0.206433 0.758034 -0.492939
O3    O     O_2   0.636192 0.805968 0.112739 -0.435740
O4    O     O_2   0.482968 0.260723 0.978354 -0.471091
O5    O     O_2   0.723810 0.765706 0.896305 -0.472805
O6    O     O_2   0.132826 0.381736 0.107353 -0.486185
O7    O     O_2   0.950712 0.228528 0.621902 -0.529005
O8    O     O_2   0.047794 0.767991 0.374554 -0.506860
O9    O     O_R   0.381260 0.680340 0.500000 -0.529559
O10   O     O_R   0.381170 0.319630 0.500010 -0.509073
O11   O     O_R   0.618830 0.680370 0.499990 -0.514770
O12   O     O_R   0.631780 0.498870 0.613920 -0.525066
O13   O     O_R   0.368220 0.501130 0.386080 -0.522888
O14   O     O_R   0.394210 0.498840 0.613930 -0.486492
O15   O     O_R   0.605790 0.501160 0.386070 -0.495794
O16   O     O_2   0.766836 0.705724 0.256451 -0.434341

loop_
_geom_bond_atom_site_label_1
_geom_bond_atom_site_label_2
_ccdc_geom_bond_type
C28   H7    S    
C29   H9    S    
C10   C22   S    
C30   H14   S    
C28   H6    S    
C8    C20   S    
C23   C29   S    
C2    N4    A    
C11   C14   A    
C12   O11   A    
C2    C32   S    
C5    C16   A    
C33   C35   A    
C19   H12   S    
C4    O13   A    
C31   H16   S    
C20   H20   S    
C18   C35   A    
C21   H21   S    
C13   N2    S    
C27   H5    S    
C16   C27   S    
C14   C25   S    
C1    O10   A    
C32   H17   S    
C3    O12   A    
C27   H4    S    
C29   H10   S    
C30   H13   S    
C18   C23   A    
Cu2   O14   S    
C4    C6    S    
C19   C33   A    
C18   H1    S    
Cu1   Cu2   S    
C5    C7    A    
C1    C35   S    
C15   C26   S    
C6    C8    A    
C7    C21   S    
C10   C13   A    
C20   O16   D    
C1    O1    A    
C25   H24   S    
Cu1   O11   S    
C27   H3    S    
C22   H22   S    
C31   O7    D    
C23   C34   A    
C12   O9    A    
C3    O14   A    
Cu1   O1    S    
C9    C11   A    
C37   H19   S    
Cu2   O10   S    
C24   H23   S    
C13   C15   A    
C14   C16   A    
C12   C34   S    
C22   O3    D    
C24   O4    D    
C29   H11   S    
C15   C17   A    
C6    C17   A    
C28   H8    S    
C30   C33   S    
C17   C28   S    
Cu1   N3    S    
Cu2   O13   S    
C3    C5    S    
C19   C34   A    
C32   O8    D    
C36   N4    A    
C9    C24   S    
C30   H15   S    
C36   H18   S    
C31   C38   S    
C21   O2    D    
Cu1   O12   S    
C36   C38   A    
Cu1   O15   S    
C2    C37   A    
C4    O15   A    
C37   N3    A    
C26   O6    D    
C25   O5    D    
C26   H2    S    
C7    C9    A    
C38   N3    A    
C8    C10   A    
N1    N2    D    
Cu2   N4    S    
Cu2   O9    S    
C11   N1    S    
