data_mof_unit_2347.cif
_audit_creation_date              2013-03-05T16:11:14-0500
_audit_creation_method            fapswitch 2.2
_symmetry_space_group_name_H-M    P1
_symmetry_Int_Tables_number       1
_space_group_crystal_system       triclinic
_cell_length_a                    6.952792
_cell_length_b                    20.544037
_cell_length_c                    24.514984
_cell_angle_alpha                 90.052223
_cell_angle_beta                  90.538735
_cell_angle_gamma                 89.540909
_cell_volume                      3501.4130663

loop_
_atom_site_label
_atom_site_type_symbol
_atom_site_description
_atom_site_fract_x
_atom_site_fract_y
_atom_site_fract_z
_atom_type_partial_charge
O1    O     O_R   0.507280 0.423750 0.460310 -0.586574
O2    O     O_R   0.171030 0.555650 0.437630 -0.588372
O3    O     O_R   0.004080 0.576250 0.539690 -0.595635
C1    C     C_R   0.339049 0.575688 0.421833 0.972774
O4    O     O_R   0.177330 0.422980 0.453960 -0.591164
O5    O     O_R   0.010420 0.442640 0.556140 -0.589128
C2    C     C_R   0.345955 0.398979 0.443484 0.960524
O6    O     O_R   0.500930 0.557360 0.443860 -0.584321
O7    O     O_3   0.340310 0.506600 0.533500 -0.277148
V1    V     V_3+5 0.064140 0.498780 0.493780 1.172435
O8    O     O_R   0.680890 0.444350 0.562370 -0.590735
C3    C     C_R   0.850630 0.424386 0.578117 0.983057
O9    O     O_R   0.674590 0.577020 0.546040 -0.594789
C4    C     C_R   0.842905 0.601034 0.556587 0.965856
V2    V     V_3+5 0.564550 0.501220 0.506220 1.170316
O10   O     O_3   0.838250 0.493400 0.466500 -0.268998
C5    C     C_R   0.973473 0.838752 0.910551 -0.113884
C6    C     C_R   0.849454 0.662296 0.588207 -0.158858
C7    C     C_R   0.005639 0.721654 0.906442 -0.164415
C8    C     C_R   0.005752 0.779186 0.936457 -0.147338
C9    C     C_R   0.941817 0.840513 0.853780 -0.234669
C10   C     C_R   0.943091 0.782360 0.821904 0.113135
C11   C     C_R   0.975153 0.722649 0.849744 0.174930
C12   C     C_R   0.914617 0.781183 0.763705 0.051355
C13   C     C_R   0.917183 0.720278 0.734727 0.069967
C14   C     C_R   0.949175 0.662678 0.764908 -0.195011
C15   C     C_R   0.977577 0.664058 0.821023 -0.231677
C16   C     C_R   0.884131 0.838822 0.733492 -0.188136
C17   C     C_R   0.855592 0.837432 0.677399 -0.192633
C18   C     C_R   0.855579 0.778768 0.648760 0.149062
C19   C     C_R   0.886946 0.719078 0.676575 0.120232
C20   C     C_R   0.822422 0.779804 0.592223 -0.241963
C21   C     C_R   0.815805 0.722103 0.562007 0.168087
C22   C     C_R   0.885275 0.660899 0.644817 -0.285837
H1    H     H_    0.001986 0.618419 0.842269 0.135473
H2    H     H_    0.908795 0.613581 0.662657 0.110852
H3    H     H_    0.832089 0.883115 0.656143 0.154200
H4    H     H_    0.030688 0.676063 0.927671 0.131882
H5    H     H_    0.031453 0.777271 0.980097 0.146686
H6    H     H_    0.918690 0.887895 0.836017 0.108350
H7    H     H_    0.953545 0.615194 0.746373 0.130644
H8    H     H_    0.881281 0.886343 0.751986 0.144099
H9    H     H_    0.797691 0.825712 0.571398 0.141055
H10   H     H_    0.653812 0.236884 0.815178 0.170302
C23   C     C_R   0.750125 0.286513 0.743538 -0.122957
H11   H     H_    0.617600 0.314237 0.739346 0.127827
C24   C     C_R   0.898605 0.294752 0.706044 0.116193
C25   C     C_R   0.068572 0.258152 0.712353 -0.274693
H12   H     H_    0.183721 0.265007 0.683487 0.178172
C26   C     C_R   0.092786 0.213504 0.755854 0.341009
C27   C     C_R   0.940613 0.205368 0.793542 -0.031281
C28   C     C_R   0.771085 0.242336 0.786803 -0.134464
C29   C     C_1   0.877922 0.340887 0.661209 0.031869
C30   C     C_1   0.952067 0.158997 0.838591 0.132681
C31   C     C_1   0.961812 0.120703 0.876356 -0.239028
C32   C     C_1   0.863531 0.379161 0.623540 -0.286646
C33   C     C_R   0.551540 0.797537 0.251922 -0.252077
H13   H     H_    0.662537 0.834256 0.253765 0.165929
C34   C     C_R   0.429295 0.794698 0.206045 -0.027818
C35   C     C_R   0.284602 0.746315 0.204022 0.361764
C36   C     C_R   0.269327 0.701654 0.247615 -0.344054
H14   H     H_    0.159066 0.664695 0.246252 0.186374
C37   C     C_R   0.390841 0.704890 0.293530 0.077532
C38   C     C_R   0.534217 0.753143 0.295482 0.187451
C39   C     C_1   0.457177 0.840966 0.161431 0.160534
C40   C     C_1   0.365521 0.659018 0.338532 0.045103
C41   C     C_1   0.349161 0.620900 0.376236 -0.299485
C42   C     C_1   0.474849 0.879234 0.123864 -0.184988
C43   C     C_R   0.469922 0.160001 0.090954 -0.249833
C44   C     C_R   0.349942 0.337811 0.412080 -0.155883
C45   C     C_R   0.508088 0.276647 0.096072 -0.153493
C46   C     C_R   0.494300 0.219974 0.065403 -0.219044
C47   C     C_R   0.453442 0.156864 0.148528 0.265819
C48   C     C_R   0.444240 0.215971 0.179886 -0.040961
C49   C     C_R   0.486100 0.275125 0.152801 0.156588
C50   C     C_R   0.395352 0.219113 0.236762 0.072935
C51   C     C_R   0.423903 0.277964 0.267219 0.090266
C52   C     C_R   0.484274 0.333670 0.238615 -0.191148
C53   C     C_R   0.507566 0.332633 0.182434 -0.198170
C54   C     C_R   0.301715 0.167439 0.262737 -0.110375
C55   C     C_R   0.261151 0.169056 0.317941 -0.131069
C56   C     C_R   0.305489 0.223431 0.350003 -0.021830
C57   C     C_R   0.381927 0.279881 0.324601 0.090088
C58   C     C_R   0.261300 0.223955 0.406401 0.363790
C59   C     C_R   0.278994 0.281649 0.436149 -0.246548
C60   C     C_R   0.405971 0.336653 0.357289 -0.231032
H15   H     H_    0.545085 0.377475 0.161953 0.135868
H16   H     H_    0.460833 0.381503 0.341191 0.109997
H17   H     H_    0.238210 0.282707 0.478720 0.161440
H18   H     H_    0.186489 0.127776 0.334726 0.190378
H19   H     H_    0.535799 0.322087 0.075235 0.125680
H20   H     H_    0.511005 0.222547 0.021549 0.129147
H21   H     H_    0.507000 0.380027 0.257987 0.130942
H22   H     H_    0.247868 0.126129 0.240395 0.184064
O11   O     O_R   0.323320 0.942780 0.056240 -0.567977
O12   O     O_R   0.647300 0.077050 0.046060 -0.592981
O13   O     O_R   0.813840 0.057330 0.943840 -0.594896
C61   C     C_R   0.478454 0.100810 0.056905 1.033649
O14   O     O_R   0.653250 0.944380 0.062400 -0.583189
O15   O     O_R   0.819830 0.923720 0.960300 -0.593706
C62   C     C_R   0.485210 0.924418 0.078247 1.026912
O16   O     O_R   0.317330 0.076390 0.039790 -0.583613
O17   O     O_3   0.483830 0.993470 0.966560 -0.283636
V3    V     V_3+5 0.760140 0.001210 0.006210 1.223998
O18   O     O_R   0.149290 0.922840 0.953850 -0.594928
C63   C     C_R   0.980711 0.899166 0.943026 0.935334
O19   O     O_R   0.143340 0.055500 0.937510 -0.582305
C64   C     C_R   0.973669 0.075502 0.921800 0.952732
V4    V     V_3+5 0.259690 0.998600 0.993650 1.226488
O20   O     O_3   0.986130 0.006520 0.033440 -0.251712
N1    N     N_R   0.271032 0.177346 0.760572 0.231226
O21   O     O_R   0.382137 0.170699 0.718457 -0.381381
O22   O     O_R   0.331087 0.154934 0.807392 -0.428840
N2    N     N_2   0.659197 0.758286 0.341589 -0.118436
H23   H     H_    0.703176 0.805218 0.349574 0.183757
C65   C     C_3   0.819153 0.712831 0.341499 -0.879514
H24   H     H_    0.904220 0.718329 0.379776 0.248289
H25   H     H_    0.913935 0.722765 0.306314 0.254205
H26   H     H_    0.767422 0.661892 0.339189 0.260973
N3    N     N_R   0.151880 0.741644 0.158647 0.234521
O23   O     O_R   0.099406 0.793150 0.131288 -0.416353
O24   O     O_R   0.067681 0.686702 0.147841 -0.398366
N4    N     N_R   0.476655 0.094645 0.174601 0.209868
O25   O     O_R   0.610443 0.086170 0.211450 -0.380024
O26   O     O_R   0.369862 0.045692 0.160237 -0.434871
N5    N     N_R   0.197198 0.166548 0.434138 0.234060
O27   O     O_R   0.064752 0.171112 0.471138 -0.363064
O28   O     O_R   0.293453 0.112253 0.429615 -0.362609
N6    N     N_2   0.776726 0.724468 0.504984 -0.122491
H27   H     H_    0.848738 0.761309 0.485427 0.174101
C66   C     C_3   0.573862 0.724947 0.491311 -0.879355
H28   H     H_    0.505192 0.770827 0.505701 0.247975
H29   H     H_    0.500511 0.682807 0.510076 0.260293
H30   H     H_    0.555362 0.721564 0.446422 0.259315

loop_
_geom_bond_atom_site_label_1
_geom_bond_atom_site_label_2
_geom_bond_distance
_ccdc_geom_bond_type
C13   C19   1.439274 A    
C18   C20   1.403061 A    
C12   C13   1.438355 A    
N5    O27   1.301422 A    
C47   C48   1.437881 A    
C4    C6    1.478321 S    
O2    C1    1.304085 A    
C7    C8    1.391701 A    
C1    O6    1.297049 A    
C66   H30   1.108945 S    
C2    C44   1.473336 S    
C53   H15   1.084420 S    
C55   C56   1.400035 A    
N4    O25   1.301356 A    
C51   C52   1.411499 A    
C14   C15   1.388215 A    
C48   C50   1.439521 A    
C9    C10   1.426990 A    
C16   C17   1.387814 A    
O5    C3    1.297493 A    
C18   C19   1.417998 A    
C46   H20   1.083802 S    
C60   H16   1.076734 S    
N4    O26   1.301196 A    
C51   C57   1.439802 A    
C52   H21   1.075931 S    
V2    O10   2.150571 S    
O15   V3    1.992037 S    
C5    C8    1.394821 A    
C65   H24   1.110635 S    
C36   C37   1.402890 A    
O13   C64   1.297877 A    
O8    V2    1.970016 S    
N1    O21   1.301682 A    
C47   N4    1.436929 S    
O12   C61   1.297522 A    
O19   C64   1.301082 A    
C43   C47   1.418726 A    
O1    V2    1.989156 S    
C11   C15   1.393999 A    
O7    V1    2.151849 S    
C24   C29   1.457335 S    
C43   C61   1.475424 S    
H10   C28   1.083289 S    
C25   C26   1.415244 A    
O14   V3    1.961887 S    
C37   C40   1.464367 S    
C34   C35   1.420402 A    
O9    C4    1.297333 A    
O19   V4    1.970236 S    
N3    O24   1.301572 A    
N2    H23   1.031835 S    
C23   C24   1.400054 A    
C58   N5    1.437881 S    
C38   N2    1.423600 S    
C48   C49   1.418883 A    
C27   C28   1.405573 A    
C50   C54   1.405848 A    
C58   C59   1.396723 A    
O11   V4    1.961498 S    
O4    C2    1.296072 A    
C8    H5    1.083699 S    
C59   H17   1.084209 S    
C52   C53   1.388405 A    
C23   C28   1.402373 A    
C15   H1    1.084383 S    
C13   C14   1.411199 A    
C23   H11   1.083463 S    
C5    C9    1.407436 A    
C35   C36   1.414462 A    
C43   C46   1.394939 A    
C7    C11   1.404184 A    
C17   C18   1.394221 A    
C7    H4    1.083990 S    
C24   C25   1.402983 A    
C39   C42   1.219141 T    
C26   C27   1.422131 A    
C19   C22   1.425900 A    
N1    O22   1.301025 A    
C50   C51   1.434590 A    
C6    C22   1.407917 A    
C3    C32   1.452559 S    
O3    C4    1.298390 A    
C55   H18   1.081528 S    
C25   H12   1.083600 S    
O14   C62   1.304085 A    
O6    V2    1.960937 S    
C56   C58   1.419151 A    
O12   V3    1.997373 S    
C10   C12   1.438787 A    
C54   H22   1.077404 S    
C66   H28   1.111837 S    
O2    V1    1.961690 S    
N3    O23   1.301198 A    
V3    O20   1.705658 S    
C33   C38   1.411602 A    
N6    H27   1.031799 S    
C29   C32   1.216304 T    
C21   N6    1.422381 S    
O18   V4    1.991454 S    
C30   C31   1.216515 T    
N5    O28   1.301395 A    
O1    C2    1.298963 A    
C12   C16   1.410792 A    
C54   C55   1.385307 A    
C66   H29   1.110591 S    
O5    V1    1.956436 S    
C1    C41   1.456553 S    
N2    C65   1.446480 S    
O8    C3    1.301538 A    
O18   C63   1.297618 A    
O15   C63   1.297868 A    
C42   C62   1.456704 S    
C65   H26   1.110523 S    
C31   C64   1.452322 S    
O17   V4    1.702192 S    
C27   C30   1.460330 S    
C20   C21   1.398081 A    
O9    V2    1.991373 S    
O7    V2    1.704980 S    
O4    V1    1.997325 S    
O3    V1    1.992243 S    
C61   O16   1.297112 A    
C5    C63   1.474875 S    
C34   C39   1.464969 S    
C45   C49   1.400912 A    
C33   H13   1.084099 S    
C9    H6    1.077020 S    
C16   H8    1.076157 S    
C26   N1    1.443528 S    
C20   H9    1.084590 S    
C65   H25   1.110457 S    
C40   C41   1.218729 T    
C22   H2    1.076997 S    
C36   H14   1.083571 S    
C6    C21   1.403916 A    
O13   V3    1.956359 S    
C33   C34   1.404780 A    
C35   N3    1.442218 S    
C37   C38   1.411935 A    
C45   C46   1.388846 A    
C57   C60   1.424555 A    
C45   H19   1.084025 S    
C56   C57   1.425686 A    
C17   H3    1.084373 S    
O17   V3    2.151819 S    
C10   C11   1.419353 A    
O16   V4    1.998120 S    
V1    O10   1.705592 S    
V4    O20   2.150640 S    
C44   C59   1.392321 A    
C49   C53   1.394659 A    
O11   C62   1.297091 A    
C14   H7    1.076113 S    
N6    C66   1.446634 S    
C44   C60   1.402187 A    
