data_mof_unit_848.cif
_audit_creation_date              2013-03-05T15:40:57-0500
_audit_creation_method            fapswitch 2.2
_symmetry_space_group_name_H-M    P1
_symmetry_Int_Tables_number       1
_space_group_crystal_system       triclinic
_cell_length_a                    7.880288
_cell_length_b                    8.558038
_cell_length_c                    13.723028
_cell_angle_alpha                 93.642398
_cell_angle_beta                  92.978568
_cell_angle_gamma                 94.054713
_cell_volume                      919.814351738

loop_
_atom_site_label
_atom_site_type_symbol
_atom_site_description
_atom_site_fract_x
_atom_site_fract_y
_atom_site_fract_z
_atom_type_partial_charge
O1    O     O_R   0.891570 0.738930 0.506190 -0.599970
O2    O     O_R   0.108430 0.261070 0.493810 -0.598853
O3    O     O_R   0.174650 0.711050 0.490030 -0.576242
O4    O     O_R   0.825350 0.288950 0.509970 -0.576577
C1    C     C_R   0.044874 0.794440 0.497614 0.944792
C2    C     C_R   0.955141 0.205567 0.502450 0.945389
O5    O     O_R   0.909850 0.521900 0.644940 -0.626246
O6    O     O_R   0.090150 0.478100 0.355060 -0.621979
O7    O     O_R   0.192930 0.494020 0.628780 -0.591488
O8    O     O_R   0.807070 0.505980 0.371220 -0.596760
C3    C     C_R   0.063416 0.513819 0.682049 0.849858
C4    C     C_R   0.937218 0.489236 0.317836 0.854574
Zn1   Zn    Zn3+2 0.810990 0.518620 0.510790 1.076812
Zn2   Zn    Zn3+2 0.189010 0.481380 0.489210 1.081637
C5    C     C_R   0.099853 0.546605 0.786242 -0.060534
C6    C     C_R   0.907820 0.482444 0.212230 -0.049012
C7    C     C_R   0.080018 0.714326 0.932702 -0.188115
C8    C     C_R   0.963844 0.377978 0.050683 -0.189748
C9    C     C_R   0.013852 0.657449 0.840032 -0.177561
C10   C     C_R   0.012994 0.403771 0.149630 -0.184376
C11   C     C_R   0.246465 0.489338 0.825961 -0.231599
C12   C     C_R   0.762702 0.546324 0.175000 -0.230988
C13   C     C_R   0.325892 0.558069 0.912829 0.100269
C14   C     C_R   0.710996 0.523094 0.076143 0.083446
C15   C     C_R   0.237207 0.667442 0.968777 0.163961
C16   C     C_R   0.810263 0.431704 0.014375 0.173474
C17   C     C_R   0.491394 0.521652 0.944539 0.065112
C18   C     C_R   0.556318 0.577794 0.039302 0.057443
C19   C     C_R   0.464575 0.686473 0.093931 -0.206712
C20   C     C_R   0.596010 0.435092 0.883427 -0.198835
C21   C     C_R   0.308277 0.731086 0.058632 -0.212776
C22   C     C_R   0.753261 0.392126 0.917896 -0.221856
H1    H     H_    0.242917 0.815984 0.101888 0.157250
H2    H     H_    0.829043 0.324796 0.869246 0.154153
H3    H     H_    0.127590 0.355458 0.177847 0.179404
H4    H     H_    0.899738 0.703483 0.809323 0.180350
H5    H     H_    0.012248 0.799352 0.974306 0.144268
H6    H     H_    0.042407 0.311384 0.003338 0.144739
H7    H     H_    0.513457 0.744438 0.162735 0.163063
H8    H     H_    0.562273 0.402595 0.807349 0.172861
C23   C     C_2   0.067997 0.958076 0.495699 -0.348635
C24   C     C_2   0.932037 0.041935 0.504444 -0.351515
N1    N     N_2   0.440860 0.456490 0.474790 0.037750
N2    N     N_2   0.559140 0.543510 0.525210 0.036004
H9    H     H_    0.685281 0.604681 0.226259 0.168123
H10   H     H_    0.300176 0.395175 0.784757 0.151904
H11   H     H_    0.196028 0.008818 0.486731 0.247156
H12   H     H_    0.804007 0.991191 0.513414 0.247140
N3    N     N_R   0.490155 0.311328 0.441637 0.304843
O9    O     O_R   0.480197 0.195691 0.498643 -0.376381
O10   O     O_R   0.501942 0.280764 0.348314 -0.399265
N4    N     N_R   0.509674 0.688314 0.558932 0.304560
O11   O     O_R   0.519611 0.804584 0.502412 -0.375779
O12   O     O_R   0.498249 0.717988 0.652368 -0.398533

loop_
_geom_bond_atom_site_label_1
_geom_bond_atom_site_label_2
_geom_bond_distance
_ccdc_geom_bond_type
C15   C21   1.389457 A    
O5    Zn1   1.959098 S    
C20   C22   1.385703 A    
O7    Zn2   1.910017 S    
C21   H1    1.084178 S    
C16   C22   1.388928 A    
C13   C17   1.415334 A    
C23   C24   1.337351 D    
C8    C16   1.403394 A    
O6    C4    1.296480 A    
N1    N2    1.292854 D    
C7    C15   1.404360 A    
C19   H7    1.077792 S    
C13   C15   1.418088 A    
C8    H6    1.083915 S    
C20   H8    1.077874 S    
C19   C21   1.387604 A    
C24   H12   1.085999 S    
C17   C20   1.418096 A    
C5    C9    1.399276 A    
O7    C3    1.300382 A    
C14   C16   1.418918 A    
N2    N4    1.384202 S    
O2    C2    1.280524 A    
O3    Zn2   1.976106 S    
O8    C4    1.301778 A    
O1    C1    1.280514 A    
C18   C19   1.418636 A    
C7    C9    1.393765 A    
N4    O12   1.300207 A    
O5    C3    1.296467 A    
C8    C10   1.392006 A    
C9    H4    1.083177 S    
C11   C13   1.392888 A    
C23   H11   1.085990 S    
O2    Zn2   1.952433 S    
C12   C14   1.393841 A    
O1    Zn1   1.952433 S    
C6    C10   1.399155 A    
C14   C18   1.416759 A    
C5    C11   1.385880 A    
C12   H9    1.076799 S    
N4    O11   1.300460 A    
O4    C2    1.292597 A    
C11   H10   1.078652 S    
C2    C24   1.401519 S    
C17   C18   1.414371 A    
N3    O9    1.300487 A    
C1    C23   1.401465 S    
N1    N3    1.384197 S    
C7    H5    1.083749 S    
O6    Zn2   1.959099 S    
N3    O10   1.300156 A    
C10   H3    1.083143 S    
C3    C5    1.449341 S    
Zn1   N2    2.029437 S    
C4    C6    1.452522 S    
O4    Zn1   1.976105 S    
C6    C12   1.389546 A    
Zn2   N1    2.029437 S    
O3    C1    1.292606 A    
O8    Zn1   1.910019 S    
C22   H2    1.084249 S    
