data_mof_unit_4168.cif
_audit_creation_date              2012-12-10T20:32:47-0500
_audit_creation_method            fapswitch 2.2
_symmetry_space_group_name_H-M    P1
_symmetry_Int_Tables_number       1
_space_group_crystal_system       triclinic
_cell_length_a                    11.542974
_cell_length_b                    10.65154
_cell_length_c                    9.906717
_cell_angle_alpha                 89.628276
_cell_angle_beta                  89.546303
_cell_angle_gamma                 90.625439
_cell_volume                      1217.89822812

loop_
_atom_site_label
_atom_site_type_symbol
_atom_type_description
_atom_site_fract_x
_atom_site_fract_y
_atom_site_fract_z
_atom_type_partial_charge
C1    C     C_R   0.497730 0.260582 0.500292 0.963524
C2    C     C_R   0.565306 0.585288 0.069075 -0.015167
C3    C     C_R   0.564428 0.584210 0.925309 -0.090701
C4    C     C_R   0.282004 0.499938 0.500422 0.912951
C5    C     C_R   0.442182 0.408415 0.930126 0.198134
C6    C     C_3   0.315472 0.380887 0.925378 -0.505798
C7    C     C_3   0.315024 0.381507 0.078608 -0.456984
C8    C     C_R   0.495911 0.739232 0.499494 0.876148
C9    C     C_R   0.718000 0.500218 0.499562 0.896057
C10   C     C_1   0.161540 0.500201 0.501042 -0.163479
C11   C     C_1   0.059359 0.500397 0.500467 0.026890
C12   C     C_R   0.492846 0.128649 0.498910 -0.174369
C13   C     C_1   0.940685 0.500484 0.499336 0.020629
C14   C     C_1   0.838493 0.500412 0.498851 -0.173189
C15   C     C_R   0.580846 0.063649 0.561279 0.023095
C16   C     C_2   0.303312 0.864617 0.367005 0.377761
C17   C     C_2   0.637826 0.681884 0.135548 0.417777
C18   C     C_R   0.409642 0.066815 0.419789 0.436944
C19   C     C_R   0.404566 0.934656 0.423373 -0.138236
C20   C     C_R   0.491367 0.871189 0.496465 -0.204626
C21   C     C_R   0.580837 0.935888 0.558993 0.106010
C22   C     C_3   0.622653 0.927094 0.701380 -0.406569
C23   C     C_3   0.622549 0.069407 0.703366 -0.433009
C24   C     C_R   0.442007 0.408435 0.072307 0.218234
H1    H     H_    0.296764 0.286789 0.882299 0.210703
H2    H     H_    0.311152 0.090413 0.264532 0.355125
H3    H     H_    0.310924 0.767955 0.335472 0.097796
H4    H     H_    0.662980 0.673069 0.239176 0.140826
H5    H     H_    0.264906 0.460267 0.122213 0.221789
H6    H     H_    0.295264 0.287898 0.123544 0.231029
H7    H     H_    0.557584 0.884000 0.771491 0.222648
H8    H     H_    0.710941 0.886873 0.707369 0.209559
H9    H     H_    0.557237 0.108667 0.774168 0.215398
H10   H     H_    0.710793 0.111614 0.710097 0.211099
H11   H     H_    0.615006 0.652180 0.867630 0.183842
H12   H     H_    0.265371 0.459101 0.880458 0.228256
N1    N     N_R   0.499240 0.499140 0.142800 -0.158466
N2    N     N_R   0.499240 0.499180 0.857150 -0.128119
O1    O     O_R   0.500010 0.316790 0.614690 -0.629194
O2    O     O_2   0.207933 0.912664 0.360542 -0.539337
O3    O     O_2   0.672767 0.774166 0.072997 -0.598391
O4    O     O_R   0.500000 0.316760 0.385350 -0.579284
O5    O     O_R   0.334450 0.500030 0.614670 -0.615186
O6    O     O_R   0.334440 0.500000 0.385330 -0.613927
O7    O     O_R   0.500000 0.683240 0.614650 -0.614142
O8    O     O_R   0.499990 0.683210 0.385310 -0.666429
O9    O     O_R   0.665560 0.500000 0.614670 -0.609349
O10   O     O_R   0.665550 0.499970 0.385330 -0.644611
O11   O     O_3   0.332340 0.137675 0.346639 -0.743286
Zn1   Zn    Zn3+2 0.500010 0.500020 0.653130 0.951251
Zn2   Zn    Zn3+2 0.499990 0.499980 0.346870 0.948374

loop_
_geom_bond_atom_site_label_1
_geom_bond_atom_site_label_2
_ccdc_geom_bond_type
C9    C14   S    
O5    Zn1   S    
C6    C7    S    
N2    Zn1   S    
C4    O5    A    
C19   C20   A    
C12   C15   A    
C3    H11   S    
O4    Zn2   S    
C23   H10   S    
C16   H3    S    
C15   C23   S    
C2    C3    A    
C7    H6    S    
C13   C14   T    
C2    C17   S    
C11   C13   S    
C2    N1    A    
C8    C20   S    
C5    C24   A    
C22   H8    S    
O7    Zn1   S    
C16   O2    D    
C16   C19   S    
C7    H5    S    
O6    Zn2   S    
C6    H12   S    
C9    O9    A    
O9    Zn1   S    
C8    O8    A    
C5    C6    S    
N1    Zn2   S    
C17   O3    D    
C6    H1    S    
C10   C11   T    
C1    O1    A    
C4    C10   S    
C7    C24   S    
C1    O4    A    
C15   C21   A    
O1    Zn1   S    
C5    N2    A    
C20   C21   A    
C3    N2    A    
C9    O10   A    
C24   N1    A    
C18   C19   A    
C22   H7    S    
H2    O11   S    
C12   C18   A    
C22   C23   S    
C4    O6    A    
C21   C22   S    
C17   H4    S    
O8    Zn2   S    
O10   Zn2   S    
C1    C12   S    
C8    O7    A    
C18   O11   S    
C23   H9    S    
