data_mof_unit_897.cif
_audit_creation_date              2012-12-11T15:53:42-0500
_audit_creation_method            fapswitch 2.2
_symmetry_space_group_name_H-M    P1
_symmetry_Int_Tables_number       1
_space_group_crystal_system       triclinic
_cell_length_a                    6.92764
_cell_length_b                    14.54904
_cell_length_c                    15.971631
_cell_angle_alpha                 90.461588
_cell_angle_beta                  90.21178
_cell_angle_gamma                 90.138842
_cell_volume                      1609.7207779

loop_
_atom_site_label
_atom_site_type_symbol
_atom_type_description
_atom_site_fract_x
_atom_site_fract_y
_atom_site_fract_z
_atom_type_partial_charge
O1    O     O_R   0.361600 0.167310 0.164620 -0.504871
O2    O     O_R   0.638400 0.832690 0.835380 -0.504871
O3    O     O_R   0.691080 0.157570 0.338750 -0.549632
O4    O     O_R   0.308920 0.842430 0.661250 -0.549632
O5    O     O_R   0.861410 0.336420 0.339360 -0.543844
O6    O     O_R   0.138590 0.663580 0.660640 -0.543844
C1    C     C_R   0.522088 0.135184 0.367478 0.669672
C2    C     C_R   0.477912 0.864816 0.632522 0.669672
O7    O     O_R   0.691320 0.156280 0.165240 -0.533211
O8    O     O_R   0.308680 0.843720 0.834760 -0.533211
O9    O     O_R   0.861640 0.335130 0.164600 -0.541170
O10   O     O_R   0.138360 0.664870 0.835400 -0.541170
C3    C     C_R   0.521567 0.135424 0.134880 0.778692
C4    C     C_R   0.478433 0.864576 0.865120 0.778692
O11   O     O_R   0.361370 0.168600 0.339370 -0.545510
O12   O     O_R   0.638630 0.831400 0.660630 -0.545510
O13   O     O_3   0.527990 0.310540 0.251980 -0.381148
O14   O     O_3   0.472010 0.689460 0.748020 -0.381148
V1    V     V_3+5 0.802830 0.240980 0.251990 1.462156
V2    V     V_3+5 0.197170 0.759020 0.748010 1.462156
O15   O     O_R   0.191360 0.346160 0.165220 -0.538667
O16   O     O_R   0.808640 0.653840 0.834780 -0.538667
C5    C     C_R   0.022234 0.368212 0.136021 0.742488
C6    C     C_R   0.977766 0.631787 0.863979 0.742489
O17   O     O_R   0.191130 0.347440 0.338740 -0.548031
O18   O     O_R   0.808870 0.652560 0.661260 -0.548030
C7    C     C_R   0.022576 0.369696 0.367669 0.658701
C8    C     C_R   0.977424 0.630303 0.632331 0.658701
V3    V     V_3+5 0.302840 0.262750 0.251990 1.464825
V4    V     V_3+5 0.697160 0.737250 0.748010 1.464825
O19   O     O_3   0.027820 0.193180 0.251990 -0.355706
O20   O     O_3   0.972180 0.806820 0.748010 -0.355706
C9    C     C_3   0.923132 0.419809 0.524190 -0.139093
C10   C     C_3   0.076868 0.580191 0.475810 -0.139093
C11   C     C_3   0.096870 0.468768 0.566884 -0.139298
C12   C     C_3   0.903129 0.531231 0.433116 -0.139299
H1    H     H_    0.176589 0.443333 0.622452 0.106672
H2    H     H_    0.823411 0.556667 0.377548 0.106672
H3    H     H_    0.859807 0.353225 0.543754 0.104507
H4    H     H_    0.140192 0.646775 0.456246 0.104507
C13   C     C_3   0.987669 0.560649 0.562078 -0.003870
C14   C     C_3   0.012331 0.439351 0.437922 -0.003870
C15   C     C_3   0.813779 0.512475 0.520158 -0.117276
C16   C     C_3   0.186221 0.487525 0.479842 -0.117276
H5    H     H_    0.660145 0.522976 0.537160 0.106778
H6    H     H_    0.339855 0.477024 0.462840 0.106778
C17   C     C_R   0.820437 0.525505 0.967499 -0.131322
C18   C     C_R   0.179563 0.474495 0.032501 -0.131322
H7    H     H_    0.679547 0.544134 0.943580 0.116150
H8    H     H_    0.320453 0.455866 0.056420 0.116149
C19   C     C_R   0.831394 0.462405 0.033156 -0.137229
C20   C     C_R   0.168606 0.537595 0.966844 -0.137229
C21   C     C_R   0.011112 0.436016 0.066645 -0.046881
C22   C     C_R   0.988888 0.563984 0.933355 -0.046881
C23   C     C_R   0.679521 0.025963 0.468030 -0.157017
C24   C     C_R   0.320479 0.974037 0.531970 -0.157017
H9    H     H_    0.820283 0.044846 0.444366 0.116415
H10   H     H_    0.179717 0.955154 0.555634 0.116415
C25   C     C_R   0.668556 0.960822 0.531814 -0.149807
C26   C     C_R   0.331444 0.039178 0.468186 -0.149807
H11   H     H_    0.801413 0.931476 0.555329 0.117565
H12   H     H_    0.198587 0.068524 0.444671 0.117565
C27   C     C_R   0.488889 0.934001 0.564668 -0.040648
C28   C     C_R   0.511111 0.065999 0.435332 -0.040648
C29   C     C_R   0.660296 0.004804 0.053043 -0.196645
C30   C     C_R   0.339703 0.995196 0.946957 -0.196645
C31   C     C_R   0.653332 0.938060 0.989502 0.401366
C32   C     C_R   0.346668 0.061940 0.010498 0.401366
C33   C     C_R   0.491586 0.932842 0.934917 -0.197928
C34   C     C_R   0.508414 0.067158 0.065083 -0.197928
H13   H     H_    0.698428 0.434233 0.057598 0.118560
H14   H     H_    0.301572 0.565767 0.942402 0.118560
H15   H     H_    0.784667 0.006680 0.094377 0.192477
H16   H     H_    0.215333 0.993320 0.905623 0.192477
Cl1   Cl    Cl    0.848473 0.860475 0.984660 -0.658221
Cl2   Cl    Cl    0.151527 0.139525 0.015340 -0.658221

loop_
_geom_bond_atom_site_label_1
_geom_bond_atom_site_label_2
_ccdc_geom_bond_type
C30   C32   A    
O11   V3    S    
C23   C25   A    
O13   V3    S    
C12   C14   S    
O4    C2    A    
V1    O19   S    
C17   H7    S    
O9    V1    S    
C9    H3    S    
C19   H13   S    
C10   H4    S    
C9    C14   S    
C11   H1    S    
O3    C1    A    
C30   C33   A    
C3    C34   S    
O12   V4    S    
C29   C34   A    
C30   H16   S    
C8    C13   S    
C29   H15   S    
C26   H12   S    
O9    C5    A    
O7    C3    A    
C9    C11   S    
O5    C7    A    
O7    V1    S    
O6    C8    A    
O8    V2    S    
C29   C31   A    
O3    V1    S    
O14   V4    S    
O14   V2    S    
C20   C22   A    
C18   H8    S    
C2    O12   A    
C13   C15   S    
C10   C13   S    
C14   C16   S    
C11   C13   S    
C16   H6    S    
C5    C21   S    
O15   C5    A    
O17   V3    S    
C18   C21   A    
C25   H11   S    
C9    C15   S    
C10   C16   S    
O8    C4    A    
C17   C19   A    
O15   V3    S    
C24   C26   A    
C31   C33   A    
O1    C3    A    
C20   H14   S    
C23   C28   A    
O10   V2    S    
O1    V3    S    
C24   C27   A    
C11   C16   S    
C15   H5    S    
C17   C22   A    
O18   V4    S    
C23   H9    S    
C4    C33   S    
O16   C6    A    
C32   Cl2   S    
V2    O20   S    
O16   V4    S    
C25   C27   A    
O5    V1    S    
O17   C7    A    
O6    V2    S    
O10   C6    A    
O18   C8    A    
O2    V4    S    
C26   C28   A    
C12   H2    S    
V3    O19   S    
V4    O20   S    
C7    C14   S    
C1    O11   A    
O13   V1    S    
C24   H10   S    
C10   C12   S    
O2    C4    A    
C1    C28   S    
C2    C27   S    
O4    V2    S    
C18   C20   A    
C31   Cl1   S    
C32   C34   A    
C12   C15   S    
C19   C21   A    
C6    C22   S    
