data_mof_unit_4408.cif
_audit_creation_date              2012-12-10T17:14:44-0500
_audit_creation_method            fapswitch 2.2
_symmetry_space_group_name_H-M    P1
_symmetry_Int_Tables_number       1
_space_group_crystal_system       triclinic
_cell_length_a                    10.616501
_cell_length_b                    13.122464
_cell_length_c                    11.742047
_cell_angle_alpha                 99.31493
_cell_angle_beta                  95.040001
_cell_angle_gamma                 91.158651
_cell_volume                      1607.03966273

loop_
_atom_site_label
_atom_site_type_symbol
_atom_type_description
_atom_site_fract_x
_atom_site_fract_y
_atom_site_fract_z
_atom_type_partial_charge
C1    C     C_R   0.498968 0.299462 0.480536 0.787022
C2    C     C_R   0.497274 0.699827 0.519957 0.788247
C3    C     C_R   0.535612 0.135955 0.568599 0.026790
C4    C     C_R   0.435038 0.862607 0.444061 0.028178
C5    C     C_R   0.530030 0.026738 0.550420 0.120757
C6    C     C_R   0.456161 0.970740 0.452460 0.129132
C7    C     C_R   0.358804 0.426869 0.020420 -0.322906
C8    C     C_R   0.641858 0.571955 0.979421 -0.338841
C9    C     C_R   0.376359 0.424096 0.140636 0.302662
C10   C     C_R   0.623203 0.576140 0.859616 0.305764
C11   C     C_R   0.564469 0.528621 0.156393 -0.004702
C12   C     C_R   0.436542 0.469939 0.843320 -0.022418
C13   C     C_R   0.552700 0.524400 0.034105 0.036811
C14   C     C_R   0.448358 0.473939 0.965634 0.032010
C15   C     C_R   0.259575 0.502815 0.499398 0.777086
C16   C     C_R   0.740598 0.497420 0.500573 0.780042
C17   C     C_3   0.045088 0.410541 0.521758 0.137590
C18   C     C_3   0.955809 0.589004 0.477806 0.135410
C19   C     C_3   0.949686 0.421883 0.418051 -0.199110
C20   C     C_3   0.050918 0.577655 0.581643 -0.200526
C21   C     C_3   0.877658 0.496985 0.501795 -0.036451
C22   C     C_3   0.122761 0.502759 0.497911 -0.033040
C23   C     C_3   0.971439 0.484329 0.605919 -0.190427
C24   C     C_3   0.029273 0.515089 0.393829 -0.188647
C25   C     C_R   0.500698 0.811683 0.528192 -0.066006
C26   C     C_R   0.491799 0.186740 0.474348 -0.071161
C27   C     C_R   0.406685 0.024362 0.365331 -0.232468
C28   C     C_R   0.597017 0.972227 0.628240 -0.232700
C29   C     C_R   0.431423 0.129116 0.373396 -0.256141
C30   C     C_R   0.581825 0.866858 0.617068 -0.251509
Cu1   Cu    Cu3+1 0.509400 0.507730 0.615930 0.912173
Cu2   Cu    Cu3+1 0.490600 0.492270 0.384070 0.911191
H1    H     H_    0.905705 0.357652 0.352443 0.135327
H2    H     H_    0.095003 0.641820 0.647281 0.135786
H3    H     H_    0.945206 0.470406 0.691695 0.133392
H4    H     H_    0.055385 0.529050 0.308041 0.128734
H5    H     H_    0.635979 0.827579 0.677559 0.168185
H6    H     H_    0.396891 0.166356 0.301907 0.174373
H7    H     H_    0.351175 0.986705 0.288181 0.152347
H8    H     H_    0.665711 0.009170 0.696556 0.152209
H9    H     H_    0.358033 0.426869 0.790845 0.123161
H10   H     H_    0.643296 0.571373 0.208728 0.119335
H11   H     H_    0.275501 0.391426 0.968324 0.132647
H12   H     H_    0.725503 0.607371 0.031222 0.136458
N1    N     N_R   0.523540 0.519360 0.790140 -0.191114
N2    N     N_R   0.476460 0.480640 0.209860 -0.189725
O1    O     O_R   0.506670 0.354460 0.582000 -0.585488
O2    O     O_R   0.493330 0.645540 0.418000 -0.582555
O3    O     O_R   0.490800 0.341410 0.386200 -0.598069
O4    O     O_R   0.509200 0.658590 0.613800 -0.597581
O5    O     O_R   0.324790 0.506500 0.597880 -0.585439
O6    O     O_R   0.675210 0.493500 0.402120 -0.584093
O7    O     O_R   0.308910 0.493440 0.402080 -0.614502
O8    O     O_R   0.691090 0.506560 0.597920 -0.608800
C31   C     C_3   0.107011 0.310309 0.543353 -0.408717
C32   C     C_3   0.010597 0.231811 0.570335 -0.369561
C33   C     C_3   0.072273 0.129945 0.584110 -0.839450
H13   H     H_    0.111985 0.095912 0.502551 0.257024
H14   H     H_    0.149347 0.142506 0.655826 0.252526
H15   H     H_    0.000431 0.074675 0.604662 0.238273
H16   H     H_    0.971073 0.263631 0.652494 0.219989
H17   H     H_    0.932391 0.217144 0.499641 0.218663
H18   H     H_    0.153442 0.277442 0.465013 0.189504
H19   H     H_    0.180967 0.328344 0.617457 0.195169
C34   C     C_3   0.898817 0.690225 0.453491 -0.405728
C35   C     C_3   0.000788 0.766430 0.430212 -0.363578
C36   C     C_3   0.943287 0.867579 0.407182 -0.841320
H20   H     H_    0.872825 0.853197 0.330115 0.252466
H21   H     H_    0.896279 0.904468 0.483506 0.257729
H22   H     H_    0.019049 0.921247 0.390309 0.236722
H23   H     H_    0.072613 0.783086 0.506207 0.216624
H24   H     H_    0.048778 0.732051 0.353366 0.215685
H25   H     H_    0.827982 0.673024 0.376822 0.196248
H26   H     H_    0.849550 0.724689 0.529500 0.185238
C37   C     C_3   0.335091 0.804405 0.354074 -0.406779
C38   C     C_3   0.386414 0.770542 0.235613 -0.298772
C39   C     C_3   0.288554 0.702751 0.152345 -0.845562
H27   H     H_    0.264085 0.632221 0.187981 0.258964
H28   H     H_    0.201371 0.746112 0.137955 0.242414
H29   H     H_    0.327679 0.679073 0.067779 0.247071
H30   H     H_    0.411652 0.838367 0.195928 0.196479
H31   H     H_    0.473991 0.727071 0.245305 0.240186
H32   H     H_    0.296228 0.736050 0.385778 0.199052
H33   H     H_    0.251575 0.852891 0.343956 0.180858
C40   C     C_3   0.578764 0.194572 0.690202 -0.372414
C41   C     C_3   0.715342 0.237137 0.698163 -0.337766
C42   C     C_3   0.756262 0.296653 0.818931 -0.839299
H34   H     H_    0.692810 0.361598 0.840821 0.270409
H35   H     H_    0.753548 0.244698 0.884609 0.247268
H36   H     H_    0.854291 0.328618 0.821742 0.224363
H37   H     H_    0.779143 0.171719 0.679094 0.205327
H38   H     H_    0.725678 0.289055 0.633469 0.229627
H39   H     H_    0.512038 0.254719 0.719810 0.218520
H40   H     H_    0.570902 0.145289 0.757663 0.173722
C43   C     C_3   0.721416 0.641819 0.814420 -0.365715
C44   C     C_3   0.739902 0.752872 0.882449 -0.414821
C45   C     C_3   0.851548 0.809433 0.843141 -0.873352
H41   H     H_    0.941436 0.773206 0.867710 0.256338
H42   H     H_    0.841989 0.806748 0.747834 0.245517
H43   H     H_    0.856330 0.891506 0.885917 0.247220
H44   H     H_    0.652166 0.795858 0.869174 0.224581
H45   H     H_    0.759593 0.754372 0.976899 0.222123
H46   H     H_    0.812959 0.602261 0.818197 0.181364
H47   H     H_    0.696558 0.652188 0.725197 0.250491
C46   C     C_3   0.276778 0.360603 0.187279 -0.373434
C47   C     C_3   0.249278 0.251195 0.117154 -0.419659
C48   C     C_3   0.149443 0.192554 0.170126 -0.868033
H48   H     H_    0.179348 0.187489 0.261892 0.246732
H49   H     H_    0.058124 0.232301 0.166209 0.256723
H50   H     H_    0.134792 0.112967 0.120712 0.247020
H51   H     H_    0.212048 0.253688 0.026561 0.222591
H52   H     H_    0.337869 0.207554 0.114988 0.222881
H53   H     H_    0.305407 0.347353 0.274812 0.256785
H54   H     H_    0.187660 0.403577 0.188618 0.179071

loop_
_geom_bond_atom_site_label_1
_geom_bond_atom_site_label_2
_ccdc_geom_bond_type
C42   H34   S    
C16   C21   S    
C44   H45   S    
C3    C40   S    
C18   C21   S    
C48   H49   S    
C43   C44   S    
C31   C32   S    
C45   H41   S    
C15   C22   S    
C47   H52   S    
C39   H27   S    
C18   C34   S    
C17   C23   S    
C18   C24   S    
C15   O7    A    
C22   C24   S    
C46   H53   S    
C19   C21   S    
C41   H37   S    
C5    C6    A    
C37   H33   S    
C33   H14   S    
C27   C29   A    
C47   C48   S    
C28   H8    S    
C9    C46   S    
C34   H25   S    
C32   C33   S    
C11   H10   S    
C3    C26   A    
Cu2   O6    S    
C4    C37   S    
C2    O4    A    
C40   H39   S    
C7    C14   A    
C35   H24   S    
C35   H23   S    
C27   H7    S    
C31   H18   S    
C29   H6    S    
C48   H48   S    
C7    H11   S    
C17   C31   S    
C32   H17   S    
C20   H2    S    
C35   C36   S    
C9    N2    A    
Cu1   O1    S    
C44   H44   S    
C44   C45   S    
Cu2   O2    S    
C45   H42   S    
C43   H46   S    
C4    C25   A    
C47   H51   S    
C39   H28   S    
C36   H20   S    
C8    H12   S    
C46   H54   S    
C38   C39   S    
C4    C6    A    
C19   H1    S    
C38   H31   S    
C41   C42   S    
C1    O1    A    
C33   H15   S    
C2    O2    A    
C40   C41   S    
C34   H26   S    
C30   H5    S    
C36   H21   S    
C37   C38   S    
C12   H9    S    
C5    C28   A    
C40   H40   S    
C6    C27   A    
C20   C23   S    
C31   H19   S    
C10   N1    A    
C24   H4    S    
C12   C14   A    
C23   H3    S    
C21   C23   S    
C1    C26   S    
C48   H50   S    
C15   O5    A    
C20   C22   S    
Cu1   O4    S    
Cu2   O7    S    
C45   H43   S    
C43   H47   S    
C39   H29   S    
C25   C30   A    
C7    C9    A    
Cu2   N2    S    
Cu1   Cu2   S    
C16   O6    A    
Cu1   O5    S    
C12   N1    A    
C3    C5    A    
C38   H30   S    
C46   C47   S    
C17   C22   S    
C36   H22   S    
C42   H35   S    
C19   C24   S    
C41   H38   S    
C11   C13   A    
C37   H32   S    
C33   H13   S    
C10   C43   S    
C28   C30   A    
C17   C19   S    
C2    C25   S    
C18   C20   S    
Cu1   O8    S    
C16   O8    A    
Cu2   O3    S    
C8    C13   A    
C26   C29   A    
C8    C10   A    
C34   C35   S    
Cu1   N1    S    
C42   H36   S    
C32   H16   S    
C11   N2    A    
C13   C14   A    
C1    O3    A    
