data_mof_unit_1480.cif
_audit_creation_date              2012-12-10T18:21:27-0500
_audit_creation_method            fapswitch 2.2
_symmetry_space_group_name_H-M    P1
_symmetry_Int_Tables_number       1
_space_group_crystal_system       triclinic
_cell_length_a                    14.990052
_cell_length_b                    14.174489
_cell_length_c                    10.946505
_cell_angle_alpha                 90.858074
_cell_angle_beta                  85.301562
_cell_angle_gamma                 90.020284
_cell_volume                      2317.79652182

loop_
_atom_site_label
_atom_site_type_symbol
_atom_type_description
_atom_site_fract_x
_atom_site_fract_y
_atom_site_fract_z
_atom_type_partial_charge
C1    C     C_R   0.326507 0.499494 0.498919 0.892416
C2    C     C_R   0.031597 0.578343 0.685859 -0.017114
C3    C     C_R   0.085723 0.542110 0.583957 0.018178
C4    C     C_R   0.501881 0.499560 0.258052 0.802701
C5    C     C_R   0.048307 0.525209 0.471192 0.037430
C6    C     C_R   0.102728 0.494801 0.366889 0.073094
C7    C     C_R   0.064051 0.480716 0.255497 -0.227642
C8    C     C_R   0.971470 0.484667 0.250450 0.015111
C9    C     C_R   0.172898 0.511368 0.595078 -0.087025
C10   C     C_R   0.230217 0.498474 0.489374 -0.137269
C11   C     C_R   0.194469 0.479866 0.376841 -0.084684
C12   C     C_3   0.601007 0.538433 0.922908 -0.012652
C13   C     C_R   0.569143 0.797477 0.437201 0.088282
C14   C     C_R   0.569947 0.200254 0.440303 -0.006220
C15   C     C_R   0.430068 0.800024 0.559651 0.045984
C16   C     C_R   0.430647 0.202003 0.561199 0.042464
C17   C     C_R   0.430737 0.900145 0.564294 -0.046290
C18   C     C_R   0.430744 0.101490 0.565385 0.021847
C19   C     C_R   0.673475 0.500623 0.492866 0.911152
C20   C     C_R   0.500658 0.949425 0.500243 0.082634
C21   C     C_R   0.500445 0.050344 0.500423 0.068276
C22   C     C_R   0.569827 0.898111 0.434287 0.003668
C23   C     C_R   0.821440 0.479176 0.370699 -0.120390
C24   C     C_R   0.569805 0.099805 0.435378 0.015619
C25   C     C_R   0.363526 0.952319 0.633036 -0.190991
C26   C     C_R   0.363982 0.050602 0.634446 -0.101430
C27   C     C_R   0.635968 0.047417 0.364688 -0.140234
C28   C     C_R   0.636017 0.948997 0.364236 -0.147072
C29   C     C_R   0.503279 0.500674 0.742241 0.931629
C30   C     C_3   0.419461 0.555236 0.082170 -0.260307
C31   C     C_3   0.499014 0.395610 0.071967 -0.204081
C32   C     C_3   0.429055 0.573497 0.940572 -0.141569
C33   C     C_3   0.486934 0.394991 0.931564 -0.098637
C34   C     C_R   0.770365 0.506026 0.479836 -0.104269
C35   C     C_3   0.590079 0.547604 0.066600 -0.540770
C36   C     C_3   0.503404 0.499646 0.122176 0.037861
C37   C     C_3   0.505600 0.501955 0.879713 -0.167636
C38   C     C_2   0.388309 0.641038 0.160115 0.558454
C39   C     C_2   0.571501 0.329279 0.110379 0.467382
C40   C     C_1   0.067569 0.609119 0.798279 0.215161
C41   C     C_1   0.181388 0.443990 0.690750 0.258626
C42   C     C_1   0.245118 0.423508 0.284660 0.175172
C43   C     C_1   0.938639 0.485855 0.129865 0.253532
C44   C     C_2   0.641879 0.742740 0.370383 0.446864
C45   C     C_R   0.810250 0.550566 0.574791 -0.090720
C46   C     C_2   0.646475 0.252227 0.383207 0.497673
C47   C     C_2   0.349430 0.751085 0.611828 0.486774
C48   C     C_2   0.355412 0.256146 0.621735 0.471058
C49   C     C_1   0.340763 0.556316 0.895474 0.242163
C50   C     C_1   0.393428 0.364849 0.918025 0.164262
C51   C     C_2   0.443664 0.678445 0.909220 0.540386
C52   C     C_2   0.542139 0.314154 0.866666 0.469646
C53   C     C_2   0.634660 0.633689 0.874299 0.287324
C54   C     C_2   0.678877 0.473197 0.883130 0.405551
C55   C     C_2   0.776178 0.427800 0.274998 0.461308
C56   C     C_R   0.901789 0.556198 0.573126 0.078756
C57   C     C_R   0.955141 0.527616 0.467333 0.050431
C58   C     C_R   0.915181 0.496818 0.360538 0.065349
C59   C     C_R   0.940128 0.586794 0.678514 -0.207714
H1    H     H_    0.105996 0.467534 0.171448 0.167850
H2    H     H_    0.770097 0.576076 0.654252 0.226323
H3    H     H_    0.898126 0.612091 0.757811 0.160245
H4    H     H_    0.320337 0.643296 0.202830 0.040928
H5    H     H_    0.551476 0.266098 0.160388 0.075055
H6    H     H_    0.626705 0.687106 0.306841 0.081122
H7    H     H_    0.634908 0.311440 0.326616 0.087626
H8    H     H_    0.284231 0.770661 0.583796 0.037133
H9    H     H_    0.368213 0.316592 0.678426 0.105385
H10   H     H_    0.492801 0.701670 0.839477 0.131774
H11   H     H_    0.595403 0.325895 0.796790 0.170345
H12   H     H_    0.310252 0.917828 0.688201 0.159638
H13   H     H_    0.652933 0.689585 0.936394 0.089683
H14   H     H_    0.727391 0.453908 0.946513 0.154324
H15   H     H_    0.708899 0.447430 0.257595 0.014461
H16   H     H_    0.311611 0.085668 0.691761 0.193936
H17   H     H_    0.687776 0.081539 0.306699 0.198022
H18   H     H_    0.688031 0.913728 0.306465 0.189626
H19   H     H_    0.362803 0.505908 0.100921 0.098767
H20   H     H_    0.438397 0.364420 0.120672 0.140679
H21   H     H_    0.586372 0.622692 0.097353 0.195992
H22   H     H_    0.649415 0.520335 0.108224 0.161443
N1    N     N_R   0.500070 0.750030 0.500050 -0.150701
N2    N     N_R   0.500070 0.249970 0.500050 -0.191927
N3    N     N_1   0.095015 0.634540 0.888882 -0.162284
N4    N     N_1   0.184607 0.388025 0.765994 -0.128524
N5    N     N_1   0.282980 0.375011 0.212218 -0.199862
N6    N     N_1   0.912834 0.487203 0.033073 -0.191388
N7    N     N_1   0.270066 0.546413 0.863521 -0.169079
N8    N     N_1   0.320875 0.338690 0.911663 -0.158922
O1    O     O_R   0.367860 0.580280 0.500020 -0.603121
O2    O     O_2   0.650701 0.341945 0.081807 -0.590841
O3    O     O_2   0.719957 0.757696 0.388577 -0.576335
O4    O     O_2   0.722909 0.231917 0.403875 -0.517240
O5    O     O_2   0.353929 0.692308 0.690621 -0.560197
O6    O     O_2   0.278246 0.236441 0.603636 -0.566779
O7    O     O_2   0.390795 0.739364 0.949134 -0.526944
O8    O     O_2   0.526046 0.231812 0.892411 -0.571479
O9    O     O_2   0.645646 0.649035 0.764810 -0.544639
O10   O     O_2   0.694921 0.450268 0.775761 -0.602796
O11   O     O_2   0.810794 0.359022 0.221934 -0.474912
O12   O     O_R   0.367860 0.419720 0.500020 -0.626469
O13   O     O_R   0.500000 0.580270 0.314790 -0.628357
O14   O     O_R   0.500000 0.419730 0.314790 -0.673429
O15   O     O_R   0.632160 0.580270 0.499960 -0.597236
O16   O     O_R   0.632160 0.419730 0.499960 -0.615118
O17   O     O_R   0.500030 0.580270 0.685200 -0.550070
O18   O     O_R   0.500030 0.419730 0.685200 -0.678243
O19   O     O_2   0.437814 0.708109 0.174783 -0.550072
Zn1   Zn    Zn3+2 0.500020 0.607200 0.499990 1.023710
Zn2   Zn    Zn3+2 0.500020 0.392800 0.499990 0.953401

loop_
_geom_bond_atom_site_label_1
_geom_bond_atom_site_label_2
_ccdc_geom_bond_type
C23   C58   A    
O16   Zn2   S    
C4    C36   S    
C1    O1    A    
C48   O6    D    
C18   C21   A    
C52   O8    D    
C35   C36   S    
C18   C26   A    
C24   C27   A    
C15   C47   S    
C16   C48   S    
C35   H22   S    
C7    C8    A    
C14   C46   S    
C33   C52   S    
C39   H5    S    
O14   Zn2   S    
C46   H7    S    
C5    C6    A    
C14   C24   A    
C4    O14   A    
C35   H21   S    
C17   C20   A    
C56   C57   A    
C30   C38   S    
C11   C42   S    
C39   O2    D    
C12   C37   S    
C40   N3    T    
C8    C58   A    
C55   H15   S    
C45   C56   A    
C4    O13   A    
C55   O11   D    
C31   C33   S    
C25   H12   S    
C9    C10   A    
C12   C53   S    
C44   O3    D    
C51   O7    D    
C22   C28   A    
C49   N7    T    
C44   H6    S    
C14   N2    A    
C47   H8    S    
C15   N1    A    
N1    Zn1   S    
C6    C11   A    
C2    C59   A    
C33   C50   S    
C13   N1    A    
C16   N2    A    
C33   C37   S    
C32   C51   S    
C3    C9    A    
C54   H14   S    
C19   O15   A    
C50   N8    T    
C23   C34   A    
C26   H16   S    
N2    Zn2   S    
C34   C45   A    
C32   C37   S    
C48   H9    S    
C12   C35   S    
C23   C55   S    
C28   H18   S    
O12   Zn2   S    
C42   N5    T    
C19   O16   A    
C20   C22   A    
O18   Zn2   S    
C29   O17   A    
C27   H17   S    
C1    O12   A    
C7    H1    S    
C38   H4    S    
C15   C17   A    
C59   H3    S    
C1    C10   S    
C3    C5    A    
C19   C34   S    
C31   H20   S    
C6    C7    A    
C5    C57   A    
C53   O9    D    
C41   N4    T    
C9    C41   S    
C56   C59   A    
C30   C36   S    
C17   C25   A    
C2    C3    A    
C25   C26   A    
C43   N6    T    
C30   C32   S    
C57   C58   A    
O15   Zn1   S    
C46   O4    D    
C8    C43   S    
C45   H2    S    
C47   O5    D    
C31   C39   S    
C13   C22   A    
C38   O19   D    
C54   O10   D    
C32   C49   S    
C52   H11   S    
C10   C11   A    
C30   H19   S    
C2    C40   S    
C20   C21   A    
C16   C18   A    
C21   C24   A    
C29   C37   S    
C27   C28   A    
C31   C36   S    
C29   O18   A    
O13   Zn1   S    
C51   H10   S    
O1    Zn1   S    
C53   H13   S    
C13   C44   S    
C12   C54   S    
O17   Zn1   S    
