data_mof_unit_3777.cif
_audit_creation_date              2012-12-11T14:48:18-0500
_audit_creation_method            fapswitch 2.2
_symmetry_space_group_name_H-M    P1
_symmetry_Int_Tables_number       1
_space_group_crystal_system       triclinic
_cell_length_a                    8.245948
_cell_length_b                    15.066377
_cell_length_c                    22.905967
_cell_angle_alpha                 97.027863
_cell_angle_beta                  89.516275
_cell_angle_gamma                 99.326424
_cell_volume                      2786.85416692

loop_
_atom_site_label
_atom_site_type_symbol
_atom_type_description
_atom_site_fract_x
_atom_site_fract_y
_atom_site_fract_z
_atom_type_partial_charge
Ba1   Ba    Ba6+2 0.857590 0.542650 0.472590 1.711372
Ba2   Ba    Ba6+2 0.332250 0.457420 0.527420 1.727837
C1    C     C_3   0.706947 0.876007 0.325892 -0.355559
C2    C     C_R   0.114362 0.579406 0.940248 -0.059723
C3    C     C_R   0.056272 0.573908 0.880819 0.641076
C4    C     C_3   0.138068 0.734836 0.314797 0.325360
C5    C     C_R   0.946844 0.416364 0.880377 0.575000
C6    C     C_R   0.990408 0.420457 0.940184 -0.015959
C7    C     C_R   0.074654 0.501812 0.970329 -0.064286
C8    C     C_R   0.209893 0.658934 0.971257 0.045635
C9    C     C_R   0.249077 0.660518 0.031236 -0.076670
C10   C     C_R   0.204466 0.584745 0.061509 -0.036680
C11   C     C_R   0.119488 0.504783 0.030799 -0.050857
C12   C     C_3   0.672123 0.781529 0.344757 0.339183
C13   C     C_R   0.952534 0.343664 0.970277 -0.074324
C14   C     C_R   0.996476 0.347028 0.029249 -0.077851
C15   C     C_R   0.080083 0.427288 0.060383 -0.023684
C16   C     C_3   0.117380 0.760162 0.253405 -0.313991
C17   C     C_R   0.126407 0.431083 0.120250 0.592509
C18   C     C_R   0.246468 0.587274 0.121759 0.575452
C19   C     C_2   0.783751 0.442643 0.768583 -0.155564
C20   C     C_3   0.755324 0.413085 0.703690 -0.049555
C21   C     C_1   0.006573 0.517659 0.686098 -0.016328
C22   C     C_2   0.052530 0.523592 0.742747 0.550792
C23   C     C_3   0.450543 0.316797 0.347895 0.851535
C24   C     C_2   0.933735 0.486314 0.788169 0.139227
C25   C     C_R   0.413809 0.552803 0.233079 -0.108023
C26   C     C_R   0.457299 0.559419 0.292680 0.029908
C27   C     C_R   0.186727 0.482902 0.314832 -0.032115
C28   C     C_3   0.236086 0.735159 0.599807 0.310810
C29   C     C_R   0.140064 0.478267 0.255071 -0.110929
C30   C     C_R   0.252813 0.514469 0.213248 0.202199
C31   C     C_2   0.864684 0.470680 0.665309 -0.397058
C32   C     C_R   0.753726 0.233853 0.523470 -0.230946
C33   C     C_R   0.845339 0.173847 0.543620 0.059649
C34   C     C_3   0.400380 0.280193 0.284666 -0.299583
C35   C     C_R   0.785241 0.080410 0.535805 -0.141585
C36   C     C_R   0.633210 0.045711 0.505767 0.016170
C37   C     C_R   0.550051 0.108966 0.482590 -0.123756
C38   C     C_R   0.610932 0.201210 0.490907 -0.021761
C39   C     C_R   0.411722 0.912556 0.466593 -0.133815
C40   C     C_3   0.263980 0.837410 0.616626 -0.379854
C41   C     C_R   0.348920 0.820140 0.457978 0.014049
C42   C     C_R   0.582855 0.788086 0.508713 0.060289
C43   C     C_R   0.647273 0.880603 0.517757 -0.120507
C44   C     C_R   0.564879 0.945429 0.495956 0.004786
C45   C     C_3   0.050782 0.265532 0.686218 0.318457
C46   C     C_R   0.437585 0.757975 0.476961 -0.295820
C47   C     C_3   0.935194 0.263416 0.395008 0.868323
C48   C     C_3   0.886142 0.163197 0.372893 -0.325794
C49   C     C_3   0.713399 0.656393 0.648367 0.304825
C50   C     C_3   0.720016 0.678994 0.714968 -0.347239
C51   C     C_3   0.283228 0.741961 0.942351 -0.159017
C52   C     C_3   0.421363 0.722757 0.899267 -0.167241
C53   C     C_3   0.571910 0.702563 0.930538 -0.426172
C54   C     C_3   0.068739 0.241272 0.748067 -0.302482
C55   C     C_3   0.501934 0.216784 0.660747 0.355660
C56   C     C_3   0.447156 0.125119 0.682217 -0.364567
C57   C     C_R   0.342974 0.526390 0.333088 -0.240152
F1    F     F_    0.032518 0.272067 0.444559 -0.710102
F2    F     F_    0.570767 0.391968 0.347708 -0.714955
F3    F     F_    0.208042 0.562343 0.759763 -0.673550
H1    H     H_    0.738242 0.783206 0.387072 0.077222
H2    H     H_    0.615071 0.597288 0.636934 0.077420
H3    H     H_    0.841140 0.896616 0.320301 0.139436
H4    H     H_    0.822267 0.735450 0.728032 0.125279
H5    H     H_    0.740056 0.619033 0.735858 0.064109
H6    H     H_    0.602162 0.699196 0.730986 0.149430
H7    H     H_    0.537491 0.764021 0.351196 -0.061958
H8    H     H_    0.662837 0.925265 0.359990 0.072284
H9    H     H_    0.341075 0.336847 0.370958 -0.010611
H10   H     H_    0.300694 0.220846 0.283920 0.069855
H11   H     H_    0.355183 0.333264 0.262625 0.077031
H12   H     H_    0.352964 0.856569 0.653934 0.127521
H13   H     H_    0.507355 0.259181 0.260088 0.117347
H14   H     H_    0.642438 0.876990 0.283667 0.124377
H15   H     H_    0.102709 0.698173 0.221198 0.118856
H16   H     H_    0.140944 0.327500 0.681353 0.087083
H17   H     H_    0.924182 0.279170 0.680616 -0.057571
H18   H     H_    0.179727 0.209443 0.751940 0.144133
H19   H     H_    0.082448 0.303824 0.779692 0.126302
H20   H     H_    0.958988 0.193456 0.759242 0.119319
H21   H     H_    0.638630 0.229032 0.660756 -0.068831
H22   H     H_    0.455191 0.213354 0.615013 0.065302
H23   H     H_    0.313529 0.872399 0.579025 0.063268
H24   H     H_    0.501062 0.072201 0.654019 0.067755
H25   H     H_    0.311358 0.106958 0.679901 0.148801
H26   H     H_    0.043185 0.675469 0.320416 0.094427
H27   H     H_    0.489283 0.126993 0.728339 0.122676
H28   H     H_    0.964457 0.286183 0.050423 0.123251
H29   H     H_    0.888226 0.280156 0.948228 0.122856
H30   H     H_    0.319824 0.721430 0.054292 0.120273
H31   H     H_    0.505585 0.577344 0.202279 0.112268
H32   H     H_    0.691355 0.417291 0.799122 0.140904
H33   H     H_    0.017111 0.446196 0.241310 0.136068
H34   H     H_    0.145934 0.860227 0.629712 0.126774
H35   H     H_    0.378795 0.530573 0.378801 0.095131
H36   H     H_    0.262160 0.716194 0.318724 -0.050938
H37   H     H_    0.839259 0.458156 0.618360 0.100011
H38   H     H_    0.334497 0.956341 0.451577 0.080232
H39   H     H_    0.861467 0.037062 0.552151 0.070124
H40   H     H_    0.758868 0.899838 0.543459 0.079705
H41   H     H_    0.441327 0.089207 0.455539 0.073911
H42   H     H_    0.387233 0.686500 0.470949 0.066193
H43   H     H_    0.800696 0.305767 0.528829 0.079630
H44   H     H_    0.005942 0.792174 0.250865 0.144252
H45   H     H_    0.824107 0.293553 0.405790 -0.026981
H46   H     H_    0.226506 0.808272 0.242062 0.125014
H47   H     H_    0.354850 0.713152 0.588367 -0.002289
H48   H     H_    0.150610 0.717945 0.561433 0.056689
H49   H     H_    0.619223 0.759609 0.964643 0.139434
H50   H     H_    0.540494 0.639360 0.951460 0.143573
H51   H     H_    0.670399 0.693298 0.898058 0.146164
H52   H     H_    0.377738 0.664952 0.865307 0.200303
H53   H     H_    0.459426 0.783380 0.876175 0.119021
H54   H     H_    0.186209 0.769154 0.920248 0.147215
H55   H     H_    0.335495 0.798893 0.975931 0.077503
H56   H     H_    0.799308 0.154644 0.335063 0.073422
H57   H     H_    0.826228 0.126086 0.408195 0.060778
H58   H     H_    0.996813 0.133305 0.358656 0.110421
H59   H     H_    0.833020 0.639217 0.632990 0.000296
N1    N     N_R   0.980058 0.492399 0.850755 -0.407977
N2    N     N_R   0.206447 0.511075 0.151095 -0.421338
O1    O     O_2   0.888680 0.450300 0.360330 -0.396020
O2    O     O_2   0.183343 0.178134 0.537566 -0.450714
O3    O     O_3   0.080964 0.193152 0.645259 -0.620110
O4    O     O_3   0.129270 0.451230 0.431380 -0.448981
O5    O     O_3   0.578310 0.608920 0.529980 -0.494642
O6    O     O_2   0.337770 0.279070 0.470480 -0.388609
O7    O     O_3   0.511920 0.249456 0.374243 -0.684060
O8    O     O_2   0.433771 0.459873 0.709221 -0.425748
O9    O     O_3   0.438981 0.284794 0.697675 -0.597331
O10   O     O_2   0.068322 0.642092 0.856380 -0.583255
O11   O     O_2   0.879093 0.344281 0.854610 -0.619317
O12   O     O_3   0.681480 0.732151 0.623394 -0.636828
O13   O     O_2   0.097890 0.362418 0.144484 -0.598639
O14   O     O_2   0.318356 0.657925 0.148059 -0.617259
O15   O     O_3   0.676100 0.614850 0.396630 -0.468278
O16   O     O_2   0.794147 0.554240 0.293054 -0.469485
O17   O     O_3   0.022313 0.305695 0.350817 -0.670722
O18   O     O_3   0.727821 0.719440 0.301368 -0.614862
O19   O     O_2   0.851930 0.720960 0.529560 -0.464376
O20   O     O_3   0.095720 0.661380 0.425720 -0.508996
O21   O     O_2   0.013043 0.822512 0.464265 -0.484272
O22   O     O_3   0.117720 0.808630 0.356369 -0.602795
O23   O     O_2   0.301020 0.549730 0.639710 -0.427311
O24   O     O_3   0.060450 0.548840 0.568630 -0.507455
O25   O     O_3   0.513610 0.385220 0.603380 -0.495208
O26   O     O_3   0.170348 0.694433 0.648221 -0.609645
O27   O     O_3   0.611400 0.391150 0.470030 -0.438299
O28   O     O_3   0.093990 0.338690 0.574280 -0.460264
P1    P     P_3+3 0.054670 0.423610 0.368990 1.057675
P2    P     P_3+3 0.674060 0.707690 0.546600 0.979276
P3    P     P_3+3 0.142969 0.778879 0.426810 0.937645
P4    P     P_3+3 0.135040 0.576460 0.631020 1.050498
P5    P     P_3+3 0.051167 0.220520 0.574548 1.020582
P6    P     P_3+3 0.664265 0.610071 0.320103 1.012020
P7    P     P_3+3 0.519731 0.278305 0.450749 0.999510
P8    P     P_3+3 0.535543 0.389705 0.679352 0.962070

loop_
_geom_bond_atom_site_label_1
_geom_bond_atom_site_label_2
_ccdc_geom_bond_type
Ba2   O27   S    
C19   C24   D    
C14   H28   S    
Ba2   P4    S    
C21   P4    S    
C53   H50   S    
C55   O9    S    
Ba1   O5    S    
C45   H17   S    
C56   H25   S    
C54   H19   S    
C47   H45   S    
C43   C44   A    
C3    O10   D    
C17   N2    Am   
C47   F1    S    
C28   H48   S    
C40   H34   S    
C42   P2    S    
C4    H36   S    
C38   P7    S    
C33   C35   A    
C29   H33   S    
C22   C24   S    
C32   C33   A    
C36   C37   A    
C51   H55   S    
C20   P8    S    
Ba2   O25   S    
C13   C14   A    
C46   H42   S    
Ba2   O6    S    
C4    H26   S    
Ba1   P1    S    
Ba1   Ba2   S    
C8    C51   S    
C7    C11   A    
C18   N2    Am   
Ba1   O19   S    
C49   O12   S    
C9    H30   S    
O23   P4    D    
C27   C57   A    
C6    C7    A    
C21   C31   D    
C21   C22   D    
C55   H21   S    
C23   H9    S    
C54   H20   S    
C41   P3    S    
O24   P4    S    
C41   C46   A    
O17   P1    S    
C50   H6    S    
C51   H54   S    
Ba2   O4    S    
O1    P1    D    
C12   O18   S    
C19   C20   S    
C39   C41   A    
C30   N2    S    
C1    H3    S    
C23   O7    S    
C56   H24   S    
O6    P7    D    
C4    C16   S    
C40   H12   S    
O9    P8    S    
C28   H47   S    
C49   C50   S    
C5    C6    A    
C1    H8    S    
C33   P5    S    
C5    O11   D    
C8    C9    A    
C37   C38   A    
C4    O22   S    
C14   C15   A    
C28   O26   S    
C53   H51   S    
Ba2   O24   S    
C51   C52   S    
C3    N1    Am   
C48   H57   S    
C31   H37   S    
O25   P8    S    
C18   O14   D    
O8    P8    D    
C16   H44   S    
C35   C36   A    
Ba1   O20   S    
C34   H13   S    
O4    P1    S    
C29   C30   A    
C39   C44   A    
C52   H53   S    
C10   C18   A    
C55   H22   S    
Ba1   O27   S    
C40   H23   S    
C23   F2    S    
O28   P5    S    
Ba1   P2    S    
C1    H14   S    
C50   H5    S    
C1    C12   S    
O5    P2    S    
O22   P3    S    
O18   P6    S    
C6    C13   A    
C57   H35   S    
C12   H7    S    
C32   C38   A    
C25   H31   S    
C5    N1    Am   
C2    C8    A    
C50   H4    S    
C42   C43   A    
C45   O3    S    
C26   C57   A    
Ba2   O28   S    
C20   C31   S    
C52   C53   S    
C22   F3    S    
O27   P7    S    
C53   H49   S    
C25   C30   A    
C48   H56   S    
C32   H43   S    
C49   H2    S    
Ba1   O4    S    
C2    C3    A    
O20   P3    S    
O12   P2    S    
C9    C10   A    
O2    P5    D    
C37   H41   S    
Ba2   O23   S    
C48   H58   S    
C54   H18   S    
C11   C15   A    
O7    P7    S    
O26   P4    S    
Ba1   O1    S    
C27   C29   A    
C39   H38   S    
C27   P1    S    
C35   H39   S    
O15   P6    S    
C55   C56   S    
C16   H15   S    
C49   H59   S    
C12   H1    S    
C52   H52   S    
C26   P6    S    
C15   C17   A    
O19   P2    D    
O21   P3    D    
C56   H27   S    
C16   H46   S    
C36   C44   S    
Ba1   O24   S    
C43   H40   S    
C23   C34   S    
C13   H29   S    
C17   O13   D    
C34   H10   S    
C10   C11   A    
O16   P6    D    
C47   C48   S    
C19   H32   S    
C47   O17   S    
C25   C26   A    
C28   C40   S    
C24   N1    S    
C45   H16   S    
C2    C7    A    
C34   H11   S    
Ba1   O15   S    
C42   C46   A    
O3    P5    S    
C45   C54   S    
Ba2   O5    S    
