data_mof_unit_135.cif
_audit_creation_date              2012-12-10T20:49:09-0500
_audit_creation_method            fapswitch 2.2
_symmetry_space_group_name_H-M    P1
_symmetry_Int_Tables_number       1
_space_group_crystal_system       triclinic
_cell_length_a                    8.934045
_cell_length_b                    8.117837
_cell_length_c                    10.591175
_cell_angle_alpha                 89.562535
_cell_angle_beta                  90.328692
_cell_angle_gamma                 90.035169
_cell_volume                      768.091095623

loop_
_atom_site_label
_atom_site_type_symbol
_atom_type_description
_atom_site_fract_x
_atom_site_fract_y
_atom_site_fract_z
_atom_type_partial_charge
C1    C     C_R   0.218034 0.499967 0.499872 0.934792
C2    C     C_3   0.637051 0.463082 0.045466 0.200655
C3    C     C_3   0.504424 0.496963 0.876119 -0.157575
C4    C     C_3   0.497315 0.502150 0.124066 -0.154416
C5    C     C_1   0.065191 0.499941 0.499627 -0.190333
C6    C     C_1   0.934792 0.500026 0.499543 -0.189798
C7    C     C_3   0.099854 0.603690 0.984804 -0.750248
C8    C     C_3   0.820007 0.273898 0.144042 -0.763778
C9    C     C_R   0.781959 0.500028 0.499670 0.941429
C10   C     C_R   0.496424 0.500698 0.257365 0.912964
C11   C     C_R   0.504543 0.499164 0.742662 0.925979
C12   C     C_3   0.459875 0.649942 0.037455 0.037282
C13   C     C_3   0.541907 0.348793 0.962233 0.066802
C14   C     C_3   0.599142 0.610987 0.959833 0.030097
C15   C     C_3   0.402091 0.387497 0.040225 0.027869
C16   C     C_3   0.364607 0.535701 0.954791 0.159378
H1    H     H_    0.225874 0.657249 0.825579 0.228038
H2    H     H_    0.328312 0.802357 0.140547 0.201175
H3    H     H_    0.589617 0.108513 0.998284 0.181979
H4    H     H_    0.494645 0.140421 0.864574 0.194405
H5    H     H_    0.752441 0.790496 0.992189 0.186794
H6    H     H_    0.646926 0.821270 0.862903 0.209877
H7    H     H_    0.247668 0.208936 0.008221 0.192836
H8    H     H_    0.354953 0.176277 0.136381 0.201127
H9    H     H_    0.991880 0.596707 0.932976 0.269260
H10   H     H_    0.110997 0.728821 0.025176 0.213924
H11   H     H_    0.098265 0.510831 0.062171 0.270716
H12   H     H_    0.818041 0.529783 0.158060 0.214178
H13   H     H_    0.928308 0.276016 0.196066 0.235616
H14   H     H_    0.832376 0.188101 0.063842 0.256369
H15   H     H_    0.731623 0.229042 0.208961 0.254229
H16   H     H_    0.381585 0.880087 0.000423 0.167416
N1    N     N_1   0.500000 0.073640 0.500000 -0.040752
N2    N     N_1   0.500000 0.926360 0.500000 -0.038956
N3    N     N_2   0.220379 0.572014 0.898051 -0.304181
N4    N     N_2   0.785734 0.437374 0.097435 -0.304445
N5    N     N_3   0.419206 0.814271 0.079597 -0.455327
N6    N     N_3   0.583583 0.185228 0.918827 -0.438792
N7    N     N_3   0.706690 0.731715 0.913455 -0.450394
N8    N     N_3   0.294859 0.266525 0.086865 -0.457662
O1    O     O_R   0.285350 0.636850 0.500000 -0.624406
O2    O     O_R   0.714650 0.363150 0.500000 -0.615725
O3    O     O_R   0.714650 0.636850 0.500000 -0.616062
O4    O     O_R   0.285350 0.363150 0.500000 -0.614135
O5    O     O_R   0.499970 0.636850 0.313950 -0.619451
O6    O     O_R   0.500030 0.363150 0.686050 -0.617964
O7    O     O_R   0.500030 0.636850 0.686050 -0.636803
O8    O     O_R   0.499970 0.363150 0.313950 -0.632687
Zn1   Zn    Zn3+2 0.500000 0.682780 0.500000 0.977325
Zn2   Zn    Zn3+2 0.500000 0.317220 0.500000 0.981380

loop_
_geom_bond_atom_site_label_1
_geom_bond_atom_site_label_2
_ccdc_geom_bond_type
C2    C4    S    
H3    N6    S    
C4    C12   S    
H4    N6    S    
O6    Zn2   S    
C1    O4    A    
C11   O7    A    
C7    H9    S    
O5    Zn1   S    
C8    H14   S    
C6    C9    S    
O8    Zn2   S    
N1    N2    T    
C13   N6    S    
O7    Zn1   S    
H16   N5    S    
C7    H10   S    
C9    O2    A    
C3    C14   S    
C4    C15   S    
C1    C5    S    
H6    N7    S    
C1    O1    A    
H8    N8    S    
H2    N5    S    
O2    Zn2   S    
C13   C15   S    
C16   N3    S    
C10   O8    A    
C5    C6    T    
C2    C14   S    
C15   N8    S    
C9    O3    A    
C3    C11   S    
C15   C16   S    
C8    H13   S    
C4    C10   S    
H7    N8    S    
C12   C14   S    
C7    H11   S    
H12   N4    S    
C8    N4    S    
C10   O5    A    
C2    N4    S    
C12   N5    S    
C2    C13   S    
O3    Zn1   S    
N2    Zn1   S    
O4    Zn2   S    
H1    N3    S    
N1    Zn2   S    
C8    H15   S    
C7    N3    S    
H5    N7    S    
O1    Zn1   S    
C3    C16   S    
C12   C16   S    
C14   N7    S    
C11   O6    A    
C3    C13   S    
