data_mof_unit_3654.cif
_audit_creation_date              2012-12-10T16:53:06-0500
_audit_creation_method            fapswitch 2.2
_symmetry_space_group_name_H-M    P1
_symmetry_Int_Tables_number       1
_space_group_crystal_system       triclinic
_cell_length_a                    10.75359
_cell_length_b                    10.925629
_cell_length_c                    9.735635
_cell_angle_alpha                 90.125058
_cell_angle_beta                  89.982696
_cell_angle_gamma                 90.759552
_cell_volume                      1143.73389948

loop_
_atom_site_label
_atom_site_type_symbol
_atom_type_description
_atom_site_fract_x
_atom_site_fract_y
_atom_site_fract_z
_atom_type_partial_charge
C1    C     C_R   0.501239 0.265344 0.499399 0.838722
C2    C     C_R   0.063792 0.383833 0.537694 0.094156
C3    C     C_R   0.128836 0.491696 0.499419 -0.072508
C4    C     C_R   0.065710 0.595928 0.457807 -0.197366
C5    C     C_R   0.937286 0.596189 0.457752 -0.200113
C6    C     C_R   0.870908 0.492317 0.499652 -0.069791
C7    C     C_2   0.520750 0.931962 0.388153 -0.222341
C8    C     C_2   0.514422 0.866468 0.503817 -0.356717
C9    C     C_2   0.533650 0.065948 0.388485 0.188707
C10   C     C_2   0.497545 0.132707 0.498052 -0.330043
C11   C     C_2   0.437789 0.420186 0.924438 0.182423
C12   C     C_R   0.262719 0.497979 0.499944 0.784439
C13   C     C_2   0.424838 0.432008 0.078922 0.262190
C14   C     C_R   0.503164 0.734518 0.500445 0.862338
C15   C     C_R   0.737248 0.498923 0.499905 0.781828
C16   C     C_R   0.126150 0.275139 0.571673 -0.242443
C17   C     C_R   0.059537 0.169366 0.606810 -0.130158
C18   C     C_R   0.929649 0.168932 0.607964 0.220011
C19   C     C_R   0.866436 0.276301 0.574200 -0.204529
C20   C     C_R   0.932489 0.384288 0.538425 0.061922
Cu1   Cu    Cu3+1 0.500020 0.500020 0.638630 0.932311
Cu2   Cu    Cu3+1 0.499980 0.499980 0.361370 0.971107
H1    H     H_    0.116287 0.677823 0.426841 0.140171
H2    H     H_    0.459195 0.090434 0.589496 0.111702
H3    H     H_    0.571557 0.542620 0.104967 0.160573
H4    H     H_    0.109311 0.086914 0.632223 0.144058
H5    H     H_    0.765882 0.274101 0.574279 0.132097
H6    H     H_    0.889278 0.678256 0.426674 0.136957
N1    N     N_2   0.498640 0.498660 0.846910 -0.297082
N2    N     N_2   0.498610 0.498630 0.153040 -0.290003
O1    O     O_R   0.500020 0.321960 0.617040 -0.611927
O2    O     O_R   0.499980 0.321920 0.382900 -0.510744
O3    O     O_R   0.319670 0.500020 0.617100 -0.587727
O4    O     O_R   0.319630 0.499980 0.382950 -0.543439
O5    O     O_R   0.500020 0.678080 0.617100 -0.580305
O6    O     O_R   0.499980 0.678040 0.382960 -0.578909
O7    O     O_R   0.680370 0.500020 0.617050 -0.570107
O8    O     O_R   0.680330 0.499980 0.382900 -0.573950
N3    N     N_3   0.377197 0.314881 0.865769 -0.610239
H7    H     H_    0.444087 0.251735 0.836160 0.239707
H8    H     H_    0.320563 0.340011 0.784280 0.269433
H9    H     H_    0.534171 0.575888 0.893779 0.170176
N4    N     N_3   0.331378 0.359881 0.147224 -0.493219
H10   H     H_    0.245238 0.380512 0.103924 0.210551
H11   H     H_    0.349056 0.267458 0.128744 0.219130
H12   H     H_    0.226509 0.270391 0.569311 0.130538
N5    N     N_3   0.863276 0.058589 0.643373 -0.593638
H13   H     H_    0.880582 0.994236 0.566286 0.211147
H14   H     H_    0.767385 0.073397 0.642796 0.215141
H15   H     H_    0.520302 0.886338 0.288849 0.173087
H16   H     H_    0.523253 0.908465 0.604322 0.150346
N6    N     N_3   0.583942 0.123731 0.267898 -0.548644
H17   H     H_    0.672273 0.088061 0.250276 0.212647
H18   H     H_    0.527541 0.099608 0.184409 0.208326

loop_
_geom_bond_atom_site_label_1
_geom_bond_atom_site_label_2
_ccdc_geom_bond_type
N4    H10   S    
C15   O8    A    
Cu1   O5    S    
N1    H9    S    
C2    C20   A    
C5    H6    S    
N4    H11   S    
C9    C10   D    
C19   C20   A    
C1    O1    A    
C18   N5    S    
Cu1   O1    S    
C17   C18   A    
C12   O3    A    
C7    C8    D    
N5    H14   S    
Cu2   O6    S    
Cu1   Cu2   S    
C11   N3    S    
C11   C13   S    
C8    H16   S    
C16   C17   A    
C9    N6    S    
Cu2   O2    S    
C6    C20   A    
C17   H4    S    
C19   H5    S    
N6    H18   S    
C2    C3    A    
C14   O6    A    
C5    C6    A    
Cu2   O4    S    
Cu1   O3    S    
C12   O4    A    
C3    C4    A    
Cu2   O8    S    
C13   N2    D    
C13   N4    S    
Cu1   O7    S    
N6    H17   S    
C11   N1    D    
C2    C16   A    
N3    H8    S    
C18   C19   A    
C16   H12   S    
N3    H7    S    
C7    C9    S    
C4    H1    S    
H3    N2    S    
C8    C14   S    
C3    C12   S    
Cu2   N2    S    
C10   H2    S    
C6    C15   S    
Cu1   N1    S    
C14   O5    A    
C1    O2    A    
C15   O7    A    
C1    C10   S    
N5    H13   S    
C7    H15   S    
C4    C5    A    
