data_mof_unit_4332.cif
_audit_creation_date              2012-12-10T16:55:01-0500
_audit_creation_method            fapswitch 2.2
_symmetry_space_group_name_H-M    P1
_symmetry_Int_Tables_number       1
_space_group_crystal_system       triclinic
_cell_length_a                    9.691038
_cell_length_b                    10.931078
_cell_length_c                    15.542722
_cell_angle_alpha                 89.803887
_cell_angle_beta                  73.908537
_cell_angle_gamma                 89.477637
_cell_volume                      1581.91948258

loop_
_atom_site_label
_atom_site_type_symbol
_atom_type_description
_atom_site_fract_x
_atom_site_fract_y
_atom_site_fract_z
_atom_type_partial_charge
C1    C     C_R   0.001567 0.265303 0.497944 0.884363
C2    C     C_R   0.669586 0.522052 0.905811 0.091498
C3    C     C_R   0.766539 0.562246 0.953183 0.167830
C4    C     C_R   0.520431 0.511571 0.951040 0.067562
C5    C     C_R   0.472599 0.531952 0.045173 0.067181
C6    C     C_R   0.573231 0.572627 0.089558 -0.221790
C7    C     C_R   0.716896 0.587871 0.044152 -0.240286
C8    C     C_R   0.417113 0.484307 0.905007 -0.218248
C9    C     C_R   0.273019 0.471260 0.950113 -0.240477
C10   C     C_R   0.226062 0.483423 0.042685 0.168283
C11   C     C_R   0.325217 0.512691 0.091457 0.090168
C12   C     C_R   0.916920 0.501458 0.672025 0.790595
C13   C     C_R   0.080493 0.465411 0.087166 -0.216134
C14   C     C_R   0.031907 0.474010 0.180009 -0.196386
C15   C     C_R   0.273821 0.517760 0.185304 -0.250772
C16   C     C_2   0.895400 0.934954 0.478865 0.531499
C17   C     C_2   0.995753 0.867551 0.503199 -0.410719
C18   C     C_2   0.890978 0.068750 0.491561 -0.261149
C19   C     C_2   0.008685 0.133580 0.488559 -0.398528
C20   C     C_2   0.398638 0.433015 0.554118 -0.067969
C21   C     C_2   0.555301 0.429967 0.552031 -0.071319
C22   C     C_R   0.999254 0.734911 0.499650 0.883335
C23   C     C_R   0.083064 0.499870 0.327902 0.794287
C24   C     C_R   0.870368 0.513377 0.769823 -0.046786
C25   C     C_R   0.128950 0.498386 0.229592 -0.047297
C26   C     C_R   0.912572 0.577875 0.908759 -0.218296
C27   C     C_R   0.964186 0.554070 0.817481 -0.199034
C28   C     C_R   0.725817 0.493928 0.814539 -0.241405
Cu1   Cu    Cu3+1 0.138640 0.500020 0.499980 0.940239
Cu2   Cu    Cu3+1 0.861360 0.499980 0.500020 0.965229
H1    H     H_    0.789877 0.619932 0.080776 0.146227
H2    H     H_    0.004480 0.442625 0.050220 0.142825
H3    H     H_    0.077722 0.909472 0.528390 0.116715
H4    H     H_    0.787775 0.114564 0.501705 0.182427
H5    H     H_    0.114130 0.091165 0.474722 0.154736
H6    H     H_    0.326088 0.375369 0.602957 0.149509
H7    H     H_    0.414482 0.550671 0.452669 0.194766
H8    H     H_    0.587268 0.366632 0.597002 0.147306
H9    H     H_    0.623013 0.561707 0.460296 0.202921
H10   H     H_    0.345231 0.533098 0.226081 0.150898
H11   H     H_    0.919447 0.458354 0.213005 0.156603
H12   H     H_    0.197948 0.449908 0.912095 0.146865
H13   H     H_    0.986363 0.611071 0.944319 0.141163
H14   H     H_    0.076302 0.570386 0.783916 0.157306
H15   H     H_    0.659602 0.456349 0.776098 0.144537
H16   H     H_    0.544293 0.597267 0.159293 0.139603
H17   H     H_    0.442866 0.475160 0.833373 0.142073
N1    N     N_2   0.346430 0.498660 0.500980 -0.279181
N2    N     N_2   0.652550 0.498630 0.501000 -0.276375
O1    O     O_R   0.117050 0.321960 0.499980 -0.577109
O2    O     O_R   0.882890 0.321920 0.500020 -0.579427
O3    O     O_R   0.052910 0.500040 0.629810 -0.582789
O4    O     O_R   0.818750 0.499990 0.629840 -0.580972
O5    O     O_R   0.117110 0.678080 0.499980 -0.587313
O6    O     O_R   0.882950 0.678040 0.500020 -0.511014
O7    O     O_R   0.181250 0.500010 0.370160 -0.587219
O8    O     O_R   0.947090 0.499960 0.370190 -0.582378
O9    O     O_3   0.787154 0.877245 0.451589 -0.552968
C29   C     C_3   0.769010 0.932746 0.373290 -0.315613
H18   H     H_    0.873594 0.948240 0.322231 0.155385
H19   H     H_    0.707198 0.019738 0.389351 0.162373
H20   H     H_    0.705721 0.870359 0.343105 0.182645

loop_
_geom_bond_atom_site_label_1
_geom_bond_atom_site_label_2
_ccdc_geom_bond_type
C8    C9    A    
C2    C4    A    
Cu2   O2    S    
Cu1   Cu2   S    
Cu1   O7    S    
C18   H4    S    
Cu2   O6    S    
C12   C24   S    
C13   H2    S    
C12   O4    A    
C24   C27   A    
C4    C8    A    
Cu1   O5    S    
C21   N2    D    
C2    C3    A    
C9    H12   S    
C8    H17   S    
C23   O7    A    
C22   O5    A    
C19   H5    S    
C13   C14   A    
H7    N1    S    
C1    O2    A    
C26   C27   A    
C20   N1    D    
C17   H3    S    
C14   H11   S    
C9    C10   A    
C12   O3    A    
Cu2   N2    S    
C26   H13   S    
C5    C11   A    
C6    C7    A    
C3    C7    A    
Cu1   O1    S    
C23   C25   S    
C14   C25   A    
C5    C6    A    
C15   H10   S    
Cu2   O4    S    
C28   H15   S    
C1    C19   S    
C15   C25   A    
C10   C11   A    
Cu1   N1    S    
C20   H6    S    
Cu2   O8    S    
C29   H18   S    
C7    H1    S    
C20   C21   S    
C16   C18   S    
C18   C19   D    
C1    O1    A    
C29   H19   S    
C23   O8    A    
C17   C22   S    
C16   C17   D    
C29   H20   S    
C2    C28   A    
C22   O6    A    
C6    H16   S    
H9    N2    S    
O9    C29   S    
C11   C15   A    
C27   H14   S    
C10   C13   A    
C3    C26   A    
C21   H8    S    
C24   C28   A    
C4    C5    A    
Cu1   O3    S    
C16   O9    S    
