data_mof_unit_4325.cif
_audit_creation_date              2013-03-05T16:30:42-0500
_audit_creation_method            fapswitch 2.2
_symmetry_space_group_name_H-M    P1
_symmetry_Int_Tables_number       1
_space_group_crystal_system       triclinic
_cell_length_a                    10.957083
_cell_length_b                    10.828389
_cell_length_c                    9.571116
_cell_angle_alpha                 90.296182
_cell_angle_beta                  89.341715
_cell_angle_gamma                 90.892192
_cell_volume                      1135.36277295

loop_
_atom_site_label
_atom_site_type_symbol
_atom_site_description
_atom_site_fract_x
_atom_site_fract_y
_atom_site_fract_z
_atom_type_partial_charge
O1    O     O_R   0.500000 0.319640 0.618810 -0.616892
O2    O     O_R   0.500010 0.319680 0.381230 -0.573841
C1    C     C_R   0.496239 0.262480 0.499650 0.830017
O3    O     O_R   0.321940 0.499980 0.618760 -0.576312
O4    O     O_R   0.321950 0.500020 0.381180 -0.538225
C2    C     C_R   0.265269 0.495096 0.500383 0.799914
Cu1   Cu    Cu3+1 0.499990 0.499980 0.640670 1.001214
Cu2   Cu    Cu3+1 0.500010 0.500020 0.359330 1.042537
O5    O     O_R   0.499990 0.680320 0.618770 -0.584665
O6    O     O_R   0.500000 0.680360 0.381190 -0.544332
O7    O     O_R   0.678050 0.499980 0.618820 -0.552761
O8    O     O_R   0.678060 0.500020 0.381240 -0.556269
C3    C     C_R   0.492279 0.737550 0.499963 0.833984
C4    C     C_R   0.734367 0.499346 0.499038 0.903293
C5    C     C_2   0.935470 0.472907 0.387925 0.235131
C6    C     C_2   0.865861 0.510361 0.496360 -0.333086
H1    H     H_    0.907308 0.559770 0.583208 0.219740
C7    C     C_2   0.066123 0.506231 0.390274 0.313514
C8    C     C_2   0.133377 0.471360 0.500164 0.189762
C9    C     C_R   0.482252 0.064688 0.623805 0.106437
C10   C     C_R   0.479290 0.129698 0.499284 -0.149161
C11   C     C_R   0.449521 0.065347 0.376279 -0.228177
H2    H     H_    0.433757 0.115213 0.280475 0.202880
C12   C     C_R   0.441924 0.935727 0.375558 0.324782
C13   C     C_R   0.471022 0.870479 0.499456 -0.213476
C14   C     C_R   0.478750 0.937898 0.624119 0.103379
C15   C     C_3   0.565833 0.932773 0.742753 -0.420928
C16   C     C_3   0.570104 0.072808 0.741189 -0.388744
H3    H     H_    0.520632 0.896424 0.838844 0.236637
H4    H     H_    0.654221 0.890479 0.712747 0.223748
H5    H     H_    0.528939 0.115319 0.836286 0.219432
H6    H     H_    0.660476 0.111890 0.708744 0.221332
C17   C     C_R   0.603381 0.530337 0.072666 0.228806
N1    N     N_R   0.500780 0.500930 0.147930 -0.227502
C18   C     C_R   0.403292 0.454973 0.076478 0.008883
H7    H     H_    0.325075 0.418263 0.133278 0.192563
C19   C     C_R   0.404070 0.451095 0.928611 0.473156
N2    N     N_R   0.500780 0.500890 0.852020 -0.271645
C20   C     C_R   0.603816 0.529804 0.925449 0.150002
C21   C     C_3   0.675230 0.648429 0.922292 0.126317
C22   C     C_3   0.674888 0.647974 0.081312 -0.484730
H8    H     H_    0.623996 0.724886 0.876883 0.118307
H9    H     H_    0.765977 0.634548 0.128474 0.229178
H10   H     H_    0.621429 0.724394 0.128217 0.219022
N3    N     N_R   0.889462 0.395699 0.276296 0.139773
O9    O     O_R   0.944042 0.396575 0.154853 -0.289477
O10   O     O_R   0.812105 0.306384 0.303784 -0.324783
O11   O     O_3   0.306999 0.392810 0.866217 -0.697396
H11   H     H_    0.340832 0.342716 0.789048 0.345194
N4    N     N_R   0.797496 0.634897 0.861784 0.155650
O12   O     O_R   0.842373 0.721075 0.781258 -0.368851
O13   O     O_R   0.863953 0.540049 0.891240 -0.273564
O14   O     O_3   0.118182 0.574195 0.282322 -0.668888
H12   H     H_    0.052272 0.600317 0.219335 0.366510
O15   O     O_3   0.078328 0.404014 0.607108 -0.706206
H13   H     H_    0.141764 0.374339 0.670908 0.373630
N5    N     N_R   0.405258 0.873609 0.249524 0.133214
O16   O     O_R   0.317069 0.791768 0.253794 -0.288914
O17   O     O_R   0.442309 0.915165 0.128700 -0.389117

loop_
_geom_bond_atom_site_label_1
_geom_bond_atom_site_label_2
_geom_bond_distance
_ccdc_geom_bond_type
O1    C1    1.295576 A    
C5    C7    1.471285 S    
N4    O13   1.302134 A    
O15   H13   0.988938 S    
C19   N2    1.385434 A    
O4    Cu2   1.959804 S    
C15   H3    1.110524 S    
C12   N5    1.436420 S    
C18   H7    1.081191 S    
Cu2   O8    1.964541 S    
C17   C22   1.487504 S    
C22   H10   1.111136 S    
C21   H8    1.101476 S    
C17   N1    1.362639 A    
C14   C15   1.493323 S    
Cu1   Cu2   2.692738 S    
Cu2   N1    2.023330 S    
O14   H12   0.991524 S    
C9    C10   1.388260 A    
C19   O11   1.369675 S    
Cu1   O7    1.959803 S    
C2    C8    1.463907 S    
C22   H9    1.112018 S    
C3    C13   1.461743 S    
N5    O16   1.301365 A    
N2    C20   1.368027 A    
C9    C14   1.372896 A    
O3    Cu1   1.964541 S    
C21   N4    1.462537 S    
Cu2   O6    1.962894 S    
C21   C22   1.521987 S    
C18   C19   1.415592 A    
Cu1   N2    2.022946 S    
O8    C4    1.291536 A    
O2    C1    1.294352 A    
C4    C6    1.443811 S    
N3    O10   1.301919 A    
O4    C2    1.293655 A    
O7    C4    1.295744 A    
C11   C12   1.404730 A    
C1    C10   1.446877 S    
N5    O17   1.301355 A    
C5    N3    1.443823 S    
C5    C6    1.345526 D    
C20   C21   1.493908 S    
N3    O9    1.301053 A    
C16   H6    1.112332 S    
C12   C13   1.425282 A    
O3    C2    1.298690 A    
N1    C18   1.361273 A    
O11   H11   0.986405 S    
C8    O15   1.386773 S    
C15   C16   1.516496 S    
Cu1   O5    1.965085 S    
O5    C3    1.302046 A    
C11   H2    1.083454 S    
C7    C8    1.349970 D    
O1    Cu1   1.962895 S    
C9    C16   1.489220 S    
C7    O14   1.384119 S    
N4    O12   1.300406 A    
C13   C14   1.398268 A    
C10   C11   1.404008 A    
C17   C20   1.408964 A    
C16   H5    1.111967 S    
O2    Cu2   1.965085 S    
C6    H1    1.086251 S    
C15   H4    1.111850 S    
O6    C3    1.294258 A    
