data_mof_unit_2701.cif
_audit_creation_date              2012-12-10T18:34:26-0500
_audit_creation_method            fapswitch 2.2
_symmetry_space_group_name_H-M    P1
_symmetry_Int_Tables_number       1
_space_group_crystal_system       triclinic
_cell_length_a                    14.879434
_cell_length_b                    15.500322
_cell_length_c                    15.73182
_cell_angle_alpha                 90.619757
_cell_angle_beta                  103.974786
_cell_angle_gamma                 81.465514
_cell_volume                      3480.76139916

loop_
_atom_site_label
_atom_site_type_symbol
_atom_type_description
_atom_site_fract_x
_atom_site_fract_y
_atom_site_fract_z
_atom_type_partial_charge
C1    C     C_R   0.441101 0.662391 0.488621 0.856254
C2    C     C_R   0.558675 0.337803 0.513459 0.861807
C3    C     C_R   0.276836 0.876362 0.454863 -0.138183
C4    C     C_R   0.703319 0.131854 0.623198 -0.139152
C5    C     C_R   0.308332 0.786756 0.458782 -0.216007
C6    C     C_R   0.680128 0.218159 0.592234 -0.177628
C7    C     C_R   0.466509 0.813653 0.517699 -0.251567
C8    C     C_R   0.531230 0.186826 0.507317 -0.230129
C9    C     C_R   0.436259 0.903338 0.518549 0.079400
C10   C     C_R   0.548069 0.103161 0.545036 0.081671
C11   C     C_R   0.340802 0.936341 0.479789 0.130458
C12   C     C_R   0.638475 0.072499 0.599355 0.123727
C13   C     C_R   0.501350 0.960607 0.551573 0.075095
C14   C     C_R   0.476874 0.049486 0.528434 0.073071
C15   C     C_R   0.381532 0.082565 0.491879 -0.305233
C16   C     C_R   0.589930 0.931220 0.607645 -0.316510
C17   C     C_R   0.313321 0.027761 0.468156 -0.025853
C18   C     C_R   0.658916 0.984986 0.630900 -0.021298
C19   C     C_R   0.851883 0.619612 0.645553 -0.236842
C20   C     C_R   0.160771 0.353810 0.376677 -0.258039
C21   C     C_R   0.758136 0.610645 0.614210 0.340256
C22   C     C_R   0.243920 0.388247 0.386614 0.303286
C23   C     C_R   0.500665 0.500293 0.662053 0.896049
C24   C     C_R   0.499253 0.499750 0.337912 0.904672
C25   C     C_R   0.798327 0.503235 0.515932 -0.023277
C26   C     C_R   0.208581 0.476687 0.501568 -0.012685
C27   C     C_R   0.896023 0.503111 0.553546 0.005486
C28   C     C_R   0.123946 0.441575 0.495317 0.008610
C29   C     C_R   0.922165 0.563323 0.619965 0.082234
C30   C     C_R   0.099253 0.380128 0.429745 0.070641
C31   C     C_R   0.968247 0.448896 0.524218 0.061775
C32   C     C_R   0.061173 0.469155 0.549117 0.046287
C33   C     C_R   0.087731 0.514680 0.627832 -0.126537
C34   C     C_R   0.952429 0.374884 0.471853 -0.090404
C35   C     C_R   0.017772 0.564804 0.661412 -0.069889
C36   C     C_R   0.015608 0.343645 0.420759 -0.079649
C37   C     C_3   0.443214 0.572284 0.015585 -0.165085
C38   C     C_3   0.554078 0.428474 0.983690 -0.149725
C39   C     C_3   0.532117 0.571943 0.980912 -0.166863
C40   C     C_3   0.465180 0.428806 0.018357 -0.152175
C41   C     C_1   0.501818 0.500908 0.751396 -0.156569
C42   C     C_1   0.497496 0.499496 0.248400 -0.181480
C43   C     C_3   0.411145 0.501158 0.950249 -0.143350
C44   C     C_3   0.586141 0.499594 0.048961 -0.150137
C45   C     C_3   0.500065 0.500819 0.917382 0.186574
C46   C     C_3   0.497273 0.499933 0.081900 0.188475
C47   C     C_1   0.501485 0.501070 0.826705 -0.054310
C48   C     C_1   0.496797 0.499554 0.172836 -0.061861
C49   C     C_R   0.404015 0.755472 0.487389 -0.057407
C50   C     C_R   0.593655 0.245666 0.534270 -0.071762
H1    H     H_    0.559548 0.630432 0.963521 0.145529
H2    H     H_    0.437745 0.370319 0.035744 0.149423
H3    H     H_    0.227802 0.528025 0.545994 0.125874
H4    H     H_    0.773988 0.463187 0.461267 0.139004
H5    H     H_    0.868994 0.669175 0.693286 0.195593
H6    H     H_    0.145006 0.306246 0.326703 0.203553
H7    H     H_    0.397796 0.631024 0.030693 0.149558
H8    H     H_    0.599490 0.369729 0.968579 0.151512
H9    H     H_    0.657681 0.498914 0.091406 0.152583
H10   H     H_    0.339647 0.501842 0.907679 0.155777
H11   H     H_    0.468072 0.208462 0.457586 0.150835
H12   H     H_    0.540208 0.788406 0.536717 0.169528
H13   H     H_    0.728038 0.263975 0.616426 0.215061
H14   H     H_    0.258092 0.742270 0.437574 0.165546
H15   H     H_    0.202426 0.897059 0.432073 0.199272
H16   H     H_    0.770071 0.114421 0.669372 0.205991
H17   H     H_    0.357857 0.151956 0.482898 0.151001
H18   H     H_    0.605719 0.866259 0.636268 0.134852
N1    N     N_R   0.731710 0.552730 0.549140 -0.105649
N2    N     N_R   0.268290 0.447270 0.450860 -0.103826
O1    O     O_R   0.383110 0.605620 0.475230 -0.618647
O2    O     O_R   0.616890 0.394380 0.524770 -0.593671
O3    O     O_R   0.531900 0.639510 0.506760 -0.627178
O4    O     O_R   0.468100 0.360490 0.493240 -0.619467
O5    O     O_R   0.425620 0.483070 0.607460 -0.589377
O6    O     O_R   0.574380 0.516930 0.392540 -0.610803
O7    O     O_R   0.574400 0.516960 0.638990 -0.617738
O8    O     O_R   0.425600 0.483040 0.361010 -0.619870
Zn1   Zn    Zn3+2 0.400660 0.477370 0.478940 0.958220
Zn2   Zn    Zn3+2 0.599340 0.522630 0.521060 0.967100
C51   C     C_3   0.301888 0.361028 0.321875 -0.808419
H19   H     H_    0.374751 0.334447 0.354602 0.254140
H20   H     H_    0.274559 0.308522 0.279131 0.204397
H21   H     H_    0.298456 0.417096 0.277498 0.252062
C52   C     C_3   0.692518 0.664415 0.660311 -0.856265
H22   H     H_    0.619732 0.654266 0.641509 0.280756
H23   H     H_    0.716403 0.649711 0.731900 0.231147
H24   H     H_    0.695128 0.734292 0.649251 0.191662
C53   C     C_2   0.185157 0.496607 0.684346 0.399695
H25   H     H_    0.214696 0.545531 0.727589 0.032636
O9    O     O_2   0.232586 0.425057 0.685063 -0.537801
C54   C     C_2   0.878930 0.321903 0.479610 0.353847
H26   H     H_    0.844299 0.287041 0.424038 0.068661
O10   O     O_2   0.858654 0.314586 0.549620 -0.558212
C55   C     C_2   0.216397 0.070663 0.427449 0.388090
H27   H     H_    0.192261 0.135518 0.447496 0.065713
O11   O     O_2   0.164975 0.037729 0.367666 -0.562911
C56   C     C_2   0.751178 0.944304 0.685639 0.381286
H28   H     H_    0.754169 0.892333 0.732426 0.071887
O12   O     O_2   0.824546 0.963442 0.675301 -0.560951
C57   C     C_2   0.045840 0.615452 0.742010 0.372895
H29   H     H_    0.100723 0.655619 0.747735 0.049887
O13   O     O_2   0.010379 0.609930 0.803732 -0.542206
C58   C     C_2   0.994011 0.271322 0.359938 0.353852
H30   H     H_    0.984090 0.209436 0.385136 0.089112
O14   O     O_2   0.982967 0.281957 0.281099 -0.540771

loop_
_geom_bond_atom_site_label_1
_geom_bond_atom_site_label_2
_ccdc_geom_bond_type
C39   H1    S    
C57   H29   S    
C27   C29   A    
C24   C42   S    
C55   H27   S    
C20   H6    S    
O1    Zn1   S    
C51   H19   S    
C20   C30   A    
C52   H22   S    
C40   C46   S    
C1    O1    A    
C19   C21   A    
C52   H24   S    
C44   H9    S    
C7    C9    A    
C9    C13   A    
C38   C45   S    
C2    C50   S    
C38   H8    S    
C40   C43   S    
C17   C55   S    
C4    C12   A    
C2    O4    A    
C8    H11   S    
C39   C45   S    
C45   C47   S    
C57   O13   D    
C13   C14   A    
C5    C49   A    
C3    H15   S    
C2    O2    A    
C58   O14   D    
C58   H30   S    
C51   H20   S    
C44   C46   S    
C21   C52   S    
C52   H23   S    
C46   C48   S    
C27   C31   A    
C22   C51   S    
C28   C32   A    
C25   H4    S    
C7    C49   A    
C4    C6    A    
C10   C14   A    
O8    Zn1   S    
C24   O6    A    
C3    C5    A    
C40   H2    S    
C23   O7    A    
O2    Zn2   S    
C5    H14   S    
C21   N1    A    
C6    H13   S    
C37   C43   S    
C7    H12   S    
C38   C44   S    
C33   C53   S    
C9    C11   A    
C31   C32   A    
C15   H17   S    
C54   O10   D    
C41   C47   T    
C31   C34   A    
C42   C48   T    
C6    C50   A    
C43   C45   S    
C10   C12   A    
C43   H10   S    
C16   H18   S    
C24   O8    A    
C20   C22   A    
C56   H28   S    
C56   O12   D    
O4    Zn1   S    
C26   N2    A    
C25   N1    A    
C19   C29   A    
C26   H3    S    
C8    C50   A    
C51   H21   S    
O7    Zn2   S    
C19   H5    S    
C15   C17   A    
C11   C17   A    
N2    Zn1   S    
C8    C10   A    
O6    Zn2   S    
C23   O5    A    
C35   C57   S    
C55   O11   D    
C39   C44   S    
C25   C27   A    
C29   C35   A    
C26   C28   A    
C23   C41   S    
C30   C36   A    
C36   C58   S    
C1    O3    A    
C32   C33   A    
C28   C30   A    
C37   C46   S    
C37   C39   S    
C38   C40   S    
C1    C49   S    
C54   H26   S    
C33   C35   A    
O3    Zn2   S    
C34   C36   A    
C34   C54   S    
C3    C11   A    
C4    H16   S    
C16   C18   A    
C53   O9    D    
C13   C16   A    
C12   C18   A    
C14   C15   A    
N1    Zn2   S    
C18   C56   S    
C53   H25   S    
O5    Zn1   S    
C22   N2    A    
C37   H7    S    
