data_mof_unit_1142.cif
_audit_creation_date              2013-03-05T16:44:40-0500
_audit_creation_method            fapswitch 2.2
_symmetry_space_group_name_H-M    P1
_symmetry_Int_Tables_number       1
_space_group_crystal_system       triclinic
_cell_length_a                    27.728983
_cell_length_b                    10.669395
_cell_length_c                    9.879807
_cell_angle_alpha                 90.429017
_cell_angle_beta                  90.71054
_cell_angle_gamma                 90.911641
_cell_volume                      2922.27439986

loop_
_atom_site_label
_atom_site_type_symbol
_atom_site_description
_atom_site_fract_x
_atom_site_fract_y
_atom_site_fract_z
_atom_type_partial_charge
O1    O     O_R   0.500010 0.316790 0.614690 -0.612865
O2    O     O_R   0.500000 0.316760 0.385350 -0.621649
C1    C     C_R   0.497985 0.259948 0.499563 0.891480
O3    O     O_R   0.428760 0.500040 0.614660 -0.619876
O4    O     O_R   0.428750 0.500000 0.385310 -0.622740
C2    C     C_R   0.406136 0.500301 0.499292 0.877087
Zn1   Zn    Zn3+2 0.500000 0.500020 0.653130 0.952833
Zn2   Zn    Zn3+2 0.500000 0.499980 0.346870 0.946401
O5    O     O_R   0.500000 0.683240 0.614650 -0.615576
O6    O     O_R   0.499990 0.683210 0.385310 -0.621572
O7    O     O_R   0.571250 0.500000 0.614690 -0.628909
O8    O     O_R   0.571240 0.499960 0.385340 -0.622100
C3    C     C_R   0.498227 0.740052 0.500191 0.878368
C4    C     C_R   0.593960 0.499853 0.500706 0.870728
C5    C     C_R   0.178173 0.416020 0.571739 0.510713
O9    O     O_2   0.203328 0.326052 0.635371 -0.558489
N1    N     N_R   0.201915 0.506850 0.500904 -0.358475
C6    C     C_R   0.178000 0.600610 0.436695 0.491190
C7    C     C_R   0.277276 0.456061 0.385424 0.147274
C8    C     C_R   0.327478 0.455230 0.386008 -0.192832
C9    C     C_R   0.329327 0.551242 0.609771 -0.216647
C10   C     C_R   0.279327 0.553258 0.609315 -0.115011
C11   C     C_R   0.253242 0.505915 0.497837 0.281060
C12   C     C_R   0.102218 0.509871 0.510151 -0.059092
C13   C     C_R   0.127821 0.416063 0.578114 -0.042370
C14   C     C_R   0.102925 0.327315 0.654591 -0.191158
C15   C     C_R   0.127634 0.603778 0.439728 -0.008729
C16   C     C_R   0.353626 0.502338 0.498135 -0.081466
H1    H     H_    0.348954 0.589252 0.696540 0.157418
H2    H     H_    0.260682 0.591376 0.695665 0.146933
H3    H     H_    0.122398 0.259970 0.715008 0.191652
C17   C     C_R   0.646671 0.499623 0.501981 -0.039382
C18   C     C_R   0.975211 0.402392 0.558940 0.015212
C19   C     C_R   0.975260 0.613506 0.462802 0.040210
C20   C     C_R   0.949757 0.506878 0.510247 0.059800
C21   C     C_R   0.949614 0.289885 0.579867 -0.179292
C22   C     C_R   0.899352 0.283266 0.574847 0.182080
C23   C     C_R   0.873033 0.392622 0.542299 -0.030038
C24   C     C_R   0.898621 0.504086 0.507350 -0.131260
C25   C     C_R   0.873228 0.612839 0.468884 -0.016393
C26   C     C_R   0.822597 0.608970 0.470508 0.513940
N2    N     N_R   0.798710 0.501651 0.505108 -0.362934
C27   C     C_R   0.822135 0.394931 0.539611 0.509050
C28   C     C_R   0.722348 0.492316 0.625986 -0.097918
C29   C     C_R   0.672247 0.491281 0.625031 -0.222857
C30   C     C_R   0.671897 0.507709 0.379862 -0.215433
C31   C     C_R   0.721986 0.507974 0.381062 -0.101683
C32   C     C_R   0.747224 0.500702 0.504073 0.319810
O10   O     O_2   0.795655 0.292268 0.570437 -0.562886
C33   C     C_R   0.025988 0.410890 0.577052 0.043535
C34   C     C_R   0.051283 0.509999 0.512801 0.034434
C35   C     C_R   0.026031 0.609554 0.451460 0.066346
C36   C     C_R   0.052631 0.326013 0.658423 0.069649
H4    H     H_    0.653666 0.483495 0.720285 0.159971
H5    H     H_    0.741926 0.486531 0.721208 0.139907
H6    H     H_    0.968730 0.203551 0.593700 0.167069
O11   O     O_2   0.202995 0.690418 0.370748 -0.563299
C37   C     C_R   0.102376 0.698092 0.373772 -0.140984
H7    H     H_    0.345925 0.415737 0.300131 0.160384
H8    H     H_    0.121096 0.770095 0.317115 0.189516
C38   C     C_R   0.949259 0.720777 0.427785 -0.281031
C39   C     C_R   0.899142 0.721807 0.430844 0.145961
O12   O     O_2   0.796945 0.711348 0.438819 -0.527238
C40   C     C_R   0.052452 0.701246 0.379537 -0.222045
H9    H     H_    0.967064 0.807673 0.401323 0.138846
H10   H     H_    0.653029 0.514035 0.283567 0.160139
H11   H     H_    0.741285 0.513946 0.286640 0.139643
H12   H     H_    0.035364 0.774432 0.322561 0.143294
C41   C     C_R   0.484284 0.064618 0.620348 0.093048
C42   C     C_R   0.488982 0.128488 0.498631 -0.097099
C43   C     C_R   0.483573 0.063275 0.375530 -0.223876
H13   H     H_    0.483121 0.111200 0.279233 0.169294
C44   C     C_R   0.483813 0.933735 0.375957 -0.210285
H14   H     H_    0.483484 0.884273 0.279765 0.172911
C45   C     C_R   0.489399 0.870998 0.499520 -0.127586
C46   C     C_R   0.484337 0.936481 0.620823 0.138036
C47   C     C_3   0.513274 0.933226 0.749744 -0.102136
C48   C     C_3   0.512825 0.075843 0.749476 -0.526037
H15   H     H_    0.549705 0.892965 0.737657 0.165354
H16   H     H_    0.491648 0.118702 0.832222 0.202000
H17   H     H_    0.549185 0.118720 0.734773 0.202650
C49   C     C_R   0.469748 0.421205 0.069261 0.192141
N3    N     N_R   0.499670 0.499140 0.142800 -0.123750
C50   C     C_R   0.533282 0.567042 0.075539 -0.143236
H18   H     H_    0.559308 0.622892 0.133334 0.156151
C51   C     C_R   0.533510 0.568451 0.932096 0.243484
N4    N     N_R   0.499670 0.499180 0.857150 -0.108525
C52   C     C_R   0.469723 0.421223 0.926888 0.161433
C53   C     C_3   0.416009 0.419235 0.919554 -0.471471
C54   C     C_3   0.416058 0.418780 0.073152 -0.499877
H19   H     H_    0.401216 0.506636 0.876328 0.216929
H20   H     H_    0.401446 0.330859 0.873561 0.206845
H21   H     H_    0.401162 0.505720 0.117809 0.222926
H22   H     H_    0.401708 0.329843 0.115913 0.198182
N5    N     N_3   0.251325 0.404136 0.271468 -0.455654
H23   H     H_    0.230161 0.474318 0.229239 0.213479
H24   H     H_    0.228293 0.333097 0.306066 0.198518
N6    N     N_3   0.875091 0.834561 0.393165 -0.373962
H25   H     H_    0.884911 0.857039 0.294304 0.184789
H26   H     H_    0.887506 0.906868 0.457131 0.178828
N7    N     N_3   0.485960 0.877397 0.860679 -0.420142
H27   H     H_    0.504657 0.897530 0.950988 0.185399
H28   H     H_    0.452106 0.918829 0.867831 0.199049
C55   C     C_3   0.571971 0.648558 0.869221 -0.848598
H29   H     H_    0.564963 0.669592 0.762851 0.287934
H30   H     H_    0.574740 0.740295 0.922844 0.205555
H31   H     H_    0.607215 0.601632 0.879295 0.214432
C56   C     C_3   0.875977 0.157441 0.604185 -0.778966
H32   H     H_    0.902930 0.083805 0.624630 0.194873
H33   H     H_    0.853463 0.164221 0.695980 0.272606
H34   H     H_    0.853944 0.125143 0.515663 0.266790
N8    N     N_3   0.029555 0.247183 0.755993 -0.468937
H35   H     H_    0.039726 0.154667 0.737661 0.180120
H36   H     H_    0.042475 0.273034 0.852267 0.198672

loop_
_geom_bond_atom_site_label_1
_geom_bond_atom_site_label_2
_geom_bond_distance
_ccdc_geom_bond_type
N4    C52   1.362678 A    
N7    H27   1.045530 S    
Zn2   N3    2.016032 S    
C26   N2    1.361625 A    
C47   N7    1.464832 S    
N5    H23   1.044878 S    
C48   H17   1.112143 S    
C12   C15   1.408829 A    
C51   C55   1.499723 S    
N8    H36   1.045764 S    
C47   C48   1.521901 S    
Zn1   O7    2.016484 S    
N1    C11   1.424141 S    
C40   H12   1.078365 S    
C21   C22   1.394609 A    
C50   C51   1.417470 A    
C30   H10   1.083113 S    
C23   C24   1.422100 A    
O7    C4    1.297056 A    
C48   H16   1.112257 S    
C5    C13   1.398406 A    
C37   H8    1.083466 S    
C5    O9    1.350058 S    
C18   C21   1.402745 A    
C25   C39   1.412768 A    
C56   H32   1.110828 S    
C41   C46   1.367213 A    
C5    N1    1.365144 A    
C19   C20   1.415872 A    
C44   H14   1.083464 S    
O5    C3    1.287814 A    
C55   H29   1.091972 S    
C39   N6    1.434120 S    
C50   H18   1.083037 S    
Zn1   N4    2.015899 S    
C31   C32   1.398151 A    
C42   C43   1.401881 A    
C53   H19   1.110871 S    
C12   C34   1.412985 A    
C14   H3    1.083946 S    
N7    H28   1.046914 S    
C9    C10   1.386907 A    
C44   C45   1.404706 A    
C41   C48   1.495971 S    
C38   C39   1.390618 A    
O3    Zn1   2.007014 S    
C31   H11   1.082984 S    
N8    H35   1.046012 S    
C54   H22   1.111483 S    
C47   H15   1.111447 S    
C37   C40   1.387151 A    
C2    C16   1.456461 S    
C33   C36   1.424662 A    
C34   C35   1.417255 A    
C3    C45   1.422279 S    
C1    C42   1.420665 S    
C12   C13   1.406229 A    
C22   C56   1.513003 S    
O3    C2    1.294259 A    
C35   C40   1.413959 A    
C24   C25   1.418635 A    
C43   C44   1.382275 A    
C51   N4    1.388350 A    
C27   O10   1.347826 S    
C8    C16   1.402025 A    
C33   C34   1.417943 A    
C18   C33   1.418501 A    
C9    H1    1.082484 S    
O6    C3    1.284693 A    
C19   C38   1.405490 A    
C8    H7    1.082272 S    
C20   C24   1.417720 A    
C45   C46   1.392431 A    
C22   C23   1.422766 A    
C21   H6    1.078784 S    
C6    O11   1.349973 S    
N3    C50   1.355061 A    
Zn2   O8    2.007014 S    
N1    C6    1.364940 A    
C17   C29   1.403941 A    
N2    C32   1.427427 S    
C46   C47   1.497859 S    
C53   H20   1.111554 S    
C36   N8    1.434020 S    
C25   C26   1.404196 A    
C9    C16   1.401338 A    
O8    C4    1.295483 A    
C29   H4    1.081595 S    
N6    H25   1.045804 S    
N6    H26   1.044949 S    
N2    C27   1.363261 A    
C26   O12   1.349609 S    
C14   C36   1.395427 A    
C7    N5    1.431850 S    
C28   C29   1.389038 A    
C7    C11   1.407597 A    
C54   H21   1.111886 S    
Zn1   O5    1.994263 S    
C30   C31   1.388795 A    
C10   H2    1.083025 S    
O1    Zn1   1.988713 S    
C17   C30   1.404619 A    
O2    Zn2   1.994264 S    
C6    C15   1.398221 A    
C4    C17   1.461565 S    
C15   C37   1.395948 A    
O4    Zn2   2.016486 S    
N5    H24   1.045510 S    
C55   H30   1.110591 S    
C19   C35   1.414937 A    
C49   C54   1.489555 S    
C56   H34   1.110145 S    
C7    C8    1.392163 A    
O2    C1    1.286294 A    
C13   C14   1.395320 A    
C43   H13   1.083493 S    
C28   H5    1.082982 S    
O4    C2    1.295715 A    
C49   C52   1.406607 A    
C18   C20   1.413174 A    
C56   H33   1.109947 S    
C41   C42   1.393121 A    
C38   H9    1.078854 S    
C23   C27   1.411875 A    
C52   C53   1.490104 S    
Zn2   O6    1.988712 S    
C49   N3    1.364462 A    
C10   C11   1.397012 A    
O1    C1    1.285189 A    
C53   C54   1.517547 S    
C55   H31   1.108843 S    
C28   C32   1.398153 A    
