data_mof_unit_4966.cif
_audit_creation_date              2012-12-10T20:31:07-0500
_audit_creation_method            fapswitch 2.2
_symmetry_space_group_name_H-M    P1
_symmetry_Int_Tables_number       1
_space_group_crystal_system       triclinic
_cell_length_a                    14.990995
_cell_length_b                    10.677909
_cell_length_c                    9.84938
_cell_angle_alpha                 90.033431
_cell_angle_beta                  90.018886
_cell_angle_gamma                 90.042607
_cell_volume                      1576.61389711

loop_
_atom_site_label
_atom_site_type_symbol
_atom_type_description
_atom_site_fract_x
_atom_site_fract_y
_atom_site_fract_z
_atom_type_partial_charge
C1    C     C_R   0.497227 0.259927 0.500049 0.921410
C2    C     C_R   0.186387 0.418093 0.588584 0.424954
C3    C     C_R   0.231232 0.495868 0.497100 -0.268145
C4    C     C_R   0.326886 0.499761 0.499624 0.984485
C5    C     C_R   0.185496 0.569744 0.402512 0.346265
C6    C     C_R   0.484550 0.063968 0.623633 -0.034352
C7    C     C_R   0.482902 0.128617 0.500926 -0.159968
C8    C     C_R   0.463428 0.064769 0.379987 -0.231151
C9    C     C_R   0.463107 0.935164 0.380020 -0.185085
C10   C     C_R   0.481691 0.871296 0.501212 -0.140964
C11   C     C_R   0.483083 0.936116 0.623914 0.064915
C12   C     C_R   0.906147 0.551897 0.394209 0.119111
C13   C     C_3   0.545166 0.926023 0.742474 0.092725
C14   C     C_3   0.548734 0.069485 0.740827 0.840453
C15   C     C_R   0.452811 0.411763 0.071411 0.171996
C16   C     C_R   0.496775 0.740066 0.500095 0.880921
C17   C     C_R   0.553942 0.578545 0.072084 -0.124777
C18   C     C_R   0.554197 0.578172 0.927912 -0.072141
C19   C     C_R   0.452807 0.411727 0.928944 0.258419
C20   C     C_3   0.354720 0.389651 0.924022 -0.399413
C21   C     C_3   0.354831 0.390110 0.078107 -0.512085
C22   C     C_R   0.673140 0.497963 0.500127 0.937139
C23   C     C_R   0.956356 0.370719 0.710562 0.482970
C24   C     C_R   0.814223 0.554626 0.397582 -0.332708
C25   C     C_R   0.768702 0.492994 0.500597 -0.134688
C26   C     C_R   0.813508 0.423578 0.600160 0.378619
C27   C     C_R   0.907266 0.426185 0.603618 -0.111575
C28   C     C_R   0.953328 0.489573 0.497839 0.006598
C29   C     C_3   0.572020 0.142249 0.960942 -0.166610
C30   C     C_3   0.912255 0.413527 0.925618 -0.244778
C31   C     C_3   0.246933 0.224575 0.609207 -0.303204
C32   C     C_R   0.048731 0.364882 0.701857 -0.240131
C33   C     C_R   0.093962 0.424231 0.595744 -0.043914
C34   C     C_R   0.046528 0.491436 0.495736 -0.119131
C35   C     C_R   0.092277 0.559543 0.393256 -0.032397
C36   C     C_R   0.044010 0.613737 0.284690 0.455277
C37   C     C_R   0.950888 0.610773 0.287829 -0.336182
H1    H     H_    0.777677 0.605364 0.319945 0.168010
H2    H     H_    0.084938 0.317250 0.781858 0.209433
H3    H     H_    0.913156 0.654045 0.206437 0.133521
H4    H     H_    0.454694 0.113819 0.284672 0.172811
H5    H     H_    0.546271 0.861516 0.925265 0.317322
H6    H     H_    0.615226 0.224817 0.940870 0.204556
H7    H     H_    0.613892 0.057422 0.976198 0.132720
H8    H     H_    0.535627 0.159791 0.057067 0.143517
H9    H     H_    0.655304 0.074717 0.624075 0.283978
H10   H     H_    0.791327 0.265808 0.687533 0.377042
H11   H     H_    0.873856 0.496965 0.891315 0.162913
H12   H     H_    0.454627 0.886088 0.284569 0.191505
H13   H     H_    0.980495 0.441665 0.958300 0.159672
H14   H     H_    0.877539 0.374528 0.015633 0.194128
H15   H     H_    0.286445 0.235988 0.514340 0.147748
H16   H     H_    0.182353 0.177400 0.586740 0.170712
H17   H     H_    0.285463 0.162399 0.677704 0.206930
H18   H     H_    0.200347 0.734460 0.326039 0.364385
H19   H     H_    0.044216 0.695038 0.107069 0.326669
H20   H     H_    0.608935 0.877192 0.718369 0.051331
H21   H     H_    0.595981 0.643829 0.126609 0.135088
H22   H     H_    0.596793 0.642567 0.873347 0.141770
H23   H     H_    0.317470 0.469690 0.879454 0.243775
H24   H     H_    0.338651 0.296193 0.880931 0.247777
H25   H     H_    0.318006 0.470755 0.122303 0.267306
H26   H     H_    0.338377 0.297444 0.123012 0.202804
N1    N     N_R   0.499390 0.499140 0.142800 -0.102041
N2    N     N_R   0.499390 0.499180 0.857150 -0.109277
O1    O     O_R   0.500010 0.316790 0.614690 -0.565753
O2    O     O_3   0.509123 0.127719 0.855252 -0.585701
O3    O     O_3   0.632387 0.120752 0.704469 -0.790193
O4    O     O_3   0.764118 0.350380 0.687694 -0.697323
O5    O     O_3   0.915369 0.320546 0.823912 -0.601692
O6    O     O_3   0.233398 0.340317 0.675199 -0.623445
O7    O     O_3   0.233465 0.654131 0.325340 -0.707775
O8    O     O_3   0.088268 0.663435 0.173913 -0.750450
O9    O     O_R   0.500000 0.316760 0.385350 -0.646985
O10   O     O_R   0.367850 0.499990 0.614680 -0.601925
O11   O     O_R   0.367840 0.499950 0.385340 -0.589372
O12   O     O_R   0.500000 0.683240 0.614650 -0.603065
O13   O     O_R   0.499990 0.683210 0.385310 -0.623839
O14   O     O_R   0.632160 0.500050 0.614660 -0.572429
O15   O     O_R   0.632150 0.500010 0.385320 -0.644175
O16   O     O_3   0.500003 0.877535 0.855484 -0.700276
Zn1   Zn    Zn3+2 0.500010 0.500020 0.653130 1.025377
Zn2   Zn    Zn3+2 0.499990 0.499980 0.346870 0.960062

loop_
_geom_bond_atom_site_label_1
_geom_bond_atom_site_label_2
_ccdc_geom_bond_type
C30   H14   S    
C35   C36   A    
C31   H15   S    
C7    C8    A    
C18   N2    A    
C15   C19   A    
C26   C27   A    
C12   C28   A    
C1    O9    A    
C30   H11   S    
C36   C37   A    
C22   O14   A    
C34   C35   A    
C5    O7    S    
C17   N1    A    
C6    C14   S    
C13   O16   S    
C12   C37   A    
C16   O12   A    
C32   H2    S    
C20   H24   S    
H10   O4    S    
C4    O10   A    
C29   O2    S    
O13   Zn2   S    
C19   C20   S    
C8    C9    A    
C22   C25   S    
C24   H1    S    
C14   O2    S    
C23   C27   A    
C20   H23   S    
C9    C10   A    
O9    Zn2   S    
H18   O7    S    
C17   H21   S    
C31   O6    S    
C30   H13   S    
C28   C34   A    
C13   C14   S    
C29   H6    S    
C23   O5    S    
H5    O16   S    
O15   Zn2   S    
O11   Zn2   S    
C30   O5    S    
C33   C34   A    
C4    O11   A    
C9    H12   S    
C24   C25   A    
C10   C11   A    
C6    C11   A    
C25   C26   A    
C31   H16   S    
C29   H8    S    
C1    O1    A    
N1    Zn2   S    
H9    O3    S    
O1    Zn1   S    
C15   N1    A    
C17   C18   A    
C8    H4    S    
C21   H25   S    
C2    C33   A    
C29   H7    S    
C2    O6    S    
H19   O8    S    
C1    C7    S    
C3    C5    A    
O14   Zn1   S    
O10   Zn1   S    
C6    C7    A    
C37   H3    S    
C12   C24   A    
C23   C32   A    
C2    C3    A    
C22   O15   A    
C10   C16   S    
C32   C33   A    
C11   C13   S    
N2    Zn1   S    
O12   Zn1   S    
C5    C35   A    
C19   N2    A    
C16   O13   A    
C31   H17   S    
C21   H26   S    
C36   O8    S    
C18   H22   S    
C15   C21   S    
C13   H20   S    
C20   C21   S    
C27   C28   A    
C26   O4    S    
C14   O3    S    
C3    C4    S    
