data_mof_unit_1372.cif
_audit_creation_date              2012-10-26T19:21:35-0400
_audit_creation_method            fapswitch 2.2
_symmetry_space_group_name_H-M    P1
_symmetry_Int_Tables_number       1
_space_group_crystal_system       triclinic
_cell_length_a                    9.952275
_cell_length_b                    10.932683
_cell_length_c                    15.844914
_cell_angle_alpha                 98.061698
_cell_angle_beta                  79.460358
_cell_angle_gamma                 110.318343
_cell_volume                      1583.94544338

loop_
_atom_site_label
_atom_site_type_symbol
_atom_type_description
_atom_site_fract_x
_atom_site_fract_y
_atom_site_fract_z
_atom_type_partial_charge
C1    C     C_R   0.551269 0.745147 0.512603 0.540431
C2    C     C_2   0.469316 0.063203 0.544911 -0.176003
C3    C     C_2   0.915516 0.476196 0.497588 0.460377
C4    C     C_2   0.066969 0.495984 0.515711 0.453938
C5    C     C_R   0.413382 0.484088 0.662027 0.533313
C6    C     C_R   0.587832 0.518134 0.337945 0.539878
C7    C     C_R   0.366848 0.469478 0.754499 -0.048775
C8    C     C_R   0.641073 0.548654 0.247333 -0.052082
C9    C     C_R   0.180915 0.386454 0.873617 0.285986
C10   C     C_R   0.840355 0.637644 0.133309 0.278817
C11   C     C_R   0.228410 0.390278 0.785164 -0.155786
C12   C     C_R   0.441908 0.254552 0.497333 0.536977
C13   C     C_R   0.788913 0.599561 0.218159 -0.162838
C14   C     C_R   0.466647 0.529196 0.812062 -0.153833
C15   C     C_R   0.541878 0.534819 0.191740 -0.157281
C16   C     C_R   0.427531 0.515574 0.901119 -0.051787
C17   C     C_R   0.586524 0.568992 0.106246 -0.056532
C18   C     C_R   0.278483 0.456595 0.932335 0.077108
C19   C     C_R   0.738072 0.617146 0.075885 0.065210
C20   C     C_R   0.531401 0.558322 0.959618 -0.024359
C21   C     C_R   0.483198 0.547759 0.049025 -0.026114
C22   C     C_3   0.027571 0.363600 0.113603 0.012865
C23   C     C_R   0.332764 0.516549 0.078337 -0.158836
C24   C     C_3   0.864903 0.299464 0.114743 -0.338404
C25   C     C_3   0.969517 0.822965 0.947769 0.005320
C26   C     C_3   0.125614 0.873159 0.903940 -0.366958
C27   C     C_3   0.007576 0.183002 0.886375 -0.019995
C28   C     C_3   0.856541 0.120118 0.861216 -0.384337
C29   C     C_3   0.075799 0.753689 0.165139 0.003335
C30   C     C_3   0.221174 0.838210 0.121417 -0.367123
C31   C     C_3   0.016561 0.480377 0.661258 -0.025937
C32   C     C_3   0.045438 0.554342 0.748649 -0.334580
C33   C     C_3   0.830175 0.252338 0.478095 0.006291
C34   C     C_R   0.681813 0.605671 0.931236 -0.130896
C35   C     C_3   0.775410 0.138108 0.412050 -0.347911
C36   C     C_3   0.157258 0.290516 0.354385 0.065862
C37   C     C_3   0.131963 0.246024 0.261870 -0.424450
C38   C     C_3   0.860498 0.713502 0.643008 0.070202
C39   C     C_3   0.968566 0.836290 0.680421 -0.400865
C40   C     C_R   0.230290 0.468809 0.020906 0.280688
C41   C     C_R   0.783374 0.641324 0.988095 0.284683
C42   C     C_2   0.565419 0.883160 0.535439 -0.145950
C43   C     C_2   0.405405 0.113457 0.498213 -0.141270
C44   C     C_2   0.456695 0.925351 0.528075 -0.151282
Cu1   Cu    Cu3+1 0.362980 0.479380 0.485080 0.996265
Cu2   Cu    Cu3+1 0.637020 0.520620 0.514920 1.001273
H1    H     H_    0.046395 0.419424 0.177009 0.145781
H2    H     H_    0.133767 0.834051 0.835450 0.135828
H3    H     H_    0.428989 0.491943 0.215792 0.143493
H4    H     H_    0.573453 0.588393 0.785765 0.112543
H5    H     H_    0.863651 0.607608 0.261899 0.133982
H6    H     H_    0.155123 0.333598 0.740768 0.113374
H7    H     H_    0.011000 0.143395 0.946511 0.126093
H8    H     H_    0.084926 0.153088 0.834351 0.105005
H9    H     H_    0.852899 0.155060 0.799406 0.140259
H10   H     H_    0.828288 0.012096 0.853278 0.081944
H11   H     H_    0.775384 0.145948 0.911781 0.157722
H12   H     H_    0.075511 0.283396 0.102665 0.097745
H13   H     H_    0.096670 0.684404 0.202036 0.142583
H14   H     H_    0.025760 0.819671 0.209619 0.103680
H15   H     H_    0.272045 0.776977 0.073442 0.177918
H16   H     H_    0.206110 0.914888 0.088668 0.131972
H17   H     H_    0.294270 0.886679 0.170299 0.089766
H18   H     H_    0.292819 0.532190 0.145518 0.107565
H19   H     H_    0.726329 0.614732 0.864261 0.103761
H20   H     H_    0.539358 0.125030 0.589986 0.132705
H21   H     H_    0.360854 0.859505 0.501982 0.183836
H22   H     H_    0.329523 0.049738 0.456405 0.098353
H23   H     H_    0.842037 0.234661 0.055056 0.160138
H24   H     H_    0.662564 0.949511 0.559769 0.085474
H25   H     H_    0.038355 0.386639 0.656043 0.114896
H26   H     H_    0.899060 0.454509 0.658954 0.084471
H27   H     H_    0.163404 0.597794 0.750961 0.174915
H28   H     H_    0.999134 0.634459 0.761575 0.139286
H29   H     H_    0.993175 0.487132 0.800407 0.173147
H30   H     H_    0.753571 0.241389 0.538591 0.114258
H31   H     H_    0.930649 0.248088 0.495995 0.082413
H32   H     H_    0.777053 0.046405 0.433007 0.094756
H33   H     H_    0.665173 0.127789 0.401255 0.165243
H34   H     H_    0.818075 0.239773 0.170841 0.079429
H35   H     H_    0.845134 0.154160 0.349508 0.149802
H36   H     H_    0.091378 0.210275 0.395318 0.108223
H37   H     H_    0.270583 0.301772 0.353996 0.193414
H38   H     H_    0.022844 0.241383 0.253136 0.148716
H39   H     H_    0.213811 0.315111 0.218169 0.123256
H40   H     H_    0.142449 0.147405 0.244289 0.086076
H41   H     H_    0.826659 0.636055 0.688333 0.108839
H42   H     H_    0.763844 0.738255 0.638776 0.166005
H43   H     H_    0.989002 0.919270 0.641219 0.144277
H44   H     H_    0.924639 0.861820 0.747504 0.071769
H45   H     H_    0.811834 0.374385 0.119452 0.181679
H46   H     H_    0.072862 0.820366 0.680320 0.181588
H47   H     H_    0.962001 0.875466 0.013094 0.138264
H48   H     H_    0.900330 0.846210 0.908831 0.092474
H49   H     H_    0.163715 0.981681 0.906747 0.072825
H50   H     H_    0.196708 0.842008 0.936403 0.179609
N1    N     N_2   0.842890 0.551600 0.537350 -0.072134
N2    N     N_2   0.157110 0.448400 0.462650 -0.071024
O1    O     O_R   0.426810 0.668300 0.492040 -0.467132
O2    O     O_3   0.928444 0.686845 0.954063 -0.495139
O3    O     O_3   0.036949 0.319917 0.902056 -0.512699
O4    O     O_3   0.988176 0.683053 0.101738 -0.475027
O5    O     O_3   0.106032 0.557823 0.594490 -0.531639
O6    O     O_3   0.848037 0.370385 0.443452 -0.521737
O7    O     O_3   0.123856 0.407284 0.381835 -0.483233
O8    O     O_3   0.925360 0.674208 0.561791 -0.477442
O9    O     O_R   0.573190 0.331700 0.507960 -0.469178
O10   O     O_R   0.658240 0.703130 0.517240 -0.500650
O11   O     O_R   0.341760 0.296870 0.482760 -0.548308
O12   O     O_R   0.319390 0.472820 0.610170 -0.471731
O13   O     O_R   0.680610 0.527180 0.389830 -0.460974
O14   O     O_R   0.550820 0.507640 0.635370 -0.542322
O15   O     O_R   0.449180 0.492360 0.364630 -0.511686
O16   O     O_3   0.084241 0.450614 0.048313 -0.463730

loop_
_geom_bond_atom_site_label_1
_geom_bond_atom_site_label_2
_ccdc_geom_bond_type
C3    O6    S    
C1    C42   S    
C25   H47   S    
C8    C13   A    
C4    N2    D    
C33   O6    S    
C6    O13   A    
C1    O1    A    
C32   H29   S    
C35   H35   S    
C27   H8    S    
C28   H11   S    
C7    C11   A    
N2    O7    S    
C37   H39   S    
C36   C37   S    
C12   C43   S    
Cu2   O14   S    
Cu1   N2    S    
C32   H28   S    
C38   C39   S    
Cu1   O11   S    
C5    O12   A    
C36   H37   S    
C23   C40   A    
C4    O5    S    
C42   H24   S    
C18   C40   A    
C11   H6    S    
C33   H30   S    
C17   C19   A    
C13   H5    S    
C24   H34   S    
C7    C14   A    
C40   O16   S    
C29   H13   S    
C2    C44   S    
C43   H22   S    
Cu2   O10   S    
C37   H38   S    
C2    C43   D    
C39   H44   S    
C26   H2    S    
C20   C34   A    
C31   H25   S    
C22   H1    S    
C25   H48   S    
C30   H17   S    
C34   C41   A    
C42   C44   D    
C34   H19   S    
C12   O11   A    
C28   H9    S    
C24   H23   S    
C26   H50   S    
C37   H40   S    
C10   O4    S    
Cu1   O1    S    
C36   H36   S    
C32   H27   S    
C5    C7    S    
Cu1   O12   S    
C6    C8    S    
C25   C26   S    
Cu1   Cu2   S    
C27   O3    S    
C17   C21   A    
C38   H42   S    
C31   O5    S    
C38   O8    S    
C6    O15   A    
C29   C30   S    
C3    N1    D    
C25   O2    S    
C31   C32   S    
C29   H14   S    
C10   C19   A    
C16   C20   A    
Cu2   O9    S    
C41   O2    S    
C9    C11   A    
N1    O8    S    
C16   C18   A    
C31   H26   S    
Cu2   N1    S    
C8    C15   A    
C30   H16   S    
C14   C16   A    
C3    C4    S    
C24   H45   S    
C39   H46   S    
C26   H49   S    
C15   C17   A    
C23   H18   S    
C36   O7    S    
C2    H20   S    
C10   C13   A    
C22   H12   S    
C12   O9    A    
C27   H7    S    
C5    O14   A    
C35   H32   S    
C38   H41   S    
C21   C23   A    
C33   H31   S    
C14   H4    S    
C28   H10   S    
C35   H33   S    
C33   C35   S    
C29   O4    S    
C22   C24   S    
C15   H3    S    
C1    O10   A    
Cu1   O15   S    
C9    C18   A    
C22   O16   S    
C20   C21   A    
C9    O3    S    
C30   H15   S    
C27   C28   S    
C44   H21   S    
Cu2   O13   S    
C39   H43   S    
C19   C41   A    
