data_mof_unit_4696.cif
_audit_creation_date              2012-12-11T17:03:14-0500
_audit_creation_method            fapswitch 2.2
_symmetry_space_group_name_H-M    P1
_symmetry_Int_Tables_number       1
_space_group_crystal_system       triclinic
_cell_length_a                    16.735697
_cell_length_b                    7.182244
_cell_length_c                    15.177389
_cell_angle_alpha                 90.001599
_cell_angle_beta                  94.380027
_cell_angle_gamma                 90.002554
_cell_volume                      1818.99197629

loop_
_atom_site_label
_atom_site_type_symbol
_atom_type_description
_atom_site_fract_x
_atom_site_fract_y
_atom_site_fract_z
_atom_type_partial_charge
O1    O     O_R   0.413460 0.494300 0.415980 -0.540705
O2    O     O_R   0.586540 0.994300 0.584020 -0.540754
O3    O     O_R   0.577100 0.822370 0.413730 -0.533320
O4    O     O_R   0.422900 0.322370 0.586270 -0.533319
C1    C     C_R   0.603615 0.655470 0.393582 0.714776
C2    C     C_R   0.396384 0.155468 0.606418 0.714786
O5    O     O_R   0.413490 0.823910 0.405510 -0.545412
O6    O     O_R   0.586510 0.323910 0.594490 -0.545381
O7    O     O_R   0.421770 0.995890 0.575740 -0.531186
O8    O     O_R   0.578230 0.495890 0.424260 -0.531163
C3    C     C_R   0.386642 0.655397 0.382743 0.691854
C4    C     C_R   0.613348 0.155402 0.617269 0.691802
O9    O     O_3   0.502910 0.661350 0.555860 -0.378731
O10   O     O_3   0.497090 0.161350 0.444140 -0.378736
V1    V     V_3+5 0.499460 0.935550 0.489640 1.382272
V2    V     V_3+5 0.500540 0.435550 0.510360 1.382339
C5    C     C_R   0.727770 0.985798 0.696277 0.003526
C6    C     C_R   0.272187 0.485815 0.303753 0.003593
C7    C     C_R   0.682521 0.146326 0.684341 -0.074510
C8    C     C_R   0.317449 0.646332 0.315698 -0.074212
C9    C     C_R   0.706852 0.297226 0.738027 -0.205408
C10   C     C_R   0.293105 0.797270 0.262052 -0.205460
H1    H     H_    0.673789 0.423354 0.731326 0.141694
H2    H     H_    0.326169 0.923400 0.268784 0.141651
C11   C     C_R   0.771147 0.281382 0.803676 -0.185840
C12   C     C_R   0.228809 0.781449 0.196400 -0.186082
H3    H     H_    0.781471 0.390684 0.851061 0.206594
H4    H     H_    0.218485 0.890784 0.149037 0.206625
C13   C     C_R   0.819115 0.120661 0.811850 -0.146278
C14   C     C_R   0.180849 0.620705 0.188190 -0.146232
C15   C     C_R   0.798535 0.976547 0.751409 -0.004879
C16   C     C_R   0.201416 0.476588 0.248625 -0.004833
C17   C     C_3   0.785988 0.770595 0.762911 0.396365
C18   C     C_3   0.213934 0.270642 0.237108 0.396316
C19   C     C_3   0.702093 0.792433 0.714762 -0.144804
C20   C     C_3   0.297834 0.292442 0.285249 -0.144982
H5    H     H_    0.693679 0.711041 0.652340 0.104127
H6    H     H_    0.306243 0.211033 0.347663 0.104119
C21   C     C_1   0.165861 0.120390 0.831359 -0.198119
C22   C     C_1   0.834138 0.620385 0.168641 -0.198074
C23   C     C_1   0.218661 0.128522 0.780071 0.002858
C24   C     C_1   0.781338 0.628520 0.219928 0.002841
C25   C     C_1   0.280993 0.138326 0.719891 0.004559
C26   C     C_1   0.719006 0.638328 0.280107 0.004580
C27   C     C_1   0.333757 0.146459 0.668556 -0.195636
C28   C     C_1   0.666242 0.646463 0.331442 -0.195579
O11   O     O_R   0.921840 0.772560 0.075830 -0.528992
O12   O     O_R   0.078160 0.272560 0.924170 -0.528961
O13   O     O_R   0.086520 0.441250 0.094510 -0.534015
O14   O     O_R   0.913480 0.941250 0.905490 -0.534181
C29   C     C_R   0.113630 0.609638 0.117568 0.683163
C30   C     C_R   0.886360 0.109626 0.882442 0.682984
O15   O     O_R   0.922920 0.442940 0.086290 -0.536524
O16   O     O_R   0.077080 0.942940 0.913710 -0.536502
O17   O     O_R   0.913440 0.271120 0.915960 -0.540097
O18   O     O_R   0.086560 0.771120 0.084040 -0.540114
C31   C     C_R   0.896818 0.611422 0.106576 0.726369
C32   C     C_R   0.103181 0.111424 0.893424 0.726489
O19   O     O_3   0.997130 0.604020 0.944190 -0.381169
O20   O     O_3   0.002870 0.104020 0.055810 -0.381134
V3    V     V_3+5 0.000530 0.329760 0.010360 1.404636
V4    V     V_3+5 0.999470 0.829760 0.989640 1.404512
O21   O     O_3   0.786102 0.708028 0.850860 -0.653740
H7    H     H_    0.774236 0.812708 0.890088 0.284920
O22   O     O_3   0.213788 0.208129 0.149144 -0.653635
H8    H     H_    0.225935 0.312705 0.109980 0.284916
C33   C     C_3   0.842673 0.659169 0.705564 -0.398321
C34   C     C_3   0.925434 0.623868 0.751591 -0.210948
C35   C     C_3   0.978637 0.514794 0.692645 -0.813059
H9    H     H_    0.950955 0.378055 0.674574 0.228886
H10   H     H_    0.987783 0.594700 0.631568 0.230287
H11   H     H_    0.037905 0.489651 0.728735 0.226389
H12   H     H_    0.955028 0.758066 0.770158 0.198210
H13   H     H_    0.917692 0.540134 0.811150 0.250492
H14   H     H_    0.815228 0.524289 0.685603 0.185254
H15   H     H_    0.850085 0.735100 0.642702 0.148001
C36   C     C_3   0.157242 0.159231 0.294455 -0.398277
C37   C     C_3   0.074477 0.123927 0.248434 -0.210860
C38   C     C_3   0.021257 0.014960 0.307403 -0.813168
H16   H     H_    0.048901 0.878183 0.325467 0.228887
H17   H     H_    0.012155 0.094893 0.368485 0.230306
H18   H     H_    0.961971 0.989899 0.271334 0.226400
H19   H     H_    0.044903 0.258122 0.229834 0.198231
H20   H     H_    0.082210 0.040108 0.188897 0.250472
H21   H     H_    0.184678 0.024349 0.314417 0.185217
H22   H     H_    0.149838 0.235174 0.357318 0.148000
C39   C     C_3   0.625759 0.781612 0.768992 -0.269043
C40   C     C_3   0.622046 0.905065 0.852135 -0.315955
C41   C     C_3   0.536665 0.970641 0.863794 -0.780432
H23   H     H_    0.514865 0.060725 0.807462 0.222410
H24   H     H_    0.495956 0.849226 0.867701 0.230943
H25   H     H_    0.535634 0.052495 0.925778 0.222221
H26   H     H_    0.642515 0.823237 0.911768 0.192129
H27   H     H_    0.660640 0.028995 0.850675 0.216457
H28   H     H_    0.573403 0.812821 0.722045 0.195442
H29   H     H_    0.615377 0.637860 0.790939 0.152540
C42   C     C_3   0.374141 0.281516 0.230985 -0.269327
C43   C     C_3   0.377991 0.405444 0.148012 -0.315967
C44   C     C_3   0.463341 0.471825 0.136806 -0.779875
H30   H     H_    0.484806 0.561786 0.193320 0.222258
H31   H     H_    0.504256 0.350783 0.132946 0.230863
H32   H     H_    0.464474 0.554024 0.074937 0.222136
H33   H     H_    0.357830 0.323762 0.088221 0.191739
H34   H     H_    0.339190 0.529017 0.149390 0.216427
H35   H     H_    0.426540 0.312089 0.277983 0.195557
H36   H     H_    0.384320 0.137834 0.208807 0.152513

loop_
_geom_bond_atom_site_label_1
_geom_bond_atom_site_label_2
_ccdc_geom_bond_type
C39   C40   S    
C2    C27   S    
O1    C3    A    
C14   C29   S    
O2    C4    A    
O11   V4    S    
C42   C43   S    
C21   C23   T    
C19   C39   S    
C36   C37   S    
O5    C3    A    
C10   H2    S    
C7    C9    A    
C18   C36   S    
C43   H34   S    
C34   H13   S    
C43   H33   S    
C29   O18   A    
C35   H10   S    
C17   C19   S    
O15   V3    S    
C37   H19   S    
C34   C35   S    
O13   C29   A    
C39   H28   S    
O14   C30   A    
C15   C17   S    
C20   C42   S    
O10   V2    S    
C41   H24   S    
C18   C20   S    
C30   O17   A    
C17   O21   S    
C42   H35   S    
O5    V1    S    
C36   H21   S    
O6    V2    S    
C23   C25   S    
C24   C26   S    
C2    O7    A    
C18   O22   S    
C26   C28   T    
C11   C13   A    
C40   H27   S    
C3    C8    S    
O13   V3    S    
C33   C34   S    
O4    C2    A    
C38   H17   S    
O15   C31   A    
C37   C38   S    
O16   V4    S    
C34   H12   S    
C21   C32   S    
O21   H7    S    
O20   V3    S    
C16   C18   S    
O4    V2    S    
C35   H11   S    
O11   C31   A    
C44   H30   S    
O6    C4    A    
C39   H29   S    
O1    V2    S    
C41   H25   S    
O2    V1    S    
C25   C27   T    
C42   H36   S    
C44   H31   S    
C8    C10   A    
C36   H22   S    
C12   C14   A    
O9    V1    S    
O14   V4    S    
O18   V4    S    
C6    C16   A    
O3    V1    S    
C17   C33   S    
O16   C32   A    
C9    C11   A    
C40   H26   S    
O19   V4    S    
C22   C31   S    
C19   H5    S    
C22   C24   T    
O3    C1    A    
C38   H18   S    
O12   C32   A    
C11   H3    S    
C1    C28   S    
C12   H4    S    
C9    H1    S    
O7    V1    S    
C1    O8    A    
C13   C15   A    
O8    V2    S    
C14   C16   A    
O12   V3    S    
C5    C15   A    
O17   V3    S    
C4    C7    S    
C20   H6    S    
C5    C7    A    
C6    C8    A    
O22   H8    S    
C35   H9    S    
C38   H16   S    
C37   H20   S    
C44   H32   S    
C33   H14   S    
C40   C41   S    
C43   C44   S    
C10   C12   A    
O9    V2    S    
O10   V1    S    
C33   H15   S    
C5    C19   S    
C41   H23   S    
C6    C20   S    
C13   C30   S    
