data_mof_unit_1896.cif
_audit_creation_date              2013-03-05T16:12:16-0500
_audit_creation_method            fapswitch 2.2
_symmetry_space_group_name_H-M    P1
_symmetry_Int_Tables_number       1
_space_group_crystal_system       triclinic
_cell_length_a                    10.70248
_cell_length_b                    10.033491
_cell_length_c                    19.178647
_cell_angle_alpha                 89.491682
_cell_angle_beta                  99.549907
_cell_angle_gamma                 90.01567
_cell_volume                      2030.84259381

loop_
_atom_site_label
_atom_site_type_symbol
_atom_site_description
_atom_site_fract_x
_atom_site_fract_y
_atom_site_fract_z
_atom_type_partial_charge
O1    O     O_R   0.316770 0.614620 0.500000 -0.575211
O2    O     O_R   0.683230 0.385380 0.500000 -0.570746
O3    O     O_R   0.683230 0.614620 0.500000 -0.569301
O4    O     O_R   0.316770 0.385380 0.500000 -0.567285
C1    C     C_R   0.260560 0.500042 0.500599 0.911335
C2    C     C_R   0.739356 0.499948 0.499127 0.910025
O5    O     O_R   0.499990 0.614700 0.398140 -0.564385
O6    O     O_R   0.500010 0.385300 0.601860 -0.566690
O7    O     O_R   0.500010 0.614700 0.601860 -0.567115
O8    O     O_R   0.499990 0.385300 0.398140 -0.566175
C3    C     C_R   0.500811 0.500552 0.365858 0.962460
C4    C     C_R   0.496997 0.499762 0.634004 0.968046
Zn1   Zn    Zn3+2 0.500000 0.653120 0.500000 1.097037
Zn2   Zn    Zn3+2 0.500000 0.346880 0.500000 1.098458
C5    C     C_R   0.069338 0.383167 0.518073 -0.127664
C6    C     C_R   0.930278 0.616475 0.480587 -0.128152
C7    C     C_R   0.941019 0.382716 0.516923 -0.119743
C8    C     C_R   0.058660 0.616997 0.481803 -0.117654
H1    H     H_    0.122520 0.292694 0.533302 0.201216
H2    H     H_    0.876969 0.706753 0.465121 0.201453
H3    H     H_    0.896572 0.291617 0.530872 0.222213
H4    H     H_    0.103132 0.708051 0.467730 0.220270
C9    C     C_R   0.871947 0.499633 0.498684 -0.079112
C10   C     C_R   0.127791 0.500207 0.500369 -0.075650
C11   C     C_R   0.587197 0.071884 0.548536 0.265542
C12   C     C_R   0.413191 0.927943 0.451190 0.263901
C13   C     C_R   0.412282 0.073667 0.451682 0.271959
C14   C     C_R   0.588013 0.926161 0.548228 0.270588
C15   C     C_R   0.527874 0.618908 0.256084 -0.204008
C16   C     C_R   0.491811 0.381338 0.747339 -0.219376
C17   C     C_R   0.471593 0.621949 0.742098 -0.196687
C18   C     C_R   0.461555 0.387733 0.250528 -0.203617
H5    H     H_    0.557310 0.706690 0.286906 0.223692
H6    H     H_    0.499536 0.287675 0.721238 0.243790
H7    H     H_    0.466570 0.714595 0.712381 0.224832
H8    H     H_    0.438376 0.297522 0.276886 0.245600
C19   C     C_R   0.520787 0.623409 0.183071 0.414444
C20   C     C_R   0.487287 0.382179 0.819395 0.397271
C21   C     C_R   0.461147 0.624957 0.813320 0.395982
C22   C     C_R   0.453977 0.388911 0.177488 0.396143
C23   C     C_R   0.483630 0.507632 0.143540 -0.210622
C24   C     C_R   0.471800 0.504736 0.852276 -0.206766
N1    N     N_R   0.500000 0.857200 0.500000 -0.232683
N2    N     N_R   0.500000 0.142800 0.500000 -0.230823
C25   C     C_R   0.497622 0.502118 0.289766 -0.213093
C26   C     C_R   0.487604 0.500735 0.708980 -0.211578
N3    N     N_R   0.587099 0.529384 0.040813 -0.066511
N4    N     N_R   0.365785 0.487609 0.954236 -0.067674
N5    N     N_R   0.584158 0.529205 0.971440 -0.071070
N6    N     N_R   0.368616 0.489114 0.023650 -0.061143
C27   C     C_R   0.473595 0.507848 0.927489 0.443576
C28   C     C_R   0.479401 0.509550 0.067753 0.422441
S1    S     S_3+6 0.556192 0.775949 0.143020 0.099413
O9    O     O_2   0.454513 0.807232 0.081031 -0.248841
O10   O     O_2   0.564491 0.887679 0.195255 -0.203704
O11   O     O_3   0.696209 0.761659 0.114897 -0.508857
H9    H     H_    0.703600 0.843600 0.086680 0.410805
S2    S     S_3+6 0.503325 0.229340 0.867212 0.104842
O12   O     O_2   0.379983 0.196638 0.891127 -0.243191
O13   O     O_2   0.537927 0.119068 0.821453 -0.177881
O14   O     O_3   0.617494 0.243106 0.938416 -0.507095
H10   H     H_    0.622135 0.154074 0.961443 0.421711
S3    S     S_3+6 0.437370 0.780580 0.852226 0.102872
O15   O     O_2   0.560629 0.825512 0.894799 -0.224837
O16   O     O_2   0.392589 0.882480 0.795686 -0.217768
O17   O     O_3   0.328356 0.766004 0.905668 -0.514546
H11   H     H_    0.328330 0.853454 0.929236 0.422668
S4    S     S_3+6 0.409680 0.239675 0.130758 0.105039
O18   O     O_2   0.502435 0.210345 0.082003 -0.257808
O19   O     O_2   0.407619 0.124688 0.181300 -0.178363
O20   O     O_3   0.264078 0.258642 0.083008 -0.495929
H12   H     H_    0.251106 0.178796 0.052659 0.412852
S5    S     S_3+6 0.695356 0.156135 0.618644 0.111064
O21   O     O_2   0.650027 0.122152 0.686675 -0.236315
O22   O     O_2   0.827077 0.102778 0.621310 -0.220832
O23   O     O_3   0.718348 0.320668 0.621491 -0.545393
H13   H     H_    0.772807 0.337740 0.667582 0.372960
S6    S     S_3+6 0.308523 0.843143 0.379476 0.118400
O24   O     O_2   0.176733 0.898501 0.372054 -0.212694
O25   O     O_2   0.361196 0.872471 0.313002 -0.227852
O26   O     O_3   0.281880 0.679228 0.378531 -0.543663
H14   H     H_    0.232709 0.660379 0.331167 0.372863
S7    S     S_3+6 0.284043 0.160503 0.392964 0.118682
O27   O     O_2   0.271494 0.106365 0.319471 -0.173936
O28   O     O_2   0.164649 0.131523 0.422022 -0.277430
O29   O     O_3   0.281943 0.324709 0.378022 -0.540995
H15   H     H_    0.197544 0.344328 0.349894 0.372290
S8    S     S_3+6 0.718095 0.838751 0.605690 0.129662
O30   O     O_2   0.835209 0.864261 0.573845 -0.283510
O31   O     O_2   0.737546 0.893951 0.679055 -0.162549
O32   O     O_3   0.717526 0.675088 0.622112 -0.524836
H16   H     H_    0.803963 0.653426 0.646980 0.370961

loop_
_geom_bond_atom_site_label_1
_geom_bond_atom_site_label_2
_geom_bond_distance
_ccdc_geom_bond_type
S3    O16   1.503006 D    
C18   C25   1.396838 A    
O3    C2    1.299597 A    
O26   H14   0.991082 S    
N3    N5    1.325641 A    
S1    O9    1.503477 D    
C11   C14   1.462209 A    
O5    C3    1.307482 A    
C12   C13   1.462274 A    
C12   S6    1.838341 S    
C8    C10   1.397490 A    
C18   H8    1.081539 S    
C20   C24   1.409180 A    
S6    O25   1.503796 D    
S2    O13   1.502251 D    
C15   H5    1.082456 S    
O11   H9    0.990619 S    
C16   C20   1.390888 A    
S5    O21   1.502003 D    
O7    Zn1   1.987832 S    
C20   S2    1.773430 S    
C13   N2    1.394137 A    
N4    C27   1.352811 A    
S4    O18   1.503140 D    
N5    C27   1.352305 A    
C17   C26   1.400666 A    
C14   S8    1.842913 S    
N6    C28   1.354061 A    
C23   C28   1.446619 S    
C11   S5    1.834565 S    
O3    Zn1   1.998802 S    
O6    C4    1.311190 A    
C24   C27   1.440041 S    
C19   S1    1.775238 S    
S2    O14   1.681235 S    
N4    N6    1.326809 A    
O17   H11   0.990583 S    
S3    O17   1.681423 S    
O4    Zn2   1.998803 S    
S5    O22   1.500868 D    
O2    C2    1.298124 A    
C11   N2    1.394295 A    
C12   N1    1.394015 A    
C21   C24   1.407850 A    
S1    O10   1.502844 D    
C16   H6    1.078290 S    
O23   H13   0.991011 S    
C4    C26   1.458105 S    
O8    Zn2   1.987832 S    
O32   H16   0.991147 S    
S6    O24   1.500209 D    
S2    O12   1.502855 D    
C7    H3    1.082117 S    
C15   C25   1.396787 A    
C5    H1    1.083382 S    
S7    O27   1.500175 D    
S8    O32   1.669497 S    
C6    H2    1.083214 S    
C7    C9    1.397267 A    
S4    O19   1.502800 D    
C5    C10   1.395959 A    
S7    O28   1.503710 D    
S8    O31   1.498814 D    
C6    C9    1.396001 A    
S5    O23   1.669054 S    
O1    C1    1.298208 A    
C3    C25   1.454020 S    
O1    Zn1   1.998596 S    
Zn1   N1    2.047635 S    
O29   H15   0.991065 S    
Zn2   N2    2.047635 S    
S1    O11   1.681289 S    
C5    C7    1.369845 A    
C22   C23   1.413566 A    
O6    Zn2   1.994542 S    
C8    H4    1.082610 S    
C16   C26   1.397059 A    
O4    C1    1.299419 A    
N3    C28   1.353071 A    
C21   S3    1.772996 S    
C14   N1    1.394083 A    
C13   S7    1.838845 S    
O20   H12   0.990598 S    
S6    O26   1.668841 S    
C1    C10   1.420242 S    
S4    O20   1.681285 S    
C2    C9    1.420489 S    
C17   C21   1.389471 A    
C17   H7    1.082701 S    
C18   C22   1.389595 A    
C19   C23   1.413394 A    
O14   H10   0.990567 S    
O2    Zn2   1.998595 S    
O7    C4    1.305754 A    
O8    C3    1.307552 A    
S3    O15   1.502972 D    
O5    Zn1   1.994542 S    
S7    O29   1.669304 S    
S8    O30   1.503531 D    
C6    C8    1.370338 A    
C22   S4    1.775523 S    
C15   C19   1.390048 A    
