data_mof_unit_3006.cif
_audit_creation_date              2012-12-10T16:53:08-0500
_audit_creation_method            fapswitch 2.2
_symmetry_space_group_name_H-M    P1
_symmetry_Int_Tables_number       1
_space_group_crystal_system       triclinic
_cell_length_a                    10.815167
_cell_length_b                    10.904759
_cell_length_c                    9.684245
_cell_angle_alpha                 89.679907
_cell_angle_beta                  89.250401
_cell_angle_gamma                 91.18479
_cell_volume                      1141.76726688

loop_
_atom_site_label
_atom_site_type_symbol
_atom_type_description
_atom_site_fract_x
_atom_site_fract_y
_atom_site_fract_z
_atom_type_partial_charge
C1    C     C_R   0.499044 0.265161 0.500382 0.866021
C2    C     C_R   0.066766 0.598388 0.587642 0.036879
C3    C     C_R   0.128897 0.512296 0.503760 -0.061806
C4    C     C_R   0.063021 0.434901 0.415572 -0.188789
C5    C     C_R   0.935571 0.436948 0.413664 -0.219110
C6    C     C_R   0.871685 0.520125 0.495413 -0.105405
C7    C     C_2   0.457602 0.935461 0.385337 0.291970
C8    C     C_2   0.470498 0.865664 0.499809 -0.397489
C9    C     C_2   0.454792 0.069570 0.393957 -0.192369
C10   C     C_2   0.498440 0.132667 0.501823 -0.384043
C11   C     C_2   0.425459 0.431148 0.923555 -0.054417
C12   C     C_R   0.262519 0.503780 0.501163 0.769290
C13   C     C_2   0.428202 0.428300 0.079307 -0.038921
C14   C     C_R   0.489980 0.734209 0.499323 0.921821
C15   C     C_R   0.737546 0.507818 0.498884 0.865448
C16   C     C_R   0.130687 0.679375 0.677224 -0.178544
C17   C     C_R   0.067300 0.764528 0.755902 -0.209187
C18   C     C_R   0.941857 0.780097 0.736458 -0.224831
C19   C     C_R   0.878498 0.709581 0.638383 0.469350
C20   C     C_R   0.936804 0.607836 0.576174 -0.002509
Cu1   Cu    Cu3+1 0.500020 0.500020 0.638630 0.970948
Cu2   Cu    Cu3+1 0.499980 0.499980 0.361370 0.973687
H1    H     H_    0.110505 0.369396 0.351101 0.146197
H2    H     H_    0.535664 0.088877 0.592403 0.150704
H3    H     H_    0.358327 0.371701 0.873405 0.154270
H4    H     H_    0.564994 0.552611 0.892672 0.207308
H5    H     H_    0.366212 0.363535 0.132067 0.145004
H6    H     H_    0.554810 0.562995 0.104830 0.210929
H7    H     H_    0.229741 0.680121 0.687617 0.177356
H8    H     H_    0.117191 0.823936 0.826038 0.174856
H9    H     H_    0.895664 0.854127 0.788809 0.152270
H10   H     H_    0.886257 0.371341 0.349896 0.155326
H11   H     H_    0.467409 0.906159 0.601603 0.139022
H12   H     H_    0.420631 0.118454 0.304544 0.192619
N1    N     N_2   0.498640 0.498660 0.846910 -0.280306
N2    N     N_2   0.498610 0.498630 0.153040 -0.270628
O1    O     O_R   0.500020 0.321960 0.617040 -0.576542
O2    O     O_R   0.499980 0.321920 0.382900 -0.579367
O3    O     O_R   0.319670 0.500020 0.617100 -0.597214
O4    O     O_R   0.319630 0.499980 0.382950 -0.568313
O5    O     O_R   0.500020 0.678080 0.617100 -0.560253
O6    O     O_R   0.499980 0.678040 0.382960 -0.537374
O7    O     O_R   0.680370 0.500020 0.617050 -0.556171
O8    O     O_R   0.680330 0.499980 0.382900 -0.595245
O9    O     O_3   0.766481 0.750327 0.590921 -0.620493
C21   C     C_3   0.787885 0.854140 0.503536 0.002668
H13   H     H_    0.707747 0.914945 0.513952 0.175022
H14   H     H_    0.869279 0.912522 0.532787 0.138118
C22   C     C_3   0.801889 0.815128 0.352397 -0.346902
H15   H     H_    0.887314 0.761327 0.339354 0.215091
H16   H     H_    0.721869 0.756258 0.322793 0.257695
C23   C     C_3   0.809645 0.926244 0.255970 -0.853629
H17   H     H_    0.724534 0.981023 0.265569 0.275802
H18   H     H_    0.819079 0.894986 0.147479 0.260891
H19   H     H_    0.891292 0.985025 0.281115 0.246154
Br1   Br    Br    0.440359 0.871985 0.200812 -0.542859

loop_
_geom_bond_atom_site_label_1
_geom_bond_atom_site_label_2
_ccdc_geom_bond_type
C12   O4    A    
C19   O9    S    
C1    O2    A    
Cu1   N1    S    
C2    C16   A    
C9    C10   D    
C19   C20   A    
Cu1   O3    S    
C23   H19   S    
C1    O1    A    
C14   O6    A    
C22   C23   S    
Cu2   O4    S    
C5    H10   S    
C12   O3    A    
C11   N1    D    
C17   C18   A    
C3    C12   S    
C15   O7    A    
C7    C8    D    
Cu1   O7    S    
O9    C21   S    
C17   H8    S    
C11   C13   S    
C21   C22   S    
Cu2   O6    S    
C6    C20   A    
C13   N2    D    
C14   O5    A    
Cu1   O5    S    
C7    Br1   S    
C23   H18   S    
C15   O8    A    
C2    C3    A    
C8    H11   S    
C5    C6    A    
C21   H14   S    
C6    C15   S    
C11   H3    S    
C2    C20   A    
C3    C4    A    
Cu2   O2    S    
H4    N1    S    
C4    C5    A    
Cu2   N2    S    
C23   H17   S    
H6    N2    S    
Cu1   O1    S    
C22   H15   S    
C7    C9    S    
C18   C19   A    
C21   H13   S    
C13   H5    S    
C8    C14   S    
C18   H9    S    
C10   H2    S    
C16   H7    S    
Cu1   Cu2   S    
C4    H1    S    
Cu2   O8    S    
C1    C10   S    
C9    H12   S    
C16   C17   A    
C22   H16   S    
