data_mof_unit_2083.cif
_audit_creation_date              2012-12-10T18:46:15-0500
_audit_creation_method            fapswitch 2.2
_symmetry_space_group_name_H-M    P1
_symmetry_Int_Tables_number       1
_space_group_crystal_system       triclinic
_cell_length_a                    9.854711
_cell_length_b                    10.715757
_cell_length_c                    13.07048
_cell_angle_alpha                 90.050412
_cell_angle_beta                  71.695448
_cell_angle_gamma                 90.008426
_cell_volume                      1310.41116064

loop_
_atom_site_label
_atom_site_type_symbol
_atom_type_description
_atom_site_fract_x
_atom_site_fract_y
_atom_site_fract_z
_atom_type_partial_charge
C1    C     C_R   0.500042 0.740091 0.500023 0.852430
C2    C     C_R   0.452224 0.603124 0.972921 0.059425
C3    C     C_R   0.493198 0.598048 0.860152 0.097030
C4    C     C_R   0.557220 0.576582 0.022973 0.080258
C5    C     C_R   0.702978 0.565109 0.959738 0.185294
C6    C     C_R   0.743823 0.593970 0.850687 -0.225481
C7    C     C_R   0.639576 0.614261 0.802006 -0.187599
C8    C     C_R   0.519841 0.551202 0.132555 -0.255748
C9    C     C_R   0.765937 0.502488 0.116596 -0.192662
C10   C     C_R   0.386295 0.576073 0.810538 -0.145502
C11   C     C_R   0.610508 0.936092 0.523514 -0.186597
C12   C     C_R   0.424498 0.522564 0.700929 0.888313
C13   C     C_R   0.610539 0.063964 0.523424 -0.187187
C14   C     C_R   0.499844 0.127431 0.500260 -0.018393
C15   C     C_R   0.389062 0.063830 0.477296 -0.187714
C16   C     C_R   0.389080 0.935981 0.477317 -0.184654
C17   C     C_R   0.499881 0.872524 0.500312 -0.006725
C18   C     C_R   0.941046 0.396395 0.469031 -0.064433
C19   C     C_R   0.084825 0.396543 0.468796 -0.065109
C20   C     C_R   0.059139 0.603704 0.530618 -0.077410
C21   C     C_R   0.915882 0.603940 0.529822 -0.071705
C22   C     C_R   0.499920 0.259912 0.500078 0.883393
C23   C     C_R   0.577808 0.500832 0.295938 0.880761
C24   C     C_R   0.805416 0.525539 0.006463 -0.127759
C25   C     C_R   0.623068 0.516484 0.179736 -0.071901
C26   C     C_R   0.244158 0.606883 0.867447 -0.264496
C27   C     C_R   0.207797 0.646353 0.975155 0.031845
C28   C     C_R   0.308998 0.634521 0.029707 -0.247204
H1    H     H_    0.846558 0.474101 0.152209 0.175420
H2    H     H_    0.696200 0.112735 0.542101 0.153427
H3    H     H_    0.303406 0.112454 0.458575 0.147966
H4    H     H_    0.303434 0.887224 0.458602 0.154405
H5    H     H_    0.897507 0.313470 0.443943 0.126832
H6    H     H_    0.149386 0.313776 0.443412 0.124718
H7    H     H_    0.102772 0.686737 0.555455 0.130629
H8    H     H_    0.852578 0.687677 0.552975 0.114420
H9    H     H_    0.855623 0.597391 0.802550 0.154403
H10   H     H_    0.915759 0.512364 0.957702 0.135982
H11   H     H_    0.409435 0.555060 0.182061 0.168829
H12   H     H_    0.163027 0.603173 0.827559 0.174162
H13   H     H_    0.277122 0.658922 0.114112 0.176642
H14   H     H_    0.675009 0.643479 0.718974 0.172167
H15   H     H_    0.696084 0.887426 0.542315 0.146754
N1    N     N_R   0.142790 0.500030 0.500030 -0.079079
N2    N     N_R   0.857180 0.499940 0.500010 -0.075940
O1    O     O_R   0.385370 0.683250 0.500010 -0.634427
O2    O     O_R   0.614700 0.683220 0.500010 -0.639109
O3    O     O_R   0.328400 0.499990 0.653620 -0.606719
O4    O     O_R   0.557730 0.499960 0.653620 -0.617320
O5    O     O_R   0.385300 0.316780 0.499990 -0.626081
O6    O     O_R   0.614630 0.316750 0.499990 -0.627782
O7    O     O_R   0.442270 0.500040 0.346380 -0.615489
O8    O     O_R   0.671600 0.500010 0.346380 -0.602249
Zn1   Zn    Zn3+2 0.346870 0.500020 0.500000 0.947945
Zn2   Zn    Zn3+2 0.653130 0.499980 0.500000 0.950526
C29   C     C_2   0.066284 0.702104 0.030406 0.883905
O9    O     O_2   0.996286 0.748175 0.977573 -0.638096
O10   O     O_R   0.014354 0.705837 0.143025 -0.818641
H16   H     H_    0.916776 0.746601 0.171045 0.351328

loop_
_geom_bond_atom_site_label_1
_geom_bond_atom_site_label_2
_ccdc_geom_bond_type
C24   H10   S    
C9    C24   A    
C11   H15   S    
C6    C7    A    
C8    H11   S    
C9    H1    S    
C2    C3    A    
C16   H4    S    
C13   H2    S    
C27   C29   S    
C21   N2    A    
C12   O3    A    
C4    C8    A    
C19   N1    A    
C22   O5    A    
O1    Zn1   S    
O8    Zn2   S    
C12   O4    A    
C23   O7    A    
C6    H9    S    
C9    C25   A    
C21   H8    S    
C13   C14   A    
C20   C21   A    
O3    Zn1   S    
C8    C25   A    
C11   C13   A    
C26   H12   S    
C26   C27   A    
O5    Zn1   S    
C5    C24   A    
C10   C12   S    
C5    C6    A    
C2    C4    A    
C1    O2    A    
C20   N1    A    
O7    Zn1   S    
C23   O8    A    
C3    C7    A    
O6    Zn2   S    
C23   C25   S    
C14   C22   S    
C18   H5    S    
C1    O1    A    
C16   C17   A    
C15   C16   A    
C18   N2    A    
N1    Zn1   S    
C28   H13   S    
C29   O9    D    
N2    Zn2   S    
O2    Zn2   S    
C18   C19   A    
C7    H14   S    
C27   C28   A    
C3    C10   A    
C14   C15   A    
C4    C5    A    
C2    C28   A    
O10   H16   S    
O4    Zn2   S    
C20   H7    S    
C1    C17   S    
C15   H3    S    
C10   C26   A    
C11   C17   A    
C29   O10   S    
C22   O6    A    
C19   H6    S    
