data_mof_unit_1012.cif
_audit_creation_date              2012-12-10T16:52:09-0500
_audit_creation_method            fapswitch 2.2
_symmetry_space_group_name_H-M    P1
_symmetry_Int_Tables_number       1
_space_group_crystal_system       triclinic
_cell_length_a                    7.776032
_cell_length_b                    8.561669
_cell_length_c                    14.860215
_cell_angle_alpha                 91.045902
_cell_angle_beta                  86.01206
_cell_angle_gamma                 93.617051
_cell_volume                      984.873916775

loop_
_atom_site_label
_atom_site_type_symbol
_atom_type_description
_atom_site_fract_x
_atom_site_fract_y
_atom_site_fract_z
_atom_type_partial_charge
C1    C     C_R   0.545715 0.794666 0.497659 0.957262
C2    C     C_R   0.564045 0.634590 0.812122 -0.209643
C3    C     C_R   0.492589 0.501242 0.232297 -0.079525
C4    C     C_R   0.507411 0.498757 0.767702 -0.079525
C5    C     C_R   0.550367 0.636618 0.186617 -0.194595
C6    C     C_R   0.449636 0.363380 0.813383 -0.194596
C7    C     C_R   0.552459 0.637543 0.093467 0.101342
C8    C     C_R   0.447545 0.362454 0.906533 0.101339
C9    C     C_R   0.497700 0.499967 0.046865 -0.027354
C10   C     C_R   0.502304 0.500030 0.953134 -0.027355
C11   C     C_R   0.438963 0.362364 0.094283 0.094506
C12   C     C_R   0.454285 0.205334 0.502341 0.957262
C13   C     C_R   0.561042 0.637634 0.905717 0.094510
C14   C     C_R   0.609375 0.773444 0.046707 -0.313932
C15   C     C_R   0.390634 0.226552 0.953293 -0.313918
C16   C     C_R   0.613907 0.774995 0.952380 0.422972
C17   C     C_R   0.386105 0.225000 0.047621 0.422978
C18   C     C_2   0.569801 0.958173 0.496304 -0.371836
C19   C     C_2   0.430198 0.041827 0.503696 -0.371836
C20   C     C_R   0.502399 0.499971 0.672717 0.878747
C21   C     C_R   0.497601 0.500028 0.327283 0.878748
C22   C     C_R   0.435956 0.365409 0.187878 -0.209642
H1    H     H_    0.392904 0.262433 0.226719 0.184507
H2    H     H_    0.986421 0.617470 0.567960 0.196333
H3    H     H_    0.699412 0.993808 0.948033 0.341882
H4    H     H_    0.300643 0.006176 0.051965 0.341881
H5    H     H_    0.607096 0.737566 0.773281 0.184507
H6    H     H_    0.593753 0.740339 0.223855 0.140221
H7    H     H_    0.406250 0.259659 0.776145 0.140220
H8    H     H_    0.650198 0.878195 0.083605 0.168218
H9    H     H_    0.349814 0.121801 0.916395 0.168217
H10   H     H_    0.701684 0.009155 0.489238 0.183424
H11   H     H_    0.298316 0.990845 0.510762 0.183424
H12   H     H_    0.013579 0.382530 0.432040 0.196333
N1    N     N_2   0.950330 0.457950 0.475660 -0.170809
N2    N     N_2   0.049670 0.542050 0.524340 -0.170809
O1    O     O_R   0.389250 0.738570 0.505970 -0.612339
O2    O     O_3   0.331198 0.091539 0.095109 -0.785057
O3    O     O_R   0.610750 0.261430 0.494030 -0.612339
O4    O     O_R   0.678390 0.711620 0.490370 -0.631430
O5    O     O_R   0.321610 0.288380 0.509630 -0.631431
O6    O     O_R   0.355420 0.513510 0.639950 -0.609722
O7    O     O_R   0.644580 0.486490 0.360050 -0.609722
O8    O     O_R   0.644560 0.486560 0.624350 -0.620385
O9    O     O_R   0.355440 0.513440 0.375650 -0.620385
O10   O     O_3   0.668825 0.908454 0.904890 -0.785058
Zn1   Zn    Zn3+2 0.306940 0.517990 0.510420 0.957205
Zn2   Zn    Zn3+2 0.693060 0.482010 0.489580 0.957205

loop_
_geom_bond_atom_site_label_1
_geom_bond_atom_site_label_2
_ccdc_geom_bond_type
C2    C4    A    
C15   H9    S    
C2    H5    S    
O1    Zn1   S    
C5    H6    S    
O7    Zn2   S    
C11   C22   A    
C20   O6    A    
N1    N2    D    
C1    O1    A    
O6    Zn1   S    
C12   O3    A    
O5    Zn1   S    
C21   O7    A    
C9    C11   A    
C1    C18   S    
H2    N2    S    
C14   H8    S    
N1    Zn2   S    
C12   C19   S    
C4    C6    A    
C20   O8    A    
C18   C19   D    
C8    C15   A    
C21   O9    A    
C17   O2    S    
O9    Zn1   S    
C19   H11   S    
C14   C16   A    
N2    Zn1   S    
C3    C21   S    
C18   H10   S    
C4    C20   S    
C7    C9    A    
C6    H7    S    
C12   O5    A    
C8    C10   A    
H12   N1    S    
C9    C10   A    
C13   C16   A    
C16   O10   S    
C5    C7    A    
C2    C13   A    
O4    Zn2   S    
C22   H1    S    
C11   C17   A    
C3    C22   A    
C6    C8    A    
C1    O4    A    
C15   C17   A    
H3    O10   S    
C7    C14   A    
H4    O2    S    
O8    Zn2   S    
O3    Zn2   S    
C3    C5    A    
C10   C13   A    
