data_mof_unit_1611.cif
_audit_creation_date              2012-12-10T18:07:36-0500
_audit_creation_method            fapswitch 2.2
_symmetry_space_group_name_H-M    P1
_symmetry_Int_Tables_number       1
_space_group_crystal_system       triclinic
_cell_length_a                    11.545852
_cell_length_b                    12.634003
_cell_length_c                    13.127656
_cell_angle_alpha                 83.203789
_cell_angle_beta                  90.667351
_cell_angle_gamma                 102.337627
_cell_volume                      1857.38248895

loop_
_atom_site_label
_atom_site_type_symbol
_atom_type_description
_atom_site_fract_x
_atom_site_fract_y
_atom_site_fract_z
_atom_type_partial_charge
C1    C     C_R   0.478621 0.439375 0.691446 0.909545
C2    C     C_R   0.498390 0.594392 0.199511 -0.050826
C3    C     C_R   0.433195 0.290823 0.842052 0.126578
C4    C     C_R   0.396535 0.258675 0.944882 0.023337
C5    C     C_R   0.397104 0.338203 0.009756 -0.286097
C6    C     C_R   0.419882 0.449413 0.970743 0.076687
C7    C     C_R   0.419038 0.477876 0.864286 0.060841
C8    C     C_R   0.442351 0.533408 0.034503 0.097639
C9    C     C_R   0.438370 0.641606 0.994837 0.173109
C10   C     C_R   0.408569 0.663589 0.892506 -0.230897
C11   C     C_R   0.397902 0.582285 0.827836 -0.155273
C12   C     C_R   0.717871 0.500977 0.499799 0.922668
C13   C     C_R   0.477919 0.512948 0.134900 -0.253199
C14   C     C_R   0.493203 0.701641 0.160955 -0.222459
C15   C     C_R   0.442231 0.401719 0.799636 -0.191543
C16   C     C_R   0.314537 0.082621 0.363886 -0.319827
C17   C     C_R   0.644565 0.805940 0.627031 0.254370
C18   C     C_R   0.676554 0.914007 0.649002 0.116526
C19   C     C_R   0.622013 0.991309 0.598141 -0.248511
C20   C     C_R   0.533599 0.963350 0.525857 -0.020418
C21   C     C_R   0.503509 0.853517 0.504741 0.158395
C22   C     C_R   0.473085 0.040689 0.475525 0.013273
C23   C     C_R   0.510759 0.560287 0.308465 0.845522
C24   C     C_R   0.374474 0.005219 0.412627 0.118736
C25   C     C_R   0.340197 0.893879 0.398243 -0.070564
C26   C     C_R   0.413278 0.823534 0.435331 -0.232570
C27   C     C_R   0.504897 0.152461 0.488025 -0.007190
C28   C     C_R   0.348178 0.190804 0.382279 0.013025
C29   C     C_R   0.282202 0.499375 0.499391 0.873274
C30   C     C_1   0.838954 0.502791 0.499159 -0.173140
C31   C     C_1   0.941106 0.502254 0.498400 0.021415
C32   C     C_1   0.059439 0.500155 0.497876 0.022160
C33   C     C_1   0.161378 0.498695 0.498170 -0.171297
C34   C     C_R   0.464573 0.725364 0.058258 -0.194467
H1    H     H_    0.509335 0.766189 0.210099 0.154654
H2    H     H_    0.242629 0.060594 0.311608 0.166413
H3    H     H_    0.579284 0.187263 0.532090 0.146737
H4    H     H_    0.649549 0.072267 0.619573 0.191537
H5    H     H_    0.394184 0.743666 0.412741 0.213780
H6    H     H_    0.397617 0.744260 0.861635 0.163586
H7    H     H_    0.462981 0.808607 0.028369 0.162775
H8    H     H_    0.491986 0.433017 0.163505 0.163786
H9    H     H_    0.374124 0.311865 0.089809 0.143783
H10   H     H_    0.371341 0.602319 0.750038 0.182060
H11   H     H_    0.300343 0.250251 0.347237 0.136671
N1    N     N_R   0.440320 0.222190 0.444690 -0.102210
N2    N     N_R   0.559060 0.776980 0.554780 -0.159692
O1    O     O_R   0.471500 0.366730 0.627160 -0.577388
O2    O     O_R   0.509620 0.544830 0.662520 -0.598729
O3    O     O_R   0.646490 0.410960 0.482310 -0.613631
O4    O     O_R   0.684610 0.589050 0.517670 -0.584444
O5    O     O_R   0.490380 0.455170 0.337480 -0.623048
O6    O     O_R   0.528500 0.633270 0.372840 -0.637860
O7    O     O_R   0.315390 0.410950 0.482330 -0.609412
O8    O     O_R   0.353510 0.589040 0.517690 -0.639271
Zn1   Zn    Zn3+2 0.474550 0.381080 0.476390 0.962717
Zn2   Zn    Zn3+2 0.525450 0.618920 0.523610 0.949359
C35   C     C_R   0.222575 0.844824 0.356729 0.137497
C36   C     C_R   0.212770 0.767230 0.286819 -0.182867
C37   C     C_R   0.101476 0.714588 0.255088 -0.133731
C38   C     C_R   0.998599 0.737596 0.293769 -0.093664
C39   C     C_R   0.006845 0.812832 0.364732 -0.119845
C40   C     C_R   0.117997 0.865601 0.396679 -0.139228
H12   H     H_    0.291176 0.747358 0.256644 0.118995
H13   H     H_    0.095088 0.655477 0.200838 0.135895
H14   H     H_    0.912489 0.696334 0.269562 0.130268
H15   H     H_    0.927026 0.829332 0.395967 0.146947
H16   H     H_    0.122322 0.921068 0.454182 0.148396
I1    I     I_    0.735108 0.693661 0.711486 -0.272944
I2    I     I_    0.805776 0.970486 0.758785 -0.332024
I3    I     I_    0.487910 0.169369 0.763651 -0.371549
C41   C     C_R   0.356065 0.142308 0.985434 0.136440
C42   C     C_R   0.261507 0.077048 0.938197 -0.106532
C43   C     C_R   0.224351 0.966449 0.973576 -0.110046
C44   C     C_R   0.280253 0.920477 0.056953 -0.127468
C45   C     C_R   0.372168 0.985304 0.106410 -0.140259
C46   C     C_R   0.409886 0.096146 0.071096 -0.132734
H17   H     H_    0.217570 0.111728 0.873190 0.152007
H18   H     H_    0.152782 0.916197 0.935877 0.154130
H19   H     H_    0.252781 0.834277 0.082203 0.138551
H20   H     H_    0.415112 0.949414 0.171274 0.136330
H21   H     H_    0.482078 0.145319 0.109167 0.136442

loop_
_geom_bond_atom_site_label_1
_geom_bond_atom_site_label_2
_ccdc_geom_bond_type
C16   C28   A    
C21   C26   A    
C17   I1    S    
C8    C13   A    
C42   C43   A    
C19   C20   A    
C7    C11   A    
C28   N1    A    
C36   H12   S    
C41   C46   A    
C39   H15   S    
C5    C6    A    
C26   H5    S    
C29   O7    A    
C29   C33   S    
O2    Zn2   S    
C10   H6    S    
C18   C19   A    
C2    C13   A    
C38   H14   S    
C8    C9    A    
C42   H17   S    
C1    C15   S    
C9    C10   A    
C7    C15   A    
C5    H9    S    
C36   C37   A    
C16   C24   A    
C34   H7    S    
C13   H8    S    
C23   O6    A    
O7    Zn1   S    
C28   H11   S    
C43   C44   A    
C24   C25   A    
C14   H1    S    
O6    Zn2   S    
C4    C5    A    
C6    C8    A    
C29   O8    A    
C25   C26   A    
O3    Zn1   S    
C37   C38   A    
C3    I3    S    
C44   C45   A    
C39   C40   A    
C19   H4    S    
N2    Zn2   S    
C31   C32   S    
C17   C18   A    
C11   H10   S    
C45   C46   A    
O4    Zn2   S    
C27   N1    A    
C20   C22   A    
C37   H13   S    
C43   H18   S    
O8    Zn2   S    
C9    C34   A    
C22   C24   A    
C25   C35   S    
C3    C4    A    
C4    C41   S    
C12   O4    A    
C3    C15   A    
C44   H19   S    
C35   C40   A    
O1    Zn1   S    
C40   H16   S    
C12   C30   S    
C17   N2    A    
C41   C42   A    
C45   H20   S    
C14   C34   A    
C12   O3    A    
C1    O1    A    
C6    C7    A    
C18   I2    S    
C22   C27   A    
C32   C33   T    
C35   C36   A    
C16   H2    S    
C23   O5    A    
C30   C31   T    
C46   H21   S    
C27   H3    S    
C38   C39   A    
C2    C14   A    
C10   C11   A    
C20   C21   A    
N1    Zn1   S    
C2    C23   S    
C1    O2    A    
O5    Zn1   S    
C21   N2    A    
