data_mof_unit_4847.cif
_audit_creation_date              2012-12-10T18:57:07-0500
_audit_creation_method            fapswitch 2.2
_symmetry_space_group_name_H-M    P1
_symmetry_Int_Tables_number       1
_space_group_crystal_system       triclinic
_cell_length_a                    10.760034
_cell_length_b                    9.840823
_cell_length_c                    10.679693
_cell_angle_alpha                 90.116951
_cell_angle_beta                  91.532819
_cell_angle_gamma                 89.870771
_cell_volume                      1130.43720515

loop_
_atom_site_label
_atom_site_type_symbol
_atom_type_description
_atom_site_fract_x
_atom_site_fract_y
_atom_site_fract_z
_atom_type_partial_charge
C1    C     C_R   0.259942 0.500625 0.503103 0.929559
C2    C     C_R   0.457262 0.618725 0.936771 0.074923
C3    C     C_R   0.497798 0.496597 0.126115 -0.220231
C4    C     C_R   0.462709 0.497566 0.869590 -0.221771
C5    C     C_R   0.495106 0.371906 0.059638 0.169866
C6    C     C_R   0.457010 0.373081 0.934329 0.163713
C7    C     C_3   0.525965 0.749641 0.925061 -0.405701
C8    C     C_3   0.538122 0.749268 0.066777 -0.422564
C9    C     C_R   0.063821 0.379663 0.504354 -0.213503
C10   C     C_R   0.936660 0.379353 0.499063 -0.217423
C11   C     C_R   0.872332 0.502505 0.491782 -0.209679
C12   C     C_R   0.739941 0.500325 0.496068 0.930938
C13   C     C_R   0.127376 0.503215 0.505228 -0.206840
C14   C     C_R   0.935717 0.627313 0.485419 0.355390
C15   C     C_R   0.063054 0.628131 0.504036 0.358741
C16   C     C_3   0.876650 0.785593 0.341190 0.134940
C17   C     C_3   0.796936 0.911433 0.318484 -0.753837
C18   C     C_3   0.115419 0.796606 0.640750 0.135780
C19   C     C_3   0.187896 0.927991 0.658054 -0.745351
C20   C     C_R   0.580952 0.070190 0.576747 0.218188
C21   C     C_R   0.418595 0.070160 0.423710 0.218100
C22   C     C_R   0.579890 0.926904 0.576685 -0.108256
C23   C     C_R   0.420104 0.926900 0.423340 -0.117641
C24   C     C_R   0.505795 0.499277 0.259568 0.913807
C25   C     C_R   0.488456 0.499715 0.739152 0.922048
C26   C     C_R   0.468410 0.617587 0.064441 0.094965
H1    H     H_    0.616667 0.737857 0.878635 0.206324
H2    H     H_    0.973370 0.809291 0.313890 0.175128
H3    H     H_    0.805024 0.945098 0.219871 0.221757
H4    H     H_    0.698041 0.887815 0.335448 0.257840
H5    H     H_    0.827990 0.995081 0.381862 0.263105
H6    H     H_    0.155445 0.719958 0.707320 0.122491
H7    H     H_    0.016986 0.817197 0.664501 0.173393
H8    H     H_    0.172447 0.969585 0.753086 0.225326
H9    H     H_    0.288712 0.908204 0.648495 0.255868
H10   H     H_    0.156546 0.004132 0.587274 0.261752
H11   H     H_    0.484625 0.832198 0.111518 0.230093
H12   H     H_    0.465446 0.832740 0.887788 0.227435
H13   H     H_    0.635695 0.737983 0.102424 0.196252
H14   H     H_    0.111900 0.282963 0.508887 0.209835
H15   H     H_    0.889191 0.282514 0.500596 0.210418
H16   H     H_    0.643507 0.871073 0.637673 0.176716
H17   H     H_    0.356099 0.871058 0.362811 0.185321
H18   H     H_    0.838877 0.702404 0.280201 0.112622
I1    I     I_    0.586640 0.190455 0.126433 -0.322018
I2    I     I_    0.380989 0.190298 0.853678 -0.333619
I3    I     I_    0.712100 0.161104 0.701988 -0.319414
I4    I     I_    0.282858 0.160365 0.302870 -0.321929
N1    N     N_R   0.500000 0.857200 0.500000 -0.122082
N2    N     N_R   0.500000 0.142810 0.500000 -0.112618
O1    O     O_R   0.316770 0.614620 0.499990 -0.576763
O2    O     O_3   0.123838 0.751687 0.515430 -0.587893
O3    O     O_R   0.683230 0.614620 0.500010 -0.576635
O4    O     O_R   0.316800 0.385290 0.500000 -0.607734
O5    O     O_R   0.683200 0.385290 0.500000 -0.608468
O6    O     O_R   0.500000 0.614690 0.316780 -0.630686
O7    O     O_R   0.500000 0.614690 0.683220 -0.635630
O8    O     O_R   0.500020 0.385360 0.316780 -0.571691
O9    O     O_R   0.499980 0.385360 0.683220 -0.569732
O10   O     O_3   0.873761 0.749852 0.469147 -0.588822
Zn1   Zn    Zn3+2 0.500000 0.653120 0.500000 0.971229
Zn2   Zn    Zn3+2 0.500000 0.346880 0.500000 1.024671

loop_
_geom_bond_atom_site_label_1
_geom_bond_atom_site_label_2
_ccdc_geom_bond_type
O8    Zn2   S    
C2    C4    A    
C11   C12   S    
O7    Zn1   S    
C8    H13   S    
C9    H14   S    
C8    H11   S    
C24   O6    A    
C8    C26   S    
C9    C10   A    
C16   H18   S    
C16   H2    S    
O1    Zn1   S    
C1    O4    A    
C21   I4    S    
C21   C23   A    
C4    C25   S    
C18   O2    S    
C7    C8    S    
C2    C26   A    
C19   H9    S    
C15   O2    S    
C10   H15   S    
C17   H4    S    
C1    O1    A    
N1    Zn1   S    
C3    C24   S    
C22   H16   S    
C18   H6    S    
C25   O7    A    
C22   N1    A    
C17   H5    S    
C4    C6    A    
C21   N2    A    
C11   C14   A    
C7    H12   S    
C20   C22   A    
C19   H10   S    
C13   C15   A    
C6    I2    S    
C5    C6    A    
N2    Zn2   S    
C18   H7    S    
C23   N1    A    
C12   O5    A    
C1    C13   S    
C10   C11   A    
O3    Zn1   S    
C20   I3    S    
O5    Zn2   S    
C17   H3    S    
C7    H1    S    
C24   O8    A    
C18   C19   S    
C16   O10   S    
C14   O10   S    
C9    C13   A    
C14   C15   A    
O9    Zn2   S    
C20   N2    A    
C5    I1    S    
C25   O9    A    
C2    C7    S    
O6    Zn1   S    
C23   H17   S    
O4    Zn2   S    
C3    C26   A    
C12   O3    A    
C16   C17   S    
C3    C5    A    
C19   H8    S    
