data_mof_unit_340.cif
_audit_creation_date              2012-12-10T19:28:31-0500
_audit_creation_method            fapswitch 2.2
_symmetry_space_group_name_H-M    P1
_symmetry_Int_Tables_number       1
_space_group_crystal_system       triclinic
_cell_length_a                    27.901897
_cell_length_b                    10.48985
_cell_length_c                    9.761203
_cell_angle_alpha                 90.460009
_cell_angle_beta                  89.06635
_cell_angle_gamma                 89.976275
_cell_volume                      2856.50263601

loop_
_atom_site_label
_atom_site_type_symbol
_atom_type_description
_atom_site_fract_x
_atom_site_fract_y
_atom_site_fract_z
_atom_type_partial_charge
C1    C     C_R   0.499966 0.257662 0.499373 0.952111
C2    C     C_R   0.500013 0.742343 0.500628 0.955787
C3    C     C_R   0.099798 0.461560 0.540399 -0.060939
C4    C     C_R   0.899759 0.468357 0.550629 -0.060382
C5    C     C_R   0.125326 0.346371 0.546088 -0.067697
C6    C     C_R   0.874528 0.579954 0.586556 -0.065499
C7    C     C_R   0.100897 0.232559 0.573245 -0.184144
C8    C     C_R   0.898989 0.683817 0.642931 -0.183949
C9    C     C_R   0.124333 0.577111 0.518261 -0.021252
C10   C     C_R   0.875139 0.361769 0.498614 -0.025647
C11   C     C_R   0.354199 0.486171 0.506559 -0.054019
C12   C     C_R   0.646202 0.496213 0.496563 -0.055799
C13   C     C_R   0.974767 0.348704 0.538067 0.056141
C14   C     C_R   0.024661 0.578761 0.565804 0.058866
C15   C     C_R   0.975004 0.577392 0.595666 0.020169
C16   C     C_R   0.024600 0.344231 0.561092 0.020470
C17   C     C_R   0.949832 0.464441 0.563119 0.036832
C18   C     C_R   0.049672 0.461421 0.556599 0.035872
C19   C     C_R   0.949949 0.246049 0.478733 -0.210625
C20   C     C_R   0.049223 0.691677 0.532515 -0.214016
C21   C     C_R   0.900680 0.251812 0.460670 -0.137960
C22   C     C_R   0.098550 0.691247 0.510593 -0.140383
C23   C     C_R   0.406323 0.497867 0.501270 0.898156
C24   C     C_R   0.593766 0.499537 0.498974 0.898262
C25   C     C_R   0.050783 0.230066 0.586651 0.148738
C26   C     C_R   0.949023 0.682551 0.653526 0.142887
C27   C     C_3   0.539081 0.042283 0.561389 0.451023
C28   C     C_3   0.460872 0.957737 0.438609 0.452650
C29   C     C_3   0.539452 0.956637 0.432709 -0.264607
C30   C     C_3   0.460499 0.043391 0.567290 -0.264101
C31   C     C_3   0.500029 0.877252 0.501852 -0.147971
C32   C     C_3   0.499925 0.122765 0.498147 -0.146981
C33   C     C_3   0.500160 0.960812 0.631492 -0.192547
C34   C     C_3   0.499792 0.039211 0.368509 -0.192387
C35   C     C_3   0.471198 0.415745 0.048328 0.479451
C36   C     C_3   0.528799 0.584256 0.951672 0.480906
C37   C     C_3   0.513224 0.390041 0.949545 -0.173689
C38   C     C_3   0.486771 0.609954 0.050451 -0.168982
C39   C     C_3   0.457577 0.524691 0.953462 -0.191546
C40   C     C_3   0.542420 0.475304 0.046527 -0.188269
C41   C     C_R   0.175280 0.349258 0.532704 0.563234
C42   C     C_R   0.824961 0.583370 0.568594 0.554026
C43   C     C_R   0.174226 0.575129 0.504299 0.539889
C44   C     C_R   0.825609 0.369894 0.481666 0.549058
C45   C     C_R   0.277594 0.511778 0.392980 -0.048989
C46   C     C_R   0.719988 0.503792 0.626730 -0.055909
C47   C     C_R   0.327230 0.520357 0.391728 -0.128973
C48   C     C_R   0.670558 0.508586 0.621327 -0.136054
C49   C     C_R   0.332874 0.438146 0.627914 -0.198858
C50   C     C_R   0.670614 0.478440 0.369820 -0.184147
C51   C     C_R   0.283942 0.423321 0.644620 -0.036775
C52   C     C_R   0.720150 0.471356 0.358591 -0.038702
C53   C     C_R   0.253046 0.464555 0.519480 0.040238
C54   C     C_R   0.747736 0.485528 0.496903 0.046585
H1    H     H_    0.354810 0.409941 0.712997 0.184519
H2    H     H_    0.650795 0.468449 0.275957 0.176436
H3    H     H_    0.500722 0.925482 0.738380 0.217874
H4    H     H_    0.499231 0.074547 0.261623 0.217514
H5    H     H_    0.524016 0.297499 0.902408 0.194167
H6    H     H_    0.475977 0.702496 0.097586 0.193395
H7    H     H_    0.421899 0.544483 0.909607 0.171419
H8    H     H_    0.578094 0.455411 0.090321 0.165280
H9    H     H_    0.263060 0.441348 0.588190 0.203982
H10   H     H_    0.740022 0.477292 0.421474 0.204045
H11   H     H_    0.121084 0.145738 0.588871 0.191768
H12   H     H_    0.878941 0.765293 0.681765 0.191515
H13   H     H_    0.650929 0.521893 0.717019 0.197340
H14   H     H_    0.344977 0.555869 0.300180 0.185462
H15   H     H_    0.737872 0.512193 0.724002 0.168151
H16   H     H_    0.257341 0.539444 0.304345 0.169639
H17   H     H_    0.882878 0.170849 0.414401 0.193529
H18   H     H_    0.116301 0.780395 0.486849 0.190388
H19   H     H_    0.968715 0.165085 0.435388 0.144290
H20   H     H_    0.030272 0.779163 0.513328 0.137572
H21   H     H_    0.571672 0.917030 0.379371 0.196673
H22   H     H_    0.428281 0.083040 0.620608 0.194888
N1    N     N_R   0.198413 0.462422 0.512875 -0.340185
N2    N     N_R   0.801824 0.479325 0.516947 -0.340401
N3    N     N_3   0.499960 0.500030 0.863290 -0.121811
N4    N     N_3   0.500040 0.499970 0.136710 -0.121607
O1    O     O_R   0.500000 0.313960 0.616610 -0.611325
O2    O     O_R   0.500000 0.686040 0.383390 -0.609843
O3    O     O_R   0.500020 0.313950 0.383350 -0.589453
O4    O     O_R   0.499980 0.686050 0.616650 -0.587832
O5    O     O_R   0.428750 0.500030 0.616610 -0.640093
O6    O     O_R   0.571250 0.499970 0.383390 -0.638913
O7    O     O_R   0.428770 0.500020 0.383360 -0.575852
O8    O     O_R   0.571230 0.499980 0.616640 -0.580040
O9    O     O_2   0.200789 0.240359 0.540421 -0.524788
O10   O     O_2   0.800057 0.690201 0.600019 -0.533170
O11   O     O_2   0.801191 0.269433 0.431335 -0.528275
O12   O     O_2   0.198593 0.684967 0.486725 -0.532464
Zn1   Zn    Zn3+2 0.499990 0.500010 0.655740 1.020897
Zn2   Zn    Zn3+2 0.500010 0.499990 0.344260 1.023070
Cl1   Cl    Cl    0.591070 0.103539 0.642525 -0.560481
Cl2   Cl    Cl    0.408889 0.896493 0.357427 -0.566117
Cl3   Cl    Cl    0.431488 0.299852 0.118700 -0.570482
Cl4   Cl    Cl    0.568460 0.700281 0.881331 -0.580691
C55   C     C_3   0.028618 0.112280 0.652839 -0.428074
C56   C     C_3   0.003798 0.145016 0.789402 -0.813897
H23   H     H_    0.028878 0.196583 0.857534 0.264129
H24   H     H_    0.971613 0.204878 0.773497 0.266965
H25   H     H_    0.992213 0.056099 0.841108 0.243074
H26   H     H_    0.003701 0.061075 0.585444 0.190548
H27   H     H_    0.056834 0.040760 0.674989 0.205550
C57   C     C_3   0.971376 0.782375 0.747118 -0.422942
C58   C     C_3   0.995833 0.721275 0.869164 -0.808893
H28   H     H_    0.970177 0.659154 0.925643 0.261979
H29   H     H_    0.027290 0.663837 0.835066 0.266538
H30   H     H_    0.008502 0.796988 0.940007 0.245887
H31   H     H_    0.996763 0.845448 0.693221 0.201009
H32   H     H_    0.943356 0.847750 0.789418 0.208584

loop_
_geom_bond_atom_site_label_1
_geom_bond_atom_site_label_2
_ccdc_geom_bond_type
C41   O9    S    
C8    H12   S    
O2    Zn2   S    
C27   C29   S    
C8    C26   A    
C14   C18   A    
C27   Cl1   S    
C12   C48   A    
C26   C57   S    
C57   H32   S    
C27   C33   S    
C37   N3    S    
C21   H17   S    
C11   C49   A    
C35   C37   S    
O1    Zn1   S    
N3    Zn1   S    
C37   C40   S    
C41   N1    A    
C38   C39   S    
C9    C22   A    
C57   C58   S    
C1    O1    A    
O7    Zn2   S    
C35   N4    S    
C40   H8    S    
C3    C18   A    
C46   H15   S    
O6    Zn2   S    
C11   C47   A    
C25   C55   S    
C49   C51   A    
C50   C52   A    
C58   H28   S    
C40   N4    S    
C55   H26   S    
C45   H16   S    
C28   C34   S    
C23   O7    A    
C58   H29   S    
O5    Zn1   S    
C39   H7    S    
C22   H18   S    
C52   C54   A    
C57   H31   S    
C45   C47   A    
C10   C21   A    
C55   H27   S    
C46   C48   A    
C9    C43   A    
C13   C19   A    
C10   C44   A    
C14   C20   A    
C36   C40   S    
C51   H9    S    
C4    C6    A    
C52   H10   S    
C5    C7    A    
C15   C26   A    
C6    C8    A    
C49   H1    S    
O3    Zn2   S    
C29   C34   S    
C56   H25   S    
C50   H2    S    
C2    C31   S    
C42   O10   S    
C39   N3    S    
C53   N1    S    
C3    C9    A    
C7    H11   S    
C30   H22   S    
C55   C56   S    
C19   H19   S    
C46   C54   A    
C31   C33   S    
C2    O4    A    
C20   H20   S    
C24   O8    A    
C37   H5    S    
C44   O11   S    
C38   H6    S    
C4    C17   A    
C20   C22   A    
C42   N2    A    
C23   O5    A    
C58   H30   S    
C2    O2    A    
C1    O3    A    
C4    C10   A    
C36   C38   S    
C47   H14   S    
C56   H24   S    
C16   C25   A    
C15   C17   A    
C5    C41   A    
O8    Zn1   S    
C33   H3    S    
C30   C33   S    
C19   C21   A    
C27   C32   S    
C28   C31   S    
C3    C5    A    
C36   N3    S    
C12   C50   A    
C29   H21   S    
C43   N1    A    
C12   C24   S    
C43   O12   S    
C7    C25   A    
C13   C17   A    
C28   Cl2   S    
C44   N2    A    
C28   C30   S    
C29   C31   S    
C30   C32   S    
C38   N4    S    
C35   C39   S    
C11   C23   S    
C56   H23   S    
O4    Zn1   S    
C1    C32   S    
C48   H13   S    
C45   C53   A    
C16   C18   A    
C6    C42   A    
C13   C16   A    
C34   H4    S    
C14   C15   A    
N4    Zn2   S    
C36   Cl4   S    
C51   C53   A    
C35   Cl3   S    
C24   O6    A    
C32   C34   S    
C54   N2    S    
