data_mof_unit_1454.cif
_audit_creation_date              2012-12-11T14:35:59-0500
_audit_creation_method            fapswitch 2.2
_symmetry_space_group_name_H-M    P1
_symmetry_Int_Tables_number       1
_space_group_crystal_system       triclinic
_cell_length_a                    13.47932
_cell_length_b                    13.511965
_cell_length_c                    27.495854
_cell_angle_alpha                 90.579683
_cell_angle_beta                  89.919387
_cell_angle_gamma                 59.783482
_cell_volume                      4327.11217731

loop_
_atom_site_label
_atom_site_type_symbol
_atom_type_description
_atom_site_fract_x
_atom_site_fract_y
_atom_site_fract_z
_atom_type_partial_charge
C1    C     C_R   0.619711 0.101061 0.570380 0.558944
C2    C     C_1   0.632197 0.730724 0.615990 0.001881
C3    C     C_3   0.712219 0.555369 0.767153 -0.065036
C4    C     C_3   0.678322 0.652464 0.804950 0.025768
C5    C     C_3   0.600854 0.634146 0.739317 0.217917
C6    C     C_3   0.664779 0.680748 0.710103 0.037271
C7    C     C_3   0.566318 0.730233 0.777703 -0.076786
C8    C     C_3   0.630779 0.777499 0.747884 -0.108041
C9    C     C_1   0.687315 0.632350 0.857456 -0.026162
C10   C     C_1   0.651157 0.702660 0.657868 -0.022689
C11   C     C_3   0.146233 0.084678 0.742971 0.288780
C12   C     C_R   0.599946 0.779158 0.568624 0.543133
C13   C     C_3   0.241013 0.052531 0.781176 -0.084470
C14   C     C_1   0.102327 0.198920 0.902932 -0.001616
C15   C     C_1   0.233298 0.136723 0.618366 -0.015941
C16   C     C_3   0.063615 0.194666 0.771474 -0.083848
C17   C     C_3   0.159507 0.163958 0.808950 0.028565
C18   C     C_3   0.108628 0.261601 0.742069 -0.143385
C19   C     C_3   0.189204 0.151116 0.713600 0.036472
C20   C     C_3   0.204088 0.231065 0.780207 -0.097359
C21   C     C_3   0.285379 0.119962 0.751213 -0.124036
C22   C     C_1   0.134049 0.178309 0.861179 -0.035198
C23   C     C_R   0.278233 0.121715 0.569875 0.545398
C24   C     C_1   0.208577 0.144609 0.660912 -0.055036
C25   C     C_3   0.691875 0.234273 0.738769 0.323864
C26   C     C_3   0.591155 0.283490 0.774952 0.318124
C27   C     C_1   0.691083 0.207583 0.903557 0.017068
C28   C     C_1   0.632003 0.131586 0.619036 -0.007295
C29   C     C_3   0.764539 0.134482 0.773368 -0.172533
C30   C     C_3   0.662093 0.184371 0.809322 0.016316
C31   C     C_3   0.715838 0.063809 0.748286 -0.142569
C32   C     C_3   0.643764 0.165518 0.713973 -0.010975
C33   C     C_3   0.613835 0.114840 0.784790 0.135588
C34   C     C_R   0.600921 0.072078 0.425302 0.558435
C35   C     C_3   0.540878 0.215515 0.749901 -0.124002
C36   C     C_1   0.674384 0.195924 0.861525 0.004137
C37   C     C_1   0.637505 0.150075 0.661555 -0.038013
C38   C     C_R   0.728521 0.721374 0.357425 -0.136103
C39   C     C_R   0.736986 0.709700 0.306873 0.015819
C40   C     C_R   0.748179 0.693775 0.204520 0.023902
C41   C     C_R   0.825963 0.713829 0.230853 -0.114872
C42   C     C_R   0.822682 0.717694 0.281590 -0.145445
C43   C     C_R   0.760241 0.670218 0.153850 0.259504
C44   C     C_R   0.679387 0.648520 0.130362 0.015547
C45   C     C_R   0.602020 0.776364 0.430142 0.538531
C46   C     C_R   0.558280 0.702781 0.356243 -0.117683
C47   C     C_R   0.563393 0.695008 0.305919 0.017143
C48   C     C_R   0.653034 0.698565 0.280959 0.066717
C49   C     C_R   0.475973 0.691225 0.280145 -0.122296
C50   C     C_R   0.478049 0.689551 0.229683 -0.128636
C51   C     C_R   0.569713 0.687419 0.204650 -0.003336
C52   C     C_R   0.657510 0.692568 0.230036 0.021257
C53   C     C_R   0.578147 0.673030 0.154764 -0.179174
C54   C     C_R   0.635937 0.723564 0.381882 -0.006891
C55   C     C_R   0.198133 0.060960 0.359639 0.141339
C56   C     C_R   0.276883 0.120859 0.431101 0.558570
C57   C     C_R   0.175603 0.072703 0.309179 0.032497
C58   C     C_R   0.141423 0.094846 0.207671 0.014065
C59   C     C_R   0.147395 0.001178 0.231622 -0.140780
C60   C     C_R   0.165277 0.989551 0.281719 -0.106768
C61   C     C_R   0.117756 0.110464 0.157962 -0.127264
C62   C     C_R   0.108274 0.207098 0.134826 -0.004048
C63   C     C_R   0.192351 0.244545 0.360713 -0.164069
C64   C     C_R   0.171196 0.256349 0.311300 0.004068
C65   C     C_R   0.166797 0.168747 0.285000 0.036755
C66   C     C_R   0.160587 0.352263 0.287445 -0.127359
C67   C     C_3   0.776552 0.603094 0.737344 -0.150375
C68   C     C_R   0.152802 0.358467 0.237106 -0.129660
C69   C     C_R   0.148981 0.271817 0.210421 0.019288
C70   C     C_R   0.152930 0.178063 0.234349 0.066491
C71   C     C_R   0.133928 0.281376 0.160444 -0.133346
C72   C     C_R   0.215506 0.143806 0.384454 0.011389
C73   C     C_R   0.519471 0.188645 0.350783 -0.132278
C74   C     C_R   0.528525 0.208357 0.301618 0.017398
C75   C     C_R   0.550809 0.249756 0.202924 0.012590
C76   C     C_R   0.447499 0.319024 0.228564 -0.112677
C77   C     C_R   0.437777 0.300005 0.277699 -0.136612
C78   C     C_3   0.742855 0.699596 0.775956 -0.095819
C79   C     C_R   0.569614 0.275913 0.155166 0.217596
C80   C     C_R   0.671964 0.197686 0.130339 0.022018
C81   C     C_R   0.711280 0.021617 0.348185 -0.121230
C82   C     C_R   0.721032 0.040057 0.299270 0.023030
C83   C     C_R   0.629680 0.133904 0.275749 0.069888
C84   C     C_R   0.820807 0.965505 0.273508 -0.134691
C85   C     C_R   0.827796 0.979478 0.223999 -0.095170
C86   C     C_R   0.737517 0.072569 0.200015 0.018181
C87   C     C_R   0.639877 0.153051 0.226337 -0.008768
C88   C     C_R   0.744244 0.088084 0.150477 0.121026
C89   C     C_1   0.696853 0.607088 0.899796 0.004232
C90   C     C_R   0.611296 0.095910 0.374310 -0.003995
C91   C     C_R   0.050208 0.235773 0.950062 0.547714
C92   C     C_R   0.711507 0.562800 0.948067 0.554307
C93   C     C_R   0.721861 0.225344 0.951171 0.554506
C94   C     C_R   0.049065 0.244343 0.088196 0.542393
C95   C     C_R   0.706274 0.578407 0.085529 0.558276
C96   C     C_R   0.715717 0.230701 0.087614 0.580108
Cr1   Cr    Cr6+3 0.417550 0.169090 0.500530 1.032454
Cr2   Cr    Cr6+3 0.669180 0.913420 0.499920 1.025815
Cr3   Cr    Cr6+3 0.413260 0.917540 0.499520 1.080404
Cr4   Cr    Cr6+3 0.909170 0.177380 0.020380 1.068108
Cr5   Cr    Cr6+3 0.912710 0.429210 0.018220 1.019542
Cr6   Cr    Cr6+3 0.657170 0.432570 0.019030 1.031015
H1    H     H_    0.800914 0.727298 0.791692 0.141493
H2    H     H_    0.229090 0.291083 0.796194 0.123092
H3    H     H_    0.055149 0.347491 0.726002 0.101800
H4    H     H_    0.972441 0.224636 0.780549 0.109325
H5    H     H_    0.449759 0.248066 0.740222 0.111259
H6    H     H_    0.766382 0.972309 0.737005 0.136774
H7    H     H_    0.855665 0.101383 0.783230 0.128984
H8    H     H_    0.862667 0.551651 0.720244 0.102875
H9    H     H_    0.788375 0.738029 0.377107 0.123877
H10   H     H_    0.889850 0.726449 0.212860 0.144213
H11   H     H_    0.886475 0.728190 0.301148 0.098827
H12   H     H_    0.510762 0.667977 0.135735 0.131652
H13   H     H_    0.409530 0.686904 0.210352 0.097656
H14   H     H_    0.405227 0.691307 0.298979 0.121611
H15   H     H_    0.486784 0.703876 0.374917 0.163554
H16   H     H_    0.099997 0.051395 0.138120 0.140347
H17   H     H_    0.138225 0.936747 0.211605 0.109650
H18   H     H_    0.597456 0.868509 0.738506 0.151996
H19   H     H_    0.171253 0.914586 0.298274 0.159038
H20   H     H_    0.132335 0.352730 0.142374 0.117218
H21   H     H_    0.147321 0.432103 0.219180 0.089984
H22   H     H_    0.161499 0.421073 0.307651 0.098655
H23   H     H_    0.200388 0.310788 0.379796 0.135698
H24   H     H_    0.440752 0.244799 0.370518 0.132389
H25   H     H_    0.374262 0.389279 0.211230 0.137456
H26   H     H_    0.359912 0.358047 0.297261 0.106117
H27   H     H_    0.480142 0.781769 0.794720 0.118832
H28   H     H_    0.906365 0.919433 0.205277 0.151118
H29   H     H_    0.893246 0.895763 0.291548 0.102169
H30   H     H_    0.781416 0.948206 0.365686 0.133853
H31   H     H_    0.745118 0.463977 0.775763 0.168454
H32   H     H_    0.295148 0.967723 0.798022 0.106795
H33   H     H_    0.376408 0.089774 0.741845 0.147582
O1    O     O_R   0.301710 0.195650 0.554160 -0.504585
O2    O     O_R   0.658900 0.818120 0.449760 -0.522943
O3    O     O_R   0.503220 0.801620 0.445520 -0.488765
O4    O     O_R   0.319370 0.022040 0.450020 -0.442130
O5    O     O_3   0.499990 0.000010 0.499990 -0.277657
O6    O     O_R   0.818720 0.150820 0.967160 -0.490797
O7    O     O_R   0.006410 0.181720 0.970200 -0.494515
O8    O     O_R   0.027890 0.334070 0.964920 -0.507898
O9    O     O_R   0.809600 0.521790 0.967960 -0.492393
O10   O     O_R   0.635520 0.542770 0.964420 -0.509554
O11   O     O_R   0.665950 0.325030 0.970100 -0.498955
O12   O     O_R   0.522390 0.158990 0.550460 -0.483338
O13   O     O_R   0.816620 0.158530 0.074540 -0.469274
O14   O     O_R   0.004460 0.188870 0.069750 -0.495657
O15   O     O_R   0.025800 0.341780 0.072300 -0.542759
O16   O     O_R   0.807650 0.528950 0.067500 -0.482593
O17   O     O_R   0.633420 0.550490 0.071810 -0.544052
O18   O     O_R   0.664000 0.332180 0.069640 -0.483866
O19   O     O_3   0.826350 0.346390 0.019210 -0.259774
O20   O     O_R   0.694390 0.003530 0.554040 -0.502465
O21   O     O_R   0.657700 0.819660 0.549320 -0.500606
O22   O     O_R   0.501930 0.803280 0.552920 -0.493911
O23   O     O_R   0.318170 0.023580 0.549580 -0.487832
O24   O     O_R   0.303010 0.193990 0.446760 -0.543397
O25   O     O_R   0.523600 0.157450 0.450900 -0.496611
O26   O     O_R   0.695690 0.001860 0.446640 -0.507945
O27   O     O_3   0.533462 0.400043 0.789020 -0.501182
C97   C     C_3   0.430298 0.428226 0.813396 0.003500
H34   H     H_    0.443832 0.365605 0.842347 0.133130
H35   H     H_    0.366144 0.431770 0.787004 0.137625
C98   C     C_3   0.382186 0.545672 0.837327 -0.349508
H36   H     H_    0.364471 0.611219 0.809378 0.185568
H37   H     H_    0.300962 0.568899 0.856802 0.097226
H38   H     H_    0.444883 0.544617 0.863810 0.169055
O28   O     O_3   0.724299 0.306640 0.715701 -0.514359
C99   C     C_3   0.823564 0.240944 0.687044 -0.008800
H39   H     H_    0.806595 0.196434 0.656846 0.144178
H40   H     H_    0.895344 0.176670 0.709288 0.166323
C100  C     C_3   0.860501 0.320002 0.664857 -0.353529
H41   H     H_    0.877400 0.366500 0.694104 0.142719
H42   H     H_    0.940078 0.269193 0.642957 0.114961
H43   H     H_    0.791727 0.383245 0.641052 0.182662
Br1   Br    Br    0.558455 0.029573 0.820733 -0.595579
O29   O     O_3   0.840894 0.680520 0.126356 -0.520583
C101  C     C_3   0.950754 0.582255 0.131036 0.009866
H44   H     H_    0.946555 0.502383 0.132278 0.156081
H45   H     H_    0.994059 0.586286 0.164512 0.093921
C102  C     C_3   0.025048 0.576614 0.088103 -0.313198
H46   H     H_    0.031159 0.655553 0.087294 0.172456
H47   H     H_    0.112933 0.501719 0.091389 0.090011
H48   H     H_    0.987040 0.568987 0.053472 0.185998
Br2   Br    Br    0.203399 0.933593 0.393734 -0.539097
O30   O     O_3   0.482362 0.365132 0.129755 -0.550303
C103  C     C_3   0.470399 0.470864 0.144738 -0.009277
H49   H     H_    0.547288 0.475467 0.134236 0.175355
H50   H     H_    0.458875 0.485288 0.184664 0.105038
C104  C     C_3   0.365070 0.566346 0.119988 -0.356471
H51   H     H_    0.288517 0.558856 0.128483 0.149177
H52   H     H_    0.348104 0.651450 0.132916 0.082448
H53   H     H_    0.378671 0.560175 0.079969 0.169241
Br3   Br    Br    0.842470 0.954270 0.110273 -0.485187
Br4   Br    Br    0.497613 0.589890 0.710635 -0.501421
O31   O     O_3   0.108872 0.012666 0.722804 -0.586644
C105  C     C_3   0.204535 0.906937 0.708572 -0.003080
H54   H     H_    0.249872 0.856248 0.741154 0.146711
H55   H     H_    0.265861 0.918760 0.685603 0.149505
C106  C     C_3   0.163215 0.839081 0.679022 -0.351745
H56   H     H_    0.117888 0.887398 0.646042 0.160542
H57   H     H_    0.237654 0.755390 0.667671 0.154703
H58   H     H_    0.103606 0.823532 0.701235 0.155082

loop_
_geom_bond_atom_site_label_1
_geom_bond_atom_site_label_2
_ccdc_geom_bond_type
C25   O28   S    
C66   C68   A    
C99   H39   S    
C8    C78   S    
C103  C104  S    
C11   C13   S    
C41   C42   A    
C88   Br3   S    
C71   H20   S    
C83   C87   A    
C97   H34   S    
C74   C83   A    
C43   C44   A    
C34   O26   A    
C2    C12   S    
C20   C21   S    
C34   C90   S    
C81   C82   A    
C7    C8    S    
C47   C49   A    
C85   C86   A    
C53   H12   S    
C94   O14   A    
C99   H40   S    
C11   C19   S    
C79   C80   A    
C106  H57   S    
C23   O1    A    
Cr3   O22   S    
Cr1   O24   S    
C29   H7    S    
C97   H35   S    
C73   C90   A    
C18   C19   S    
C56   O24   A    
Cr4   O6    S    
C102  H47   S    
Cr6   O10   S    
C5    C6    S    
Cr5   O9    S    
C86   C88   A    
O28   C99   S    
C73   H24   S    
C23   O23   A    
Cr5   O15   S    
C17   C20   S    
C1    O20   A    
C50   H13   S    
C73   C74   A    
C69   C71   A    
C1    O12   A    
C100  H41   S    
C42   H11   S    
C46   C47   A    
C44   C53   A    
C40   C43   A    
C96   O18   A    
C16   C17   S    
C56   C72   S    
C106  H58   S    
C26   O27   S    
C1    C28   S    
C31   C33   S    
Cr3   O3    S    
O31   C105  S    
C55   Br2   S    
C12   O22   A    
C80   C96   S    
C58   C61   A    
Cr6   O19   S    
Cr1   O5    S    
C55   C72   A    
C101  C102  S    
C16   H4    S    
C91   O7    A    
C61   C62   A    
C25   C32   S    
C15   C23   S    
C78   H1    S    
C59   C60   A    
C98   H37   S    
Cr1   O12   S    
Cr3   O4    S    
C69   C70   A    
C67   C78   S    
C62   C71   A    
C12   O21   A    
C4    C7    S    
C68   H21   S    
C101  H45   S    
C39   C42   A    
C91   O8    A    
C25   C29   S    
C96   O13   A    
C99   C100  S    
Cr2   O21   S    
C7    H27   S    
C106  H56   S    
Cr2   O2    S    
C51   C52   A    
Cr1   O25   S    
C97   C98   S    
C76   C77   A    
C79   O30   S    
C102  H48   S    
C9    C89   T    
C5    C7    S    
C56   O4    A    
C86   C87   A    
C68   C69   A    
C57   C60   A    
C5    Br4   S    
C3    C5    S    
C25   C26   S    
C40   C52   A    
C74   C77   A    
C63   C64   A    
C46   H15   S    
Cr2   O5    S    
O30   C103  S    
C51   C53   A    
C104  H52   S    
C13   H32   S    
C75   C76   A    
C104  H53   S    
C102  H46   S    
C4    C78   S    
C29   C30   S    
C85   H28   S    
C105  C106  S    
C11   C16   S    
C67   H8    S    
C47   C48   A    
C38   C54   A    
C43   O29   S    
C46   C54   A    
C45   O2    A    
C50   C51   A    
C92   O10   A    
C13   C21   S    
C93   O11   A    
C16   C18   S    
C32   C37   S    
C84   C85   A    
C89   C92   S    
Cr6   O18   S    
C63   H23   S    
C77   H26   S    
C100  H43   S    
C81   C90   A    
C75   C87   A    
C15   C24   T    
C45   C54   S    
C26   C30   S    
C82   C84   A    
C55   C57   A    
C98   H36   S    
C27   C36   T    
C49   C50   A    
C66   H22   S    
Cr3   O5    S    
C27   C93   S    
C95   O16   A    
C3    C4    S    
C2    C10   T    
C31   H6    S    
Cr2   O26   S    
C93   O6    A    
C101  H44   S    
C8    H18   S    
O27   C97   S    
Cr4   O19   S    
C103  H49   S    
Cr2   O20   S    
C40   C41   A    
C59   H17   S    
C30   C33   S    
C19   C21   S    
C61   H16   S    
C31   C32   S    
C58   C70   A    
C32   C35   S    
C57   C65   A    
C81   H30   S    
Cr5   O19   S    
C6    C10   S    
C6    C8    S    
C20   H2    S    
C30   C36   S    
Cr4   O14   S    
C94   O15   A    
C84   H29   S    
C17   C22   S    
C13   C17   S    
C104  H51   S    
C14   C22   T    
C62   C94   S    
C19   C24   S    
C58   C59   A    
C18   H3    S    
C80   C88   A    
C44   C95   S    
C6    C67   S    
Cr6   O11   S    
C38   H9    S    
Cr5   O8    S    
C38   C39   A    
C3    C67   S    
C28   C37   T    
Cr4   O13   S    
C64   C65   A    
C45   O3    A    
C33   C35   S    
Cr5   O16   S    
C41   H10   S    
C18   C20   S    
C60   H19   S    
C92   O9    A    
C100  H42   S    
C14   C91   S    
C11   O31   S    
C35   H5    S    
C105  H54   S    
O29   C101  S    
C26   C35   S    
C48   C52   A    
C49   H14   S    
C63   C72   A    
C98   H38   S    
C29   C31   S    
C82   C83   A    
C33   Br1   S    
Cr3   O23   S    
Cr6   O17   S    
C105  H55   S    
C76   H25   S    
C39   C48   A    
Cr4   O7    S    
C95   O17   A    
Cr1   O1    S    
C3    H31   S    
C4    C9    S    
C75   C79   A    
C21   H33   S    
C65   C70   A    
C64   C66   A    
C103  H50   S    
C34   O25   A    
