data_mof_unit_4396.cif
_audit_creation_date              2012-12-11T15:23:36-0500
_audit_creation_method            fapswitch 2.2
_symmetry_space_group_name_H-M    P1
_symmetry_Int_Tables_number       1
_space_group_crystal_system       triclinic
_cell_length_a                    6.936852
_cell_length_b                    17.531985
_cell_length_c                    19.312338
_cell_angle_alpha                 109.453805
_cell_angle_beta                  90.032894
_cell_angle_gamma                 90.63727
_cell_volume                      2214.45789053

loop_
_atom_site_label
_atom_site_type_symbol
_atom_type_description
_atom_site_fract_x
_atom_site_fract_y
_atom_site_fract_z
_atom_type_partial_charge
O1    O     O_R   0.505810 0.439670 0.562310 -0.541846
O2    O     O_R   0.169070 0.404920 0.411210 -0.505407
O3    O     O_R   0.005550 0.560330 0.437690 -0.541702
C1    C     C_R   0.338830 0.381674 0.382885 0.800065
O4    O     O_R   0.175650 0.430000 0.560110 -0.546605
O5    O     O_R   0.012170 0.585580 0.587650 -0.523061
C2    C     C_R   0.344406 0.415006 0.581932 0.747058
O6    O     O_R   0.499180 0.414420 0.412350 -0.533172
O7    O     O_3   0.341430 0.551020 0.508860 -0.360878
V1    V     V_3+5 0.063930 0.490540 0.498360 1.607428
O8    O     O_R   0.682850 0.595080 0.588790 -0.516206
C3    C     C_R   0.852961 0.618526 0.616777 0.768286
O9    O     O_R   0.676280 0.570000 0.439890 -0.550387
C4    C     C_R   0.845493 0.584778 0.418133 0.726804
V2    V     V_3+5 0.564760 0.509460 0.501640 1.592855
O10   O     O_3   0.837130 0.448980 0.491140 -0.359040
C5    C     C_R   0.756217 0.882057 0.186877 0.257375
C6    C     C_R   0.910872 0.871064 0.136262 -0.134132
C7    C     C_R   0.054447 0.814738 0.135027 -0.167901
C8    C     C_R   0.046073 0.767566 0.181346 0.056108
C9    C     C_R   0.889508 0.777266 0.230479 0.001625
C10   C     C_R   0.744757 0.834479 0.233395 0.046129
C11   C     C_R   0.189689 0.710254 0.179450 0.267759
C12   C     C_R   0.177705 0.664256 0.226183 -0.154572
C13   C     C_R   0.023473 0.673338 0.274887 0.084061
C14   C     C_R   0.877717 0.729618 0.277011 0.053616
C15   C     C_R   0.720894 0.738378 0.325886 0.059368
C16   C     C_R   0.578352 0.795799 0.328670 0.239862
C17   C     C_R   0.590975 0.842687 0.282981 -0.113771
C18   C     C_R   0.013490 0.627007 0.321691 -0.103592
C19   C     C_R   0.857039 0.634526 0.369540 -0.095287
C20   C     C_R   0.711232 0.689785 0.370927 -0.161983
H1    H     H_    0.171843 0.807291 0.096601 0.192322
H2    H     H_    0.289847 0.621052 0.224318 0.172614
H3    H     H_    0.126382 0.584192 0.320145 0.149417
H4    H     H_    0.592102 0.695293 0.408311 0.173324
H5    H     H_    0.476665 0.885201 0.286967 0.209808
C21   C     C_3   0.709957 0.774342 0.776933 -0.068032
C22   C     C_3   0.786757 0.774082 0.701286 -0.183261
H6    H     H_    0.704152 0.793416 0.660881 0.187233
H7    H     H_    0.565472 0.794468 0.800063 0.179416
C23   C     C_3   0.869040 0.688841 0.687386 -0.151410
C24   C     C_3   0.794057 0.689263 0.762312 0.412345
C25   C     C_3   0.986383 0.726577 0.799528 -0.214277
C26   C     C_3   0.060266 0.726820 0.724156 0.394026
C27   C     C_3   0.980042 0.812400 0.738159 -0.168039
C28   C     C_3   0.903459 0.811502 0.812820 -0.169753
H8    H     H_    0.069089 0.706989 0.839759 0.180125
H9    H     H_    0.058878 0.863390 0.728540 0.170938
C29   C     C_3   0.555625 0.278738 0.278064 0.247390
C30   C     C_3   0.484955 0.190874 0.263171 -0.160322
H10   H     H_    0.568945 0.143726 0.275919 0.213829
C31   C     C_3   0.413417 0.188941 0.187032 -0.194987
C32   C     C_3   0.486359 0.276158 0.201267 -0.197058
C33   C     C_3   0.288691 0.308453 0.235180 0.260102
C34   C     C_3   0.213714 0.220747 0.219612 -0.128196
C35   C     C_3   0.287543 0.224069 0.296198 0.393499
C36   C     C_3   0.358424 0.311566 0.311815 -0.194838
H11   H     H_    0.570409 0.297943 0.162502 0.177904
H12   H     H_    0.070885 0.196847 0.195596 0.179645
C37   C     C_R   0.255061 0.125293 0.821351 -0.154924
C38   C     C_R   0.416234 0.133463 0.867808 -0.085031
C39   C     C_R   0.565310 0.187658 0.865863 -0.147345
C40   C     C_R   0.553052 0.234112 0.819108 0.139605
C41   C     C_R   0.390438 0.225749 0.772839 0.028525
C42   C     C_R   0.240877 0.170342 0.773210 0.031642
C43   C     C_R   0.701855 0.288383 0.817369 -0.144169
C44   C     C_R   0.690701 0.333873 0.770191 -0.155028
C45   C     C_R   0.529807 0.326469 0.724222 0.101193
C46   C     C_R   0.378616 0.272462 0.725672 0.058694
C47   C     C_R   0.216195 0.264924 0.679767 0.036456
C48   C     C_R   0.069825 0.209145 0.679745 -0.177112
C49   C     C_R   0.082024 0.161314 0.725028 0.260793
C50   C     C_R   0.517869 0.372056 0.676768 -0.149899
C51   C     C_R   0.354939 0.365862 0.631506 -0.082484
C52   C     C_R   0.204041 0.312388 0.633787 -0.161449
H13   H     H_    0.141763 0.082943 0.822720 0.165560
H14   H     H_    0.690250 0.194242 0.901227 0.128632
H15   H     H_    0.828051 0.295134 0.852099 0.137129
H16   H     H_    0.808376 0.374822 0.769585 0.151819
H17   H     H_    0.634761 0.413265 0.675807 0.154044
H18   H     H_    0.078710 0.306553 0.598746 0.143837
H19   H     H_    0.945998 0.201975 0.643782 0.176250
O11   O     O_R   0.271890 0.085690 0.087580 -0.540925
O12   O     O_R   0.595690 0.070020 0.939870 -0.544185
O13   O     O_R   0.758900 0.914390 0.912370 -0.541887
C53   C     C_R   0.426982 0.084927 0.917912 0.695161
O14   O     O_R   0.602020 0.095100 0.088770 -0.532155
O15   O     O_R   0.765280 0.939660 0.062330 -0.513434
C54   C     C_R   0.432353 0.118724 0.116600 0.804332
O16   O     O_R   0.265520 0.060430 0.937620 -0.549131
O17   O     O_3   0.429560 0.949050 0.991100 -0.358763
V3    V     V_3+5 0.707160 0.009450 0.001650 1.510112
O18   O     O_R   0.094540 0.929890 0.060190 -0.536744
C55   C     C_R   0.925027 0.917441 0.084102 0.771377
O19   O     O_R   0.088200 0.904800 0.911290 -0.543953
C56   C     C_R   0.918350 0.881568 0.883282 0.739642
V4    V     V_3+5 0.206300 0.990390 0.998440 1.503669
O20   O     O_3   0.934030 0.050940 0.008900 -0.380632
Br1   Br    Br    0.565484 0.964982 0.196448 -0.543947
Cl1   Cl    Cl    0.669418 0.607543 0.778585 -0.607402
Cl2   Cl    Cl    0.295486 0.697160 0.689741 -0.630346
Br2   Br    Br    0.808731 0.315939 0.316320 -0.455210
Br3   Br    Br    0.152767 0.393215 0.212528 -0.527740
Cl3   Cl    Cl    0.158184 0.187270 0.358416 -0.553459
Br4   Br    Br    0.880060 0.082611 0.716215 -0.548268
Br5   Br    Br    0.405825 0.690794 0.113796 -0.521186
Br6   Br    Br    0.363122 0.814947 0.394843 -0.514282

loop_
_geom_bond_atom_site_label_1
_geom_bond_atom_site_label_2
_ccdc_geom_bond_type
C44   H16   S    
C35   Cl3   S    
C9    C14   A    
C10   C17   A    
C53   O16   A    
C32   C33   S    
O12   V3    S    
C7    C8    A    
C4    C19   S    
C1    O6    A    
C49   Br4   S    
O17   V4    S    
C31   C32   S    
C27   H9    S    
C14   C15   A    
C29   C32   S    
C18   H3    S    
C20   H4    S    
C16   C17   A    
O5    C3    A    
C18   C19   A    
O18   V4    S    
C41   C46   A    
C34   C35   S    
C6    C7    A    
O13   C56   A    
C3    C23   S    
O14   V3    S    
O8    V2    S    
C37   C42   A    
O18   C55   A    
C37   H13   S    
C44   C45   A    
O19   V4    S    
C11   C12   A    
C46   C47   A    
C30   C35   S    
O7    V1    S    
V3    O20   S    
C25   C28   S    
C29   Br2   S    
O9    C4    A    
C6    C55   S    
C45   C46   A    
O11   C54   A    
O4    V1    S    
C5    C6    A    
C22   C23   S    
C32   H11   S    
O12   C53   A    
C21   C22   S    
C50   C51   A    
C30   H10   S    
C29   C36   S    
C40   C43   A    
C43   H15   S    
C12   C13   A    
C21   H7    S    
C7    H1    S    
C52   H18   S    
C22   H6    S    
O4    C2    A    
C2    C51   S    
C13   C14   A    
C26   C27   S    
C42   C49   A    
C33   Br3   S    
C12   H2    S    
C43   C44   A    
C30   C31   S    
C23   C26   S    
O15   C55   A    
O2    C1    A    
C51   C52   A    
C24   Cl1   S    
C38   C39   A    
O13   V3    S    
C19   C20   A    
C8    C11   A    
C11   Br5   S    
O19   C56   A    
C33   C34   S    
C29   C30   S    
C45   C50   A    
C21   C28   S    
O3    C4    A    
C22   C27   S    
O1    V2    S    
O14   C54   A    
V4    O20   S    
O6    V2    S    
O9    V2    S    
C24   C25   S    
C23   C24   S    
C50   H17   S    
C17   H5    S    
O2    V1    S    
C31   C54   S    
C25   C26   S    
C31   C34   S    
C13   C18   A    
C27   C28   S    
C15   C20   A    
O1    C2    A    
C48   C49   A    
O5    V1    S    
O8    C3    A    
C38   C53   S    
C5    C10   A    
C28   C56   S    
O11   V4    S    
C40   C41   A    
O7    V2    S    
C21   C24   S    
O3    V1    S    
V1    O10   S    
C35   C36   S    
C47   C52   A    
C16   Br6   S    
V2    O10   S    
O17   V3    S    
O16   V4    S    
O15   V3    S    
C37   C38   A    
C5    Br1   S    
C48   H19   S    
C26   Cl2   S    
C39   C40   A    
C34   H12   S    
C47   C48   A    
C8    C9    A    
C41   C42   A    
C33   C36   S    
C1    C36   S    
C15   C16   A    
C9    C10   A    
C25   H8    S    
C39   H14   S    
