data_mof_unit_1515.cif
_audit_creation_date              2013-03-05T15:52:26-0500
_audit_creation_method            fapswitch 2.2
_symmetry_space_group_name_H-M    P1
_symmetry_Int_Tables_number       1
_space_group_crystal_system       triclinic
_cell_length_a                    27.741757
_cell_length_b                    10.80643
_cell_length_c                    9.686038
_cell_angle_alpha                 91.046678
_cell_angle_beta                  90.953428
_cell_angle_gamma                 93.579368
_cell_volume                      2897.16306293

loop_
_atom_site_label
_atom_site_type_symbol
_atom_site_description
_atom_site_fract_x
_atom_site_fract_y
_atom_site_fract_z
_atom_type_partial_charge
O1    O     O_R   0.500000 0.319640 0.618810 -0.590811
O2    O     O_R   0.500000 0.319660 0.381240 -0.462095
C1    C     C_R   0.506656 0.265118 0.499291 0.872538
O3    O     O_R   0.430260 0.500010 0.618770 -0.591513
O4    O     O_R   0.430270 0.500030 0.381200 -0.513193
C2    C     C_R   0.407723 0.500352 0.499174 0.830283
Cu1   Cu    Cu3+1 0.500000 0.499990 0.640660 0.940481
Cu2   Cu    Cu3+1 0.500000 0.500010 0.359340 1.053249
O5    O     O_R   0.500000 0.680340 0.618760 -0.612855
O6    O     O_R   0.500000 0.680360 0.381190 -0.611000
O7    O     O_R   0.569730 0.499970 0.618800 -0.615057
O8    O     O_R   0.569740 0.499990 0.381230 -0.581711
C3    C     C_R   0.499245 0.738378 0.502077 0.785780
C4    C     C_R   0.592417 0.500806 0.501099 0.761652
C5    C     C_R   0.175368 0.398857 0.452952 0.555260
O9    O     O_2   0.198588 0.300046 0.408894 -0.526971
N1    N     N_R   0.202236 0.502966 0.497020 -0.469389
C6    C     C_R   0.181245 0.606724 0.542132 0.540319
C7    C     C_R   0.280168 0.561151 0.392032 -0.093017
C8    C     C_R   0.330449 0.560528 0.392417 -0.136728
C9    C     C_R   0.328366 0.444388 0.604505 -0.192528
C10   C     C_R   0.278110 0.444620 0.603645 -0.091938
C11   C     C_R   0.253900 0.502790 0.497357 0.345029
C12   C     C_R   0.102078 0.501294 0.505922 -0.081664
C13   C     C_R   0.124150 0.395181 0.454575 -0.040648
C14   C     C_R   0.094021 0.292156 0.404247 0.141111
C15   C     C_R   0.130912 0.608164 0.547133 -0.013470
C16   C     C_R   0.354847 0.501337 0.498118 -0.035061
H1    H     H_    0.346498 0.398550 0.687306 0.173077
H2    H     H_    0.257916 0.399811 0.685543 0.149959
C17   C     C_R   0.645550 0.502166 0.504011 -0.031771
C18   C     C_R   0.971934 0.386867 0.510413 -0.088548
C19   C     C_R   0.978027 0.613903 0.546832 0.059077
C20   C     C_R   0.949631 0.500821 0.527113 0.035834
C21   C     C_R   0.942505 0.274050 0.520142 0.402794
C22   C     C_R   0.892268 0.277318 0.512539 -0.164873
C23   C     C_R   0.870035 0.389834 0.511667 -0.107880
C24   C     C_R   0.898564 0.501759 0.524481 -0.046794
C25   C     C_R   0.875943 0.614677 0.534388 -0.014056
C26   C     C_R   0.825314 0.613476 0.528610 0.541499
N2    N     N_R   0.798326 0.503621 0.514040 -0.470937
C27   C     C_R   0.819499 0.392866 0.506034 0.577372
C28   C     C_R   0.721509 0.515100 0.633420 -0.098372
C29   C     C_R   0.671228 0.513839 0.630502 -0.224446
C30   C     C_R   0.671159 0.491992 0.380616 -0.182937
C31   C     C_R   0.721472 0.492649 0.383984 -0.108539
C32   C     C_R   0.746713 0.504218 0.510333 0.352756
O10   O     O_2   0.791690 0.286086 0.493686 -0.515139
C33   C     C_R   0.022268 0.391780 0.484580 0.024498
C34   C     C_R   0.051066 0.501361 0.515668 0.073255
C35   C     C_R   0.029102 0.611630 0.554148 0.054254
C36   C     C_R   0.043891 0.294151 0.417152 -0.084097
H3    H     H_    0.652559 0.522187 0.727220 0.167523
H4    H     H_    0.740946 0.523903 0.731344 0.142654
H5    H     H_    0.870361 0.190783 0.514552 0.234825
H6    H     H_    0.021379 0.219647 0.369985 0.194498
O11   O     O_2   0.209170 0.707960 0.583111 -0.527318
C37   C     C_R   0.109042 0.714084 0.593538 -0.127778
H7    H     H_    0.350293 0.607870 0.311545 0.180035
H8    H     H_    0.261583 0.607001 0.310191 0.147860
H9    H     H_    0.130517 0.796599 0.627365 0.194703
C38   C     C_R   0.954302 0.725678 0.556334 -0.190150
C39   C     C_R   0.904216 0.725912 0.549579 -0.117008
O12   O     O_2   0.803196 0.721027 0.537200 -0.520729
C40   C     C_R   0.059086 0.716349 0.596057 -0.192476
H10   H     H_    0.973667 0.815140 0.564297 0.189298
H11   H     H_    0.652388 0.482942 0.281654 0.181565
H12   H     H_    0.887734 0.814074 0.556057 0.216546
H13   H     H_    0.740891 0.484182 0.288556 0.143700
H14   H     H_    0.044914 0.800599 0.635030 0.164423
C41   C     C_R   0.546589 0.133986 0.738476 -0.163808
H15   H     H_    0.565296 0.224409 0.729455 0.162004
C42   C     C_R   0.548715 0.076142 0.864082 -0.025846
H16   H     H_    0.568674 0.123770 0.947345 0.234460
C43   C     C_R   0.523880 0.961557 0.881205 -0.055384
H17   H     H_    0.521594 0.920218 0.981861 0.205005
C44   C     C_R   0.503020 0.897442 0.766902 -0.194959
H18   H     H_    0.482699 0.811879 0.787547 0.182194
C45   C     C_R   0.508431 0.946052 0.632832 0.098949
C46   C     C_R   0.523196 0.072879 0.624417 0.047181
C47   C     C_R   0.517603 0.133467 0.499239 -0.239477
C48   C     C_R   0.518585 0.063049 0.377197 0.427630
H19   H     H_    0.509615 0.882890 0.285062 0.204577
C49   C     C_R   0.508983 0.935512 0.381240 -0.282839
C50   C     C_R   0.502088 0.875131 0.507183 -0.167432
C51   C     C_R   0.567161 0.659575 0.148827 -0.127886
H20   H     H_    0.568561 0.672057 0.257914 0.190195
C52   C     C_R   0.601139 0.733854 0.079630 -0.165187
H21   H     H_    0.627162 0.794126 0.137279 0.168104
C53   C     C_R   0.601001 0.733575 0.937181 -0.196603
H22   H     H_    0.626671 0.794254 0.883623 0.169259
C54   C     C_R   0.566967 0.658623 0.862864 -0.155341
H23   H     H_    0.567847 0.669835 0.754123 0.202684
C55   C     C_R   0.533152 0.577310 0.928633 0.170742
C56   C     C_R   0.533281 0.577250 0.077613 0.134360
N3    N     N_R   0.500460 0.501210 0.147910 -0.255982
C57   C     C_R   0.467069 0.427422 0.066944 0.524379
H24   H     H_    0.442218 0.371215 0.859231 0.204508
C58   C     C_R   0.468418 0.427487 0.920506 -0.088382
N4    N     N_R   0.500480 0.501290 0.852040 -0.244738
S1    S     S_3+6 0.545090 0.123300 0.227493 -0.033081
O13   O     O_2   0.505485 0.149262 0.126604 -0.258555
O14   O     O_2   0.576188 0.240095 0.256820 -0.301764
O15   O     O_3   0.580161 0.015972 0.162248 -0.610792
H25   H     H_    0.606025 0.008337 0.232754 0.351206
S2    S     S_3+6 0.414753 0.342248 0.128571 0.043512
O16   O     O_2   0.421509 0.278070 0.262439 -0.240747
O17   O     O_2   0.375300 0.430366 0.142958 -0.334214
O18   O     O_3   0.396264 0.232431 0.010462 -0.545881
H26   H     H_    0.363692 0.201930 0.039911 0.383078
C59   C     C_3   0.113142 0.179281 0.334782 -0.685133
H27   H     H_    0.083658 0.112188 0.297086 0.215498
H28   H     H_    0.134668 0.207343 0.243643 0.248584
H29   H     H_    0.135361 0.129342 0.409220 0.265534
S3    S     S_3+6 0.964318 0.131111 0.574688 -0.032997
O19   O     O_2   0.968688 0.045885 0.451766 -0.334414
O20   O     O_2   0.012401 0.151197 0.648257 -0.290259
O21   O     O_3   0.924474 0.063845 0.683661 -0.523935
H30   H     H_    0.939994 0.989732 0.717321 0.367778

loop_
_geom_bond_atom_site_label_1
_geom_bond_atom_site_label_2
_geom_bond_distance
_ccdc_geom_bond_type
S1    O13   1.501205 D    
N2    C27   1.367264 A    
C56   N3    1.384020 A    
Cu2   N3    2.048444 S    
C12   C15   1.410728 A    
C4    C17   1.472953 S    
C28   C29   1.393907 A    
C47   C48   1.395694 A    
Cu1   Cu2   2.724880 S    
C44   H18   1.076176 S    
Cu1   O7    1.949498 S    
N1    C11   1.433312 S    
C22   C23   1.397409 A    
C23   C24   1.405848 A    
C35   C40   1.411293 A    
O4    C2    1.311836 A    
O7    C4    1.311282 A    
C51   C52   1.388612 A    
C5    C13   1.419314 A    
S2    O16   1.496133 D    
C40   H14   1.078449 S    
C5    N1    1.367724 A    
C42   H16   1.075321 S    
C23   C27   1.404569 A    
O5    C3    1.303033 A    
O21   H30   0.990473 S    
O15   H25   0.990546 S    
C31   H13   1.082867 S    
C37   C40   1.388214 A    
C31   C32   1.399518 A    
C29   H3    1.082989 S    
C2    C16   1.467460 S    
H19   C49   1.083486 S    
C19   C38   1.413467 A    
S3    O20   1.503591 D    
C1    C47   1.473147 S    
C21   S3    1.779652 S    
C33   C36   1.402263 A    
C37   H9    1.083476 S    
S1    O14   1.503566 D    
O1    Cu1   1.956550 S    
C9    C10   1.394235 A    
C42   C43   1.392918 A    
O3    Cu1   1.942800 S    
C41   C46   1.404904 A    
C57   C58   1.419530 A    
N1    C6    1.363581 A    
C44   C45   1.416480 A    
C12   C34   1.419902 A    
Cu1   N4    2.047043 S    
C38   H10   1.077145 S    
C18   C21   1.429766 A    
C49   C50   1.404194 A    
O3    C2    1.307350 A    
C17   C29   1.406616 A    
C25   C26   1.403961 A    
C41   C42   1.380002 A    
C51   H20   1.062509 S    
C8    C16   1.403694 A    
C34   C35   1.418499 A    
C13   C14   1.423444 A    
C30   C31   1.395156 A    
C9    H1    1.083436 S    
O6    C3    1.319162 A    
O1    C1    1.310419 A    
C21   C22   1.397057 A    
C18   C20   1.420079 A    
C7    C11   1.400154 A    
C43   H17   1.081002 S    
C30   H11   1.083140 S    
C38   C39   1.390086 A    
C14   C36   1.399833 A    
C6    O11   1.350044 S    
C53   C54   1.387901 A    
C58   N4    1.348105 A    
C55   N4    1.381730 A    
Cu2   O8    1.942795 S    
S3    O21   1.682507 S    
N3    C57   1.403456 A    
C54   C55   1.412578 A    
C19   C20   1.420085 A    
N2    C32   1.432119 S    
C59   H28   1.110223 S    
C27   O10   1.349703 S    
C12   C13   1.419229 A    
C8    H7    1.082692 S    
C43   C44   1.393293 A    
C57   S2    1.786601 S    
C26   N2    1.367169 A    
C9    C16   1.404344 A    
C52   C53   1.379659 A    
H24   C58   1.080560 S    
S1    O15   1.680995 S    
C48   C49   1.388690 A    
C45   C50   1.428809 A    
Cu1   O5    1.964298 S    
C39   H12   1.083432 S    
C10   H2    1.082832 S    
C59   H27   1.111015 S    
C20   C24   1.417169 A    
O2    Cu2   1.964298 S    
C6    C15   1.399004 A    
O8    C4    1.310921 A    
C46   C47   1.399384 A    
C15   C37   1.399034 A    
O4    Cu2   1.949501 S    
C7    H8    1.082763 S    
C19   C35   1.419253 A    
C25   C39   1.397767 A    
C26   O12   1.349609 S    
C7    C8    1.395260 A    
O2    C1    1.311546 A    
C41   H15   1.083093 S    
C22   H5    1.083656 S    
O18   H26   0.990609 S    
C53   H22   1.082876 S    
C24   C25   1.409019 A    
S2    O17   1.501482 D    
C54   H23   1.062912 S    
C48   S1    1.754264 S    
C59   H29   1.109948 S    
C55   C56   1.442975 A    
C28   H4    1.082925 S    
C18   C33   1.420593 A    
C51   C56   1.415019 A    
C45   C46   1.409937 A    
C36   H6    1.077618 S    
C52   H21   1.082493 S    
Cu2   O6    1.956550 S    
C33   C34   1.411400 A    
C17   C30   1.406614 A    
C3    C50   1.474871 S    
C10   C11   1.399811 A    
S3    O19   1.503065 D    
C28   C32   1.398932 A    
C14   C59   1.511499 S    
C5    O9    1.347444 S    
S2    O18   1.683766 S    
