data_mof_unit_612.cif
_audit_creation_date              2013-03-05T16:18:40-0500
_audit_creation_method            fapswitch 2.2
_symmetry_space_group_name_H-M    P1
_symmetry_Int_Tables_number       1
_space_group_crystal_system       triclinic
_cell_length_a                    15.726203
_cell_length_b                    10.647012
_cell_length_c                    9.712262
_cell_angle_alpha                 89.412874
_cell_angle_beta                  90.267878
_cell_angle_gamma                 89.841377
_cell_volume                      1626.08311

loop_
_atom_site_label
_atom_site_type_symbol
_atom_site_description
_atom_site_fract_x
_atom_site_fract_y
_atom_site_fract_z
_atom_type_partial_charge
O1    O     O_R   0.499980 0.314910 0.616040 -0.600550
O2    O     O_R   0.500040 0.314680 0.383960 -0.639660
C1    C     C_R   0.499150 0.257658 0.500714 0.865306
O3    O     O_R   0.376750 0.500100 0.616020 -0.628376
O4    O     O_R   0.376810 0.499870 0.383940 -0.625811
C2    C     C_R   0.337834 0.500039 0.499651 0.896936
Zn1   Zn    Zn3+2 0.499960 0.500150 0.654960 0.951837
Zn2   Zn    Zn3+2 0.500040 0.499850 0.345040 0.946908
O5    O     O_R   0.499960 0.685320 0.616040 -0.649203
O6    O     O_R   0.500020 0.685090 0.383960 -0.597904
O7    O     O_R   0.623190 0.500130 0.616060 -0.600236
O8    O     O_R   0.623250 0.499900 0.383980 -0.600861
C3    C     C_R   0.500071 0.742553 0.499547 0.852589
C4    C     C_R   0.662139 0.500126 0.500311 0.943446
C5    C     C_3   0.972373 0.396634 0.563984 -0.195417
C6    C     C_3   0.028519 0.396206 0.432885 -0.233956
H1    H     H_    0.053086 0.312406 0.378631 0.163456
H2    H     H_    0.947804 0.312359 0.618866 0.176638
C7    C     C_1   0.248951 0.500014 0.498806 -0.199111
C8    C     C_1   0.750971 0.500183 0.500742 -0.101823
C9    C     C_3   0.028761 0.500048 0.628205 -0.108720
C10   C     C_3   0.082870 0.500059 0.497145 0.133736
C11   C     C_3   0.972044 0.603592 0.561757 -0.197446
C12   C     C_3   0.917038 0.500179 0.497888 0.079608
C13   C     C_3   0.028189 0.604043 0.430650 -0.224860
C14   C     C_3   0.972456 0.500189 0.369990 0.371077
C15   C     C_1   0.173674 0.500017 0.497982 -0.036566
C16   C     C_1   0.826219 0.500203 0.499922 0.040760
H3    H     H_    0.052489 0.687851 0.374588 0.163272
H4    H     H_    0.947215 0.687868 0.614813 0.171241
H5    H     H_    0.054273 0.499984 0.734988 0.169665
C17   C     C_3   0.488615 0.069811 0.650061 -0.360575
H6    H     H_    0.427906 0.103929 0.695206 0.180017
H7    H     H_    0.541811 0.102380 0.716184 0.257642
C18   C     C_3   0.489301 0.927128 0.649122 -0.459485
H8    H     H_    0.542341 0.892613 0.716065 0.199890
H9    H     H_    0.428803 0.891703 0.694221 0.194357
H10   H     H_    0.363533 0.110462 0.448190 0.152087
H11   H     H_    0.363119 0.896626 0.459979 0.153094
C19   C     C_3   0.425319 0.073335 0.410324 -0.382713
C20   C     C_3   0.585372 0.074922 0.443585 -0.427822
C21   C     C_3   0.499437 0.121572 0.501433 0.086167
H12   H     H_    0.595749 0.114596 0.338541 0.226757
H13   H     H_    0.638628 0.109407 0.508961 0.161514
C22   C     C_3   0.500175 0.879115 0.499109 0.043506
C23   C     C_3   0.423771 0.929315 0.413176 -0.370876
C24   C     C_3   0.586574 0.930094 0.442412 0.182595
H14   H     H_    0.637838 0.897699 0.514276 0.092877
H15   H     H_    0.433034 0.106502 0.302020 0.206001
H16   H     H_    0.424563 0.892967 0.306380 0.213808
C25   C     C_3   0.432357 0.413986 0.082020 -0.237035
H17   H     H_    0.368907 0.439733 0.123209 0.160071
H18   H     H_    0.445066 0.316066 0.117598 0.183189
C26   C     C_3   0.429101 0.418582 0.919688 -0.235777
H19   H     H_    0.431036 0.322430 0.876972 0.191503
H20   H     H_    0.366487 0.457432 0.886235 0.153513
H21   H     H_    0.418528 0.661236 0.112603 0.159672
H22   H     H_    0.424635 0.665221 0.872988 0.176876
C27   C     C_3   0.481614 0.626367 0.078103 -0.242710
C28   C     C_3   0.581473 0.457467 0.084564 -0.256602
N1    N     N_3   0.498170 0.499750 0.138610 -0.076271
H23   H     H_    0.632145 0.523136 0.118610 0.179043
H24   H     H_    0.598437 0.365222 0.132013 0.205309
N2    N     N_3   0.498850 0.496730 0.861320 -0.096782
C29   C     C_3   0.484817 0.625458 0.915776 -0.330011
C30   C     C_3   0.581583 0.451875 0.922028 0.284038
H25   H     H_    0.632650 0.516326 0.885493 0.103598
H26   H     H_    0.529532 0.693711 0.117215 0.230517
H27   H     H_    0.536455 0.688943 0.880039 0.173617
N3    N     N_R   0.606699 0.883494 0.304374 0.214589
O9    O     O_R   0.670849 0.807707 0.288175 -0.388377
O10   O     O_R   0.565275 0.923729 0.196186 -0.414123
N4    N     N_R   0.603566 0.324870 0.875697 0.216832
O11   O     O_R   0.568383 0.226548 0.931944 -0.442954
O12   O     O_R   0.669788 0.308624 0.798010 -0.387593
N5    N     N_R   0.942475 0.500280 0.227737 0.211558
O13   O     O_R   0.997180 0.500228 0.127767 -0.396850
O14   O     O_R   0.861550 0.500461 0.199597 -0.373658

loop_
_geom_bond_atom_site_label_1
_geom_bond_atom_site_label_2
_geom_bond_distance
_ccdc_geom_bond_type
C5    H2    1.110204 S    
H10   C19   1.113477 S    
C1    C21   1.448852 S    
N4    O12   1.301083 A    
C20   C21   1.548497 S    
C18   H8    1.114387 S    
C25   N1    1.489063 S    
C22   C23   1.550445 S    
C19   C23   1.533610 S    
C2    C7    1.397788 S    
C9    H5    1.110238 S    
C28   H24   1.111866 S    
C18   H9    1.114338 S    
C12   C14   1.520744 S    
O4    C2    1.282626 A    
O7    C4    1.282735 A    
H21   C27   1.112654 S    
C19   H15   1.113407 S    
C28   H23   1.112911 S    
N4    O11   1.301829 A    
O5    C3    1.279573 A    
C6    H1    1.110224 S    
C10   C13   1.535302 S    
C14   N5    1.457737 S    
C11   C12   1.536103 S    
N3    O9    1.301224 A    
C7    C15   1.183805 T    
Zn2   N1    2.004992 S    
C19   C21   1.551882 S    
C30   H25   1.114671 S    
C28   C30   1.580340 S    
C9    C10   1.534420 S    
C13   H3    1.110224 S    
C20   H12   1.113106 S    
O3    Zn1   1.972457 S    
C22   C24   1.564901 S    
C6    C14   1.533582 S    
C26   H20   1.112772 S    
C27   N1    1.486897 S    
C25   H17   1.111443 S    
C17   C18   1.519286 S    
C4    C8    1.396968 S    
N5    O13   1.300255 A    
O3    C2    1.282751 A    
C8    C16   1.183435 T    
C13   C14   1.533567 S    
C30   N4    1.470307 S    
C28   N1    1.484046 S    
O1    C1    1.280705 A    
C17   H7    1.110711 S    
Zn1   O7    1.976157 S    
C11   H4    1.110195 S    
C24   N3    1.469832 S    
C27   H26   1.110029 S    
H22   C29   1.112721 S    
C24   H14   1.115498 S    
Zn2   O8    1.972457 S    
C20   C24   1.542207 S    
H11   C23   1.113638 S    
C5    C12   1.536128 S    
O8    C4    1.282256 A    
C10   C15   1.427989 S    
C9    C11   1.549855 S    
C20   H13   1.113959 S    
C18   C22   1.558984 S    
Zn1   O5    2.003610 S    
C26   H19   1.108932 S    
C6    C10   1.535290 S    
O1    Zn1   2.011950 S    
O2    Zn2   2.003611 S    
C12   C16   1.428468 S    
N5    O14   1.300398 A    
O6    C3    1.283997 A    
O4    Zn2   1.976157 S    
C23   H16   1.110896 S    
C25   C26   1.577449 S    
C17   H6    1.113970 S    
O2    C1    1.280899 A    
N2    C29   1.490357 S    
C3    C22   1.453943 S    
C26   N2    1.489301 S    
C29   H27   1.112512 S    
C11   C13   1.552884 S    
Zn1   N2    2.004338 S    
C5    C9    1.549845 S    
Zn2   O6    2.011950 S    
C17   C21   1.550135 S    
N3    O10   1.301840 A    
C25   H18   1.112240 S    
C27   C29   1.577727 S    
C5    C6    1.552891 S    
N2    C30   1.500715 S    
