data_mof_unit_2972.cif
_audit_creation_date              2012-12-10T17:37:46-0500
_audit_creation_method            fapswitch 2.2
_symmetry_space_group_name_H-M    P1
_symmetry_Int_Tables_number       1
_space_group_crystal_system       triclinic
_cell_length_a                    12.304268
_cell_length_b                    13.157775
_cell_length_c                    17.377276
_cell_angle_alpha                 104.663973
_cell_angle_beta                  75.140671
_cell_angle_gamma                 116.51669
_cell_volume                      2401.71772796

loop_
_atom_site_label
_atom_site_type_symbol
_atom_type_description
_atom_site_fract_x
_atom_site_fract_y
_atom_site_fract_z
_atom_type_partial_charge
C1    C     C_R   0.144481 0.713687 0.507196 0.801719
C2    C     C_R   0.960108 0.589297 0.792762 -0.260414
C3    C     C_R   0.977875 0.561744 0.158984 -0.201807
C4    C     C_R   0.988574 0.577099 0.239345 0.422200
C5    C     C_R   0.041828 0.411440 0.207160 -0.258811
C6    C     C_R   0.032707 0.398452 0.126967 -0.150729
C7    C     C_R   0.000778 0.473390 0.102549 0.099993
C8    C     C_2   0.013570 0.544081 0.981444 -0.192321
C9    C     C_2   0.989504 0.456197 0.017924 -0.191182
C10   C     C_R   0.017918 0.498917 0.263986 -0.155529
C11   C     C_R   0.733550 0.975040 0.393433 -0.169422
C12   C     C_R   0.985988 0.499806 0.651362 0.845427
C13   C     C_R   0.774428 0.164542 0.471584 -0.021653
C14   C     C_R   0.179323 0.916878 0.558414 -0.154818
C15   C     C_R   0.256786 0.032435 0.573591 -0.119122
C16   C     C_R   0.382611 0.069238 0.545571 -0.184853
C17   C     C_R   0.433408 0.990805 0.498475 0.075268
C18   C     C_R   0.351863 0.875613 0.474913 0.081808
C19   C     C_R   0.562276 0.023127 0.473186 0.070431
C20   C     C_R   0.606580 0.944077 0.418773 0.157747
C21   C     C_R   0.523712 0.836120 0.388645 -0.228817
C22   C     C_R   0.398246 0.802998 0.415176 -0.177348
C23   C     C_R   0.855940 0.286231 0.487956 0.831983
C24   C     C_R   0.648816 0.131541 0.500954 -0.236728
C25   C     C_R   0.817237 0.085249 0.419268 -0.173815
C26   C     C_R   0.225853 0.836930 0.511109 -0.069737
C27   C     C_R   0.642289 0.674564 0.628784 -0.273691
C28   C     C_R   0.249769 0.351973 0.390382 0.102208
C29   C     C_R   0.348320 0.319588 0.367103 -0.236409
C30   C     C_R   0.448299 0.375393 0.408292 -0.171462
C31   C     C_R   0.450834 0.464780 0.473830 -0.003328
C32   C     C_R   0.347324 0.494687 0.495664 0.316703
C33   C     C_R   0.551365 0.525198 0.518659 -0.032645
C34   C     C_R   0.014089 0.500251 0.348615 0.842407
C35   C     C_R   0.545989 0.613778 0.583895 0.165089
C36   C     C_R   0.444403 0.641145 0.604316 -0.261417
C37   C     C_R   0.347328 0.582734 0.561504 -0.137739
C38   C     C_R   0.657801 0.502081 0.502038 0.088282
C39   C     C_R   0.743981 0.647547 0.609349 0.098003
C40   C     C_R   0.982517 0.501141 0.735899 -0.143604
C41   C     C_R   0.011397 0.422433 0.760258 0.395431
C42   C     C_R   0.023079 0.437886 0.840430 -0.216669
C43   C     C_R   0.001658 0.526916 0.896940 0.116574
C44   C     C_R   0.970205 0.602395 0.872768 -0.151555
Cu1   Cu    Cu3+1 0.900140 0.524980 0.518800 0.994635
Cu2   Cu    Cu3+1 0.099860 0.475020 0.481200 0.979433
H1    H     H_    0.049959 0.329487 0.083964 0.142303
H2    H     H_    0.914487 0.109776 0.395875 0.152330
H3    H     H_    0.767812 0.915073 0.351824 0.153339
H4    H     H_    0.083019 0.889731 0.585412 0.164834
H5    H     H_    0.436888 0.160087 0.560277 0.137224
H6    H     H_    0.219619 0.093535 0.609532 0.181217
H7    H     H_    0.338490 0.720802 0.386341 0.184524
H8    H     H_    0.818795 0.694214 0.643621 0.117481
H9    H     H_    0.439479 0.708488 0.654385 0.155136
H10   H     H_    0.638830 0.742514 0.678648 0.148763
H11   H     H_    0.669951 0.436576 0.453479 0.118698
H12   H     H_    0.172474 0.308017 0.358186 0.115694
H13   H     H_    0.521950 0.346735 0.387693 0.139619
H14   H     H_    0.347183 0.250916 0.316974 0.153359
H15   H     H_    0.273742 0.609655 0.582799 0.194601
H16   H     H_    0.063712 0.350704 0.225348 0.160026
H17   H     H_    0.962217 0.368981 0.985080 0.156462
H18   H     H_    0.949265 0.617761 0.141033 0.182398
H19   H     H_    0.040870 0.631267 0.014362 0.156567
H20   H     H_    0.051195 0.381389 0.858186 0.153348
N1    N     N_R   0.749710 0.562810 0.547300 -0.180943
N2    N     N_R   0.249640 0.437820 0.453210 -0.202905
O1    O     O_R   0.025490 0.682370 0.523640 -0.553861
O2    O     O_R   0.194150 0.640180 0.491890 -0.633064
O3    O     O_R   0.905900 0.523560 0.631310 -0.600406
O4    O     O_R   0.074570 0.481370 0.599560 -0.546918
O5    O     O_R   0.805850 0.359820 0.508110 -0.611028
O6    O     O_R   0.974510 0.317630 0.476360 -0.558133
O7    O     O_R   0.925430 0.518630 0.400440 -0.528502
O8    O     O_R   0.094100 0.476440 0.368690 -0.614609
S1    S     S_3+6 0.029446 0.301756 0.694090 0.004435
O9    O     O_2   0.934694 0.247522 0.639309 -0.266477
O10   O     O_2   0.155736 0.339733 0.643722 -0.308766
O11   O     O_3   0.011777 0.202658 0.746754 -0.534415
H21   H     H_    0.095309 0.222695 0.756669 0.340258
H22   H     H_    0.555969 0.776848 0.344266 0.160931
H23   H     H_    0.621090 0.193159 0.545043 0.151747
S2    S     S_3+6 0.968309 0.696854 0.305323 -0.007497
O12   O     O_2   0.841333 0.656990 0.354628 -0.293524
O13   O     O_2   0.062648 0.752267 0.360445 -0.307868
O14   O     O_3   0.984238 0.794420 0.251980 -0.559396
H24   H     H_    0.968832 0.856425 0.292841 0.368658
H25   H     H_    0.954047 0.671849 0.915822 0.144008
H26   H     H_    0.938689 0.650449 0.774718 0.160643

loop_
_geom_bond_atom_site_label_1
_geom_bond_atom_site_label_2
_ccdc_geom_bond_type
O14   H24   S    
Cu1   O3    S    
C41   C42   A    
C35   C36   A    
C18   C26   A    
S2    O14   S    
Cu2   O8    S    
C14   H4    S    
Cu1   Cu2   S    
C36   C37   A    
C28   N2    A    
C24   H23   S    
S2    O13   D    
C3    C7    A    
C41   S1    S    
C30   C31   A    
C39   H8    S    
C11   C25   A    
C15   C16   A    
C13   C23   S    
Cu1   O5    S    
C2    H26   S    
C33   C35   A    
C19   C20   A    
C2    C44   A    
C8    C9    D    
Cu1   N1    S    
C16   H5    S    
Cu2   O4    S    
S1    O9    D    
C34   O7    A    
C32   N2    A    
C12   O4    A    
C8    H19   S    
C9    H17   S    
C21   C22   A    
C13   C25   A    
C23   O5    A    
C22   H7    S    
S1    O10   D    
C11   C20   A    
C6    H1    S    
Cu1   O1    S    
S2    O12   D    
C27   C39   A    
C27   H10   S    
C16   C17   A    
C27   C35   A    
C32   C37   A    
C1    O1    A    
C13   C24   A    
C12   C40   S    
C43   C44   A    
Cu2   N2    S    
C29   C30   A    
C11   H3    S    
C38   H11   S    
C31   C32   A    
C4    S2    S    
C29   H14   S    
C30   H13   S    
C20   C21   A    
C31   C33   A    
C17   C18   A    
C10   C34   S    
C15   H6    S    
C14   C26   A    
C25   H2    S    
C40   C41   A    
C12   O3    A    
C1    C26   S    
C42   C43   A    
C23   O6    A    
C4    C10   A    
C3    C4    A    
Cu2   O6    S    
S1    O11   S    
C7    C9    S    
C28   C29   A    
C18   C22   A    
C39   N1    A    
C1    O2    A    
O11   H21   S    
C37   H15   S    
C6    C7    A    
C28   H12   S    
C33   C38   A    
Cu1   O7    S    
C19   C24   A    
C5    C10   A    
C36   H9    S    
C21   H22   S    
C5    C6    A    
C8    C43   S    
C17   C19   A    
C5    H16   S    
C3    H18   S    
Cu2   O2    S    
C2    C40   A    
C38   N1    A    
C42   H20   S    
C14   C15   A    
C44   H25   S    
C34   O8    A    
