data_mof_unit_178.cif
_audit_creation_date              2012-12-10T17:07:44-0500
_audit_creation_method            fapswitch 2.2
_symmetry_space_group_name_H-M    P1
_symmetry_Int_Tables_number       1
_space_group_crystal_system       triclinic
_cell_length_a                    10.748312
_cell_length_b                    10.647048
_cell_length_c                    10.093883
_cell_angle_alpha                 89.974245
_cell_angle_beta                  89.458914
_cell_angle_gamma                 90.72444
_cell_volume                      1154.97767768

loop_
_atom_site_label
_atom_site_type_symbol
_atom_type_description
_atom_site_fract_x
_atom_site_fract_y
_atom_site_fract_z
_atom_type_partial_charge
C1    C     C_R   0.499949 0.262862 0.499638 0.894402
C2    C     C_2   0.550799 0.587828 0.072302 0.189310
C3    C     C_R   0.258555 0.492921 0.499473 0.973895
C4    C     C_R   0.488352 0.736344 0.500649 0.947848
C5    C     C_R   0.741894 0.495846 0.498745 0.925889
C6    C     C_3   0.071762 0.373420 0.582059 -0.132548
C7    C     C_3   0.924668 0.370266 0.580597 0.323246
C8    C     C_3   0.075083 0.608923 0.565024 0.179675
C9    C     C_3   0.074606 0.477218 0.345620 0.623397
C10   C     C_3   0.122271 0.485876 0.495439 -0.091570
C11   C     C_3   0.876659 0.555101 0.229426 -0.849601
C12   C     C_3   0.878655 0.490667 0.494989 -0.059970
C13   C     C_3   0.883734 0.740617 0.499443 -0.840848
C14   C     C_3   0.319574 0.878773 0.313504 -0.811184
C15   C     C_3   0.390997 0.435734 0.902674 -0.621723
C16   C     C_3   0.589071 0.713028 0.127322 -0.811797
C17   C     C_3   0.137137 0.245374 0.564373 -0.917877
C18   C     C_3   0.870917 0.244123 0.523947 -0.853435
C19   C     C_3   0.880349 0.369794 0.729103 -0.881797
C20   C     C_3   0.119998 0.358859 0.267605 -0.826059
C21   C     C_3   0.931475 0.615632 0.557940 -0.084115
C22   C     C_3   0.929608 0.475546 0.346097 -0.072757
C23   C     C_2   0.403375 0.934705 0.418024 0.221867
C24   C     C_2   0.466833 0.867770 0.507190 -0.325066
C25   C     C_2   0.409025 0.071433 0.427180 -0.174297
C26   C     C_2   0.497104 0.130487 0.497354 -0.347674
C27   C     C_2   0.572233 0.568620 0.927101 -0.037805
H1    H     H_    0.101351 0.397343 0.684738 0.175607
H2    H     H_    0.790827 0.512383 0.187858 0.253724
H3    H     H_    0.858124 0.653083 0.256394 0.242286
H4    H     H_    0.940588 0.555178 0.142385 0.250543
H5    H     H_    0.131295 0.783175 0.582971 0.342139
H6    H     H_    0.782781 0.736057 0.478020 0.223549
H7    H     H_    0.897435 0.817113 0.572964 0.224025
H8    H     H_    0.935008 0.770270 0.409148 0.263215
H9    H     H_    0.224248 0.915917 0.327402 0.233098
H10   H     H_    0.353331 0.907582 0.213717 0.211585
H11   H     H_    0.311154 0.775218 0.318108 0.300959
H12   H     H_    0.500354 0.910018 0.597878 0.121944
H13   H     H_    0.328342 0.411509 0.820848 0.238855
H14   H     H_    0.415797 0.343024 0.944088 0.167541
H15   H     H_    0.336081 0.494733 0.972020 0.203811
H16   H     H_    0.637120 0.772048 0.051368 0.190543
H17   H     H_    0.505402 0.764130 0.159540 0.259102
H18   H     H_    0.654054 0.701314 0.210447 0.259940
H19   H     H_    0.118788 0.198849 0.469136 0.253314
H20   H     H_    0.239202 0.256155 0.574836 0.236398
H21   H     H_    0.105807 0.180025 0.644086 0.252611
H22   H     H_    0.768856 0.249479 0.510773 0.211677
H23   H     H_    0.341544 0.125434 0.371979 0.155023
H24   H     H_    0.912342 0.215909 0.428396 0.214400
H25   H     H_    0.887260 0.164599 0.592750 0.246522
H26   H     H_    0.902783 0.457741 0.782447 0.202761
H27   H     H_    0.779898 0.347293 0.741145 0.275457
H28   H     H_    0.928251 0.294090 0.784002 0.227975
H29   H     H_    0.080166 0.658730 0.298714 0.376221
H30   H     H_    0.119036 0.378711 0.159491 0.245228
H31   H     H_    0.215292 0.329344 0.292043 0.238062
H32   H     H_    0.059874 0.274878 0.280946 0.169144
H33   H     H_    0.570562 0.084954 0.551080 0.131824
H34   H     H_    0.644490 0.624757 0.878881 0.125513
H35   H     H_    0.506540 0.411234 0.112906 0.161791
H36   H     H_    0.099571 0.603462 0.672368 0.086296
H37   H     H_    0.896488 0.620190 0.661476 0.147915
H38   H     H_    0.895616 0.381981 0.315110 0.163170
N1    N     N_2   0.501360 0.501330 0.852150 -0.063662
N2    N     N_2   0.501390 0.501360 0.147810 -0.191925
O1    O     O_R   0.499980 0.319060 0.613040 -0.613860
O2    O     O_3   0.123398 0.581137 0.272988 -0.728704
O3    O     O_R   0.500020 0.319100 0.386900 -0.625784
O4    O     O_R   0.314770 0.499960 0.613070 -0.652609
O5    O     O_R   0.314820 0.500000 0.386930 -0.563865
O6    O     O_R   0.499980 0.680900 0.613100 -0.611378
O7    O     O_R   0.500020 0.680940 0.386960 -0.611819
O8    O     O_R   0.685180 0.500000 0.613070 -0.628204
O9    O     O_R   0.685230 0.500040 0.386930 -0.622384
O10   O     O_3   0.135270 0.717114 0.513676 -0.776720
Zn1   Zn    Zn3+2 0.499970 0.499970 0.650990 0.931862
Zn2   Zn    Zn3+2 0.500030 0.500030 0.349010 0.935876

loop_
_geom_bond_atom_site_label_1
_geom_bond_atom_site_label_2
_ccdc_geom_bond_type
C17   H21   S    
C24   H12   S    
C18   H25   S    
H35   N2    S    
C9    O2    S    
C13   H8    S    
O5    Zn2   S    
C14   H9    S    
C4    C24   S    
C9    C22   S    
C12   C22   S    
C1    O1    A    
C25   H23   S    
C21   H37   S    
C27   H34   S    
H5    O10   S    
C6    H1    S    
C11   H3    S    
C23   C24   D    
O9    Zn2   S    
C2    C27   S    
C2    C16   S    
C9    C10   S    
C16   H17   S    
C4    O7    A    
C19   H26   S    
C11   H4    S    
C18   H24   S    
O1    Zn1   S    
C7    C12   S    
N1    Zn1   S    
N2    Zn2   S    
C17   H19   S    
C15   H14   S    
C5    C12   S    
C2    N2    D    
C25   C26   D    
C15   N1    S    
C12   C21   S    
C14   C23   S    
C5    O8    A    
C3    O4    A    
C22   H38   S    
C13   H6    S    
C14   H11   S    
C9    C20   S    
O6    Zn1   S    
C7    C18   S    
C8    C21   S    
C13   C21   S    
C20   H32   S    
C16   H16   S    
C4    O6    A    
C19   H27   S    
C7    C19   S    
O7    Zn2   S    
C8    O10   S    
C20   H31   S    
C19   H28   S    
C6    C17   S    
O3    Zn2   S    
C17   H20   S    
C15   H15   S    
C16   H18   S    
C6    C10   S    
C6    C7    S    
C11   C22   S    
C1    O3    A    
C5    O9    A    
C3    O5    A    
C13   H7    S    
C3    C10   S    
C14   H10   S    
C1    C26   S    
C23   C25   S    
O8    Zn1   S    
C15   H13   S    
C8    H36   S    
C11   H2    S    
C8    C10   S    
H29   O2    S    
C27   N1    D    
C20   H30   S    
C26   H33   S    
O4    Zn1   S    
C18   H22   S    
