data_mof_unit_2132.cif
_audit_creation_date              2012-12-10T20:46:23-0500
_audit_creation_method            fapswitch 2.2
_symmetry_space_group_name_H-M    P1
_symmetry_Int_Tables_number       1
_space_group_crystal_system       triclinic
_cell_length_a                    10.639311
_cell_length_b                    8.927222
_cell_length_c                    8.108011
_cell_angle_alpha                 89.922714
_cell_angle_beta                  87.1396
_cell_angle_gamma                 90.2391
_cell_volume                      769.127655873

loop_
_atom_site_label
_atom_site_type_symbol
_atom_type_description
_atom_site_fract_x
_atom_site_fract_y
_atom_site_fract_z
_atom_type_partial_charge
C1    C     C_R   0.500863 0.218012 0.499990 0.926612
C2    C     C_1   0.500535 0.934820 0.499790 -0.205992
C3    C     C_3   0.832693 0.222423 0.216589 -0.724996
C4    C     C_3   0.186055 0.195650 0.237340 -0.796475
C5    C     C_3   0.873934 0.758912 0.563015 -0.269063
C6    C     C_3   0.079872 0.308480 0.761358 -0.325659
C7    C     C_R   0.500020 0.782001 0.499892 0.940977
C8    C     C_R   0.262360 0.481546 0.504483 0.848333
C9    C     C_R   0.738604 0.503876 0.494866 0.819560
C10   C     C_2   0.930457 0.382603 0.415614 0.113402
C11   C     C_2   0.067314 0.382305 0.395278 0.076337
C12   C     C_2   0.873434 0.507674 0.475714 0.384557
C13   C     C_2   0.132664 0.433541 0.522691 0.339873
C14   C     C_1   0.500843 0.065226 0.499983 -0.203701
H1    H     H_    0.901157 0.154924 0.438389 0.215326
H2    H     H_    0.796070 0.794664 0.485501 0.136590
H3    H     H_    0.937650 0.856590 0.574797 0.180002
H4    H     H_    0.178926 0.272786 0.775157 0.168378
H5    H     H_    0.027059 0.220193 0.696819 0.141249
H6    H     H_    0.035188 0.320797 0.887103 0.211465
H7    H     H_    0.762925 0.129952 0.211202 0.236420
H8    H     H_    0.918684 0.189828 0.142410 0.242448
H9    H     H_    0.792058 0.323943 0.161194 0.262541
H10   H     H_    0.169749 0.422472 0.172484 0.263876
H11   H     H_    0.220452 0.168837 0.109285 0.244325
H12   H     H_    0.119505 0.106178 0.280960 0.246917
H13   H     H_    0.267144 0.197966 0.317902 0.241523
H14   H     H_    0.837999 0.727548 0.689586 0.183459
N1    N     N_1   0.500000 0.500000 0.073640 -0.034492
N2    N     N_1   0.500000 0.500000 0.926360 -0.034047
N3    N     N_2   0.861586 0.248131 0.386865 -0.343653
N4    N     N_2   0.123399 0.339069 0.239340 -0.321377
O1    O     O_R   0.500000 0.285350 0.636850 -0.620690
O2    O     O_3   0.074160 0.447549 0.679233 -0.578089
O3    O     O_R   0.500000 0.714650 0.636850 -0.613109
O4    O     O_R   0.500000 0.285360 0.363100 -0.617888
O5    O     O_R   0.500000 0.714640 0.363100 -0.607361
O6    O     O_R   0.319080 0.500000 0.636840 -0.586918
O7    O     O_R   0.680920 0.500000 0.636840 -0.624225
O8    O     O_R   0.319090 0.500000 0.363090 -0.641194
O9    O     O_R   0.680910 0.500000 0.363090 -0.623034
O10   O     O_3   0.943147 0.640762 0.487541 -0.615950
Zn1   Zn    Zn3+2 0.500000 0.500000 0.682780 0.988464
Zn2   Zn    Zn3+2 0.500000 0.500000 0.317220 0.975279

loop_
_geom_bond_atom_site_label_1
_geom_bond_atom_site_label_2
_ccdc_geom_bond_type
C4    H12   S    
C5    O10   S    
H10   N4    S    
H1    N3    S    
C8    C13   S    
C9    O9    A    
C5    H14   S    
O3    Zn1   S    
C3    H9    S    
C2    C7    S    
O8    Zn2   S    
O5    Zn2   S    
C4    H11   S    
C7    O5    A    
C1    O1    A    
O6    Zn1   S    
C3    N3    S    
C6    H5    S    
C11   C13   D    
C4    N4    S    
C12   O10   S    
C8    O6    A    
C6    H6    S    
C6    H4    S    
C10   C12   D    
C9    C12   S    
C11   N4    S    
N1    Zn2   S    
O7    Zn1   S    
C2    C14   T    
O9    Zn2   S    
N2    Zn1   S    
O4    Zn2   S    
C3    H7    S    
C10   C11   S    
N1    N2    T    
O1    Zn1   S    
C9    O7    A    
C4    H13   S    
C5    H3    S    
C5    H2    S    
C13   O2    S    
C1    C14   S    
C8    O8    A    
C7    O3    A    
C10   N3    S    
C6    O2    S    
C1    O4    A    
C3    H8    S    
