data_mof_unit_4056.cif
_audit_creation_date              2012-12-10T17:15:53-0500
_audit_creation_method            fapswitch 2.2
_symmetry_space_group_name_H-M    P1
_symmetry_Int_Tables_number       1
_space_group_crystal_system       triclinic
_cell_length_a                    10.33125
_cell_length_b                    10.762725
_cell_length_c                    10.871836
_cell_angle_alpha                 90.737876
_cell_angle_beta                  94.903263
_cell_angle_gamma                 80.646257
_cell_volume                      1188.42638755

loop_
_atom_site_label
_atom_site_type_symbol
_atom_type_description
_atom_site_fract_x
_atom_site_fract_y
_atom_site_fract_z
_atom_type_partial_charge
C1    C     C_R   0.446076 0.508221 0.266498 0.859555
C2    C     C_R   0.605351 0.043940 0.431941 0.004993
C3    C     C_R   0.491471 0.127622 0.461314 -0.150756
C4    C     C_R   0.369136 0.083246 0.453746 -0.166788
C5    C     C_R   0.367828 0.954076 0.449554 -0.111880
C6    C     C_R   0.486838 0.871092 0.452313 -0.139281
C7    C     C_2   0.422190 0.502024 0.130930 -0.178768
C8    C     C_2   0.522526 0.456908 0.059353 -0.069154
C9    C     C_2   0.590989 0.425246 0.852194 -0.275406
C10   C     C_2   0.498153 0.416266 0.929687 -0.135456
C11   C     C_2   0.063273 0.520759 0.473112 -0.030635
C12   C     C_R   0.497849 0.260225 0.489627 0.907459
C13   C     C_2   0.921790 0.520029 0.503749 -0.078298
C14   C     C_R   0.555269 0.476456 0.729403 0.957253
C15   C     C_R   0.495725 0.738954 0.485433 0.878058
C16   C     C_R   0.717364 0.084145 0.390323 -0.013913
C17   C     C_R   0.831974 0.994040 0.397469 -0.107211
C18   C     C_R   0.814720 0.878546 0.342460 -0.077010
C19   C     C_R   0.690141 0.842867 0.344919 -0.025479
C20   C     C_R   0.597662 0.915664 0.416821 0.020260
N1    N     N_2   0.157290 0.551390 0.551110 -0.165536
N2    N     N_2   0.842740 0.448550 0.448960 -0.185701
O1    O     O_R   0.568950 0.489660 0.307530 -0.627927
O2    O     O_R   0.348880 0.522640 0.340350 -0.608776
O3    O     O_R   0.610060 0.300270 0.483590 -0.617300
O4    O     O_R   0.389990 0.333260 0.516410 -0.583474
O5    O     O_R   0.651120 0.477360 0.659650 -0.613817
O6    O     O_R   0.431050 0.510340 0.692470 -0.597152
O7    O     O_R   0.610010 0.666740 0.483590 -0.622684
O8    O     O_R   0.389940 0.699730 0.516410 -0.610670
Zn1   Zn    Zn3+2 0.646940 0.477980 0.478090 0.989661
Zn2   Zn    Zn3+2 0.353060 0.522020 0.521910 1.019225
C21   C     C_2   0.242354 0.169722 0.435487 0.976202
O9    O     O_2   0.216343 0.229723 0.339715 -0.572600
O10   O     O_R   0.153314 0.184306 0.526152 -0.758682
H1    H     H_    0.185884 0.129674 0.601236 0.314505
C22   C     C_1   0.293462 0.555485 0.075350 0.272128
N3    N     N_1   0.190944 0.600337 0.031279 -0.136224
C23   C     C_1   0.867259 0.614174 0.589171 0.342322
N4    N     N_1   0.824863 0.689314 0.658564 -0.161405
C24   C     C_1   0.086819 0.501592 0.345398 0.323922
N5    N     N_1   0.101034 0.484477 0.241915 -0.122664
C25   C     C_1   0.894121 0.344649 0.381043 0.417178
N6    N     N_1   0.936830 0.258631 0.323855 -0.151858
C26   C     C_1   0.139276 0.544886 0.675967 0.363612
N7    N     N_1   0.124082 0.538837 0.779687 -0.193429
C27   C     C_1   0.690153 0.150672 0.274301 0.222406
N8    N     N_1   0.667615 0.200547 0.179653 -0.193181
C28   C     C_2   0.916914 0.991266 0.514672 0.969874
O11   O     O_2   0.925077 0.089149 0.571011 -0.587753
O12   O     O_R   0.981857 0.876616 0.564834 -0.814657
H2    H     H_    0.035096 0.887388 0.645896 0.343964
C29   C     C_1   0.907554 0.817958 0.259858 0.232740
N9    N     N_1   0.980417 0.769586 0.192054 -0.165774
C30   C     C_1   0.639930 0.772417 0.243052 0.200950
N10   N     N_1   0.597078 0.721726 0.158664 -0.215841
C31   C     C_1   0.247106 0.907054 0.415558 0.243414
N11   N     N_1   0.152663 0.866808 0.385411 -0.163086
C32   C     C_2   0.395761 0.335166 0.895278 0.973465
O13   O     O_2   0.324912 0.308339 0.972054 -0.593679
O14   O     O_R   0.386058 0.282527 0.777269 -0.798097
H3    H     H_    0.314969 0.227630 0.766398 0.343511
C33   C     C_1   0.660436 0.459765 0.101880 0.306855
N12   N     N_1   0.769618 0.463098 0.134004 -0.188269
C34   C     C_1   0.720537 0.348492 0.873220 0.248113
N13   N     N_1   0.823506 0.287255 0.889351 -0.121358

loop_
_geom_bond_atom_site_label_1
_geom_bond_atom_site_label_2
_ccdc_geom_bond_type
O3    Zn1   S    
O8    Zn2   S    
C25   N6    T    
O2    Zn2   S    
C15   O7    A    
C22   N3    T    
N2    C25   S    
C14   O5    A    
C2    C16   A    
C9    C10   D    
C19   C20   A    
C5    C31   S    
C12   O3    A    
C9    C14   S    
C30   N10   T    
C21   O9    D    
C7    C22   S    
C32   O13   D    
O7    Zn1   S    
C26   N7    T    
C33   N12   T    
O4    Zn2   S    
C11   C13   S    
C31   N11   T    
O14   H3    S    
C15   O8    A    
C16   C27   S    
C8    C10   S    
C21   O10   S    
C13   N2    D    
C1    O1    A    
N1    C26   S    
C5    C6    A    
N1    Zn2   S    
C9    C34   S    
C32   O14   S    
C13   C23   S    
N2    Zn1   S    
C8    C33   S    
O5    Zn1   S    
O12   H2    S    
C16   C17   A    
C7    C8    D    
C6    C20   A    
C1    O2    A    
C17   C18   A    
C34   N13   T    
C24   N5    T    
C11   C24   S    
C19   C30   S    
C23   N4    T    
C28   O11   D    
C2    C20   A    
C4    C21   S    
C18   C19   A    
C2    C3    A    
C3    C12   S    
C18   C29   S    
C14   O6    A    
C6    C15   S    
C1    C7    S    
C10   C32   S    
C11   N1    D    
O6    Zn2   S    
C17   C28   S    
C3    C4    A    
C27   N8    T    
C29   N9    T    
C12   O4    A    
C4    C5    A    
C28   O12   S    
O10   H1    S    
O1    Zn1   S    
