data_mof_unit_3722.cif
_audit_creation_date              2012-12-10T17:51:33-0500
_audit_creation_method            fapswitch 2.2
_symmetry_space_group_name_H-M    P1
_symmetry_Int_Tables_number       1
_space_group_crystal_system       triclinic
_cell_length_a                    9.880354
_cell_length_b                    10.64638
_cell_length_c                    16.509231
_cell_angle_alpha                 91.272291
_cell_angle_beta                  83.397531
_cell_angle_gamma                 90.227271
_cell_volume                      1724.6615207

loop_
_atom_site_label
_atom_site_type_symbol
_atom_type_description
_atom_site_fract_x
_atom_site_fract_y
_atom_site_fract_z
_atom_type_partial_charge
C1    C     C_R   0.500608 0.740545 0.494658 0.860213
C2    C     C_R   0.541165 0.512107 0.257535 -0.084939
C3    C     C_R   0.259043 0.891197 0.459345 -0.159986
C4    C     C_R   0.478991 0.505724 0.653475 0.874804
C5    C     C_R   0.132474 0.949382 0.475816 -0.187315
C6    C     C_R   0.119020 0.055735 0.526468 -0.175787
C7    C     C_R   0.234450 0.112146 0.553135 0.190445
C8    C     C_R   0.365992 0.062853 0.526113 0.053995
C9    C     C_R   0.374763 0.941647 0.491873 0.064932
C10   C     C_R   0.498690 0.875547 0.493721 -0.107960
C11   C     C_R   0.616856 0.938323 0.511209 -0.219584
C12   C     C_R   0.508233 0.675777 0.751549 -0.235736
C13   C     C_R   0.613617 0.065536 0.525155 -0.195312
C14   C     C_R   0.489996 0.129402 0.528087 -0.112172
C15   C     C_R   0.841608 0.667465 0.604967 -0.171201
C16   C     C_R   0.496798 0.261744 0.511657 0.909639
C17   C     C_R   0.902677 0.748328 0.657283 -0.219416
C18   C     C_R   0.042383 0.745921 0.658457 -0.176732
C19   C     C_R   0.121665 0.663188 0.606941 -0.133657
C20   C     C_R   0.063152 0.581099 0.552404 0.162675
C21   C     C_R   0.918535 0.582062 0.551893 0.171012
C22   C     C_R   0.937577 0.421445 0.450441 -0.125966
C23   C     C_R   0.449207 0.515024 0.128828 -0.189827
C24   C     C_R   0.080923 0.421669 0.450331 -0.094256
C25   C     C_R   0.521309 0.500514 0.345916 0.874776
C26   C     C_R   0.462347 0.553684 0.736339 -0.047776
C27   C     C_R   0.397938 0.482656 0.799347 -0.171289
C28   C     C_R   0.393641 0.528349 0.878989 -0.182988
C29   C     C_R   0.454580 0.644458 0.895210 0.073913
C30   C     C_R   0.504330 0.722189 0.831073 0.180331
C31   C     C_R   0.675337 0.505057 0.946095 0.162327
C32   C     C_R   0.763025 0.558274 0.882735 -0.098661
C33   C     C_R   0.844296 0.481531 0.827253 -0.122141
C34   C     C_R   0.432007 0.493263 0.211814 -0.189622
C35   C     C_R   0.839692 0.351138 0.834865 -0.093154
C36   C     C_R   0.754281 0.297336 0.898189 -0.112948
C37   C     C_R   0.672665 0.373752 0.953765 -0.144199
C38   C     C_R   0.415966 0.762253 0.031983 0.146032
C39   C     C_R   0.483075 0.836823 0.086526 -0.093505
C40   C     C_R   0.411101 0.926560 0.137290 -0.143611
C41   C     C_R   0.271920 0.943811 0.133612 -0.117417
C42   C     C_R   0.204565 0.871598 0.078972 -0.096365
C43   C     C_R   0.275976 0.781370 0.028257 -0.126470
C44   C     C_R   0.668806 0.549441 0.218939 -0.215376
C45   C     C_R   0.686236 0.572977 0.135882 0.171234
C46   C     C_R   0.574799 0.558215 0.090925 0.075095
C47   C     C_2   0.493155 0.666904 0.977367 -0.066436
C48   C     C_2   0.585288 0.586974 0.003929 -0.061357
H1    H     H_    0.358330 0.389945 0.787452 0.171694
H2    H     H_    0.333204 0.463377 0.240268 0.159900
H3    H     H_    0.089788 0.808490 0.699491 0.173306
H4    H     H_    0.228009 0.666262 0.611811 0.208216
H5    H     H_    0.142474 0.357634 0.409881 0.146557
H6    H     H_    0.754151 0.564838 0.253688 0.180265
H7    H     H_    0.363530 0.500757 0.094127 0.150257
H8    H     H_    0.550284 0.733753 0.701752 0.143206
H9    H     H_    0.353946 0.468665 0.928549 0.148080
H10   H     H_    0.768972 0.659152 0.876586 0.163739
H11   H     H_    0.911029 0.523158 0.778438 0.161702
H12   H     H_    0.712742 0.889871 0.512769 0.171339
H13   H     H_    0.902535 0.291796 0.791824 0.162984
H14   H     H_    0.750917 0.196288 0.904048 0.167722
H15   H     H_    0.605855 0.330402 0.001862 0.139237
H16   H     H_    0.591393 0.826390 0.089248 0.156987
H17   H     H_    0.463441 0.983189 0.179226 0.136447
H18   H     H_    0.216374 0.013494 0.172864 0.131680
H19   H     H_    0.096846 0.885554 0.075929 0.163282
H20   H     H_    0.221572 0.725819 0.986756 0.154656
H21   H     H_    0.265186 0.807883 0.420448 0.170175
H22   H     H_    0.043644 0.908029 0.452962 0.152687
H23   H     H_    0.018570 0.093263 0.545965 0.157245
H24   H     H_    0.708737 0.114233 0.530802 0.169586
H25   H     H_    0.891011 0.357350 0.410036 0.146430
H26   H     H_    0.734289 0.675088 0.608013 0.205141
H27   H     H_    0.840953 0.812856 0.697371 0.184495
I1    I     I_    0.879146 0.639970 0.084502 -0.481338
I2    I     I_    0.196593 0.242782 0.652288 -0.421740
I3    I     I_    0.589829 0.901994 0.850474 -0.459664
N1    N     N_R   0.857140 0.501200 0.500750 -0.116645
N2    N     N_R   0.142740 0.501280 0.500770 -0.111830
O1    O     O_R   0.385310 0.683220 0.500000 -0.645731
O2    O     O_R   0.614640 0.683250 0.500010 -0.642671
O3    O     O_R   0.371780 0.500010 0.615800 -0.607941
O4    O     O_R   0.601110 0.500030 0.615800 -0.624514
O5    O     O_R   0.385360 0.316750 0.499990 -0.598106
O6    O     O_R   0.614690 0.316780 0.500000 -0.618329
O7    O     O_R   0.398890 0.499970 0.384200 -0.616972
O8    O     O_R   0.628220 0.499990 0.384200 -0.611870
Zn1   Zn    Zn3+2 0.346870 0.499980 0.499990 0.946000
Zn2   Zn    Zn3+2 0.653130 0.500020 0.500010 0.936079

loop_
_geom_bond_atom_site_label_1
_geom_bond_atom_site_label_2
_ccdc_geom_bond_type
C41   C42   A    
C19   C20   A    
C32   H10   S    
C7    C8    A    
C28   H9    S    
C39   H16   S    
C26   C27   A    
C29   C30   A    
C29   C47   S    
C45   I1    S    
C36   C37   A    
C3    H21   S    
C22   N1    A    
C5    C6    A    
C1    O1    A    
C25   O7    A    
C18   C19   A    
N2    Zn1   S    
N1    Zn2   S    
C19   H4    S    
C24   N2    A    
C31   C32   A    
C2    C44   A    
C43   H20   S    
C9    C10   A    
C7    I2    S    
O1    Zn1   S    
C2    C34   A    
C33   H11   S    
C23   C46   A    
C13   C14   A    
C16   O6    A    
O4    Zn2   S    
C36   H14   S    
C37   H15   S    
C18   H3    S    
C6    H23   S    
O3    Zn1   S    
C46   C48   S    
C34   H2    S    
C20   N2    A    
C16   O5    A    
O6    Zn2   S    
C39   C40   A    
O5    Zn1   S    
C8    C9    A    
C1    O2    A    
C45   C46   A    
C25   O8    A    
C31   C37   A    
C12   C26   A    
C35   C36   A    
C5    H22   S    
C3    C9    A    
C47   C48   D    
C4    O4    A    
C23   C34   A    
C21   N1    A    
C17   C18   A    
C35   H13   S    
C12   H8    S    
C38   C47   S    
C6    C7    A    
C40   C41   A    
O8    Zn2   S    
C40   H17   S    
O7    Zn1   S    
C42   H19   S    
C14   C16   S    
C42   C43   A    
C11   H12   S    
C44   C45   A    
C15   C17   A    
C28   C29   A    
C8    C14   A    
C12   C30   A    
C1    C10   S    
C3    C5    A    
C4    C26   S    
C23   H7    S    
C41   H18   S    
C13   H24   S    
O2    Zn2   S    
C31   C48   S    
C32   C33   A    
C24   H5    S    
C38   C43   A    
C11   C13   A    
C38   C39   A    
C4    O3    A    
C33   C35   A    
C2    C25   S    
C22   C24   A    
C10   C11   A    
C30   I3    S    
C44   H6    S    
C15   C21   A    
C15   H26   S    
C20   C21   A    
C27   C28   A    
C17   H27   S    
C22   H25   S    
C27   H1    S    
