data_mof_unit_3218.cif
_audit_creation_date              2012-12-10T16:54:02-0500
_audit_creation_method            fapswitch 2.2
_symmetry_space_group_name_H-M    P1
_symmetry_Int_Tables_number       1
_space_group_crystal_system       triclinic
_cell_length_a                    9.715821
_cell_length_b                    10.908254
_cell_length_c                    13.437579
_cell_angle_alpha                 90.851747
_cell_angle_beta                  72.803677
_cell_angle_gamma                 90.242358
_cell_volume                      1360.33649291

loop_
_atom_site_label
_atom_site_type_symbol
_atom_type_description
_atom_site_fract_x
_atom_site_fract_y
_atom_site_fract_z
_atom_type_partial_charge
C1    C     C_R   0.496829 0.734289 0.508213 0.816415
C2    C     C_R   0.434898 0.491435 0.979147 0.079246
C3    C     C_R   0.467356 0.457183 0.872457 0.088794
C4    C     C_R   0.539349 0.469344 0.031974 0.077020
C5    C     C_R   0.667575 0.404253 0.980504 0.172407
C6    C     C_R   0.688336 0.358207 0.879988 -0.269582
C7    C     C_R   0.589158 0.383129 0.827020 -0.204701
C8    C     C_R   0.520497 0.509951 0.134609 -0.250373
C9    C     C_R   0.748246 0.420683 0.134449 -0.200819
C10   C     C_R   0.375639 0.496511 0.814467 -0.104983
C11   C     C_2   0.605004 0.067287 0.512161 -0.175859
C12   C     C_R   0.422758 0.495589 0.699887 0.760529
C13   C     C_2   0.503110 0.133002 0.488916 -0.345959
C14   C     C_2   0.604785 0.933670 0.504087 -0.201739
C15   C     C_2   0.485208 0.864078 0.537138 -0.040072
C16   C     C_2   0.065670 0.591869 0.531253 -0.108369
C17   C     C_2   0.905363 0.580924 0.550757 0.175872
C18   C     C_R   0.500976 0.265302 0.497115 0.856199
C19   C     C_R   0.577074 0.498051 0.300227 0.806459
C20   C     C_R   0.772264 0.383087 0.031247 -0.198916
C21   C     C_R   0.619985 0.480875 0.187164 -0.053648
C22   C     C_R   0.241815 0.549440 0.866352 -0.201767
C23   C     C_R   0.202848 0.571094 0.972921 -0.151719
C24   C     C_R   0.298800 0.545318 0.028723 -0.186057
Cu1   Cu    Cu3+1 0.361370 0.499980 0.499980 0.925735
Cu2   Cu    Cu3+1 0.638630 0.500020 0.500020 0.917551
H1    H     H_    0.826380 0.397513 0.174310 0.153958
H2    H     H_    0.417602 0.088364 0.464939 0.157084
H3    H     H_    0.707711 0.891631 0.463563 0.153052
H4    H     H_    0.107705 0.677094 0.553076 0.161226
H5    H     H_    0.108952 0.418021 0.490074 0.193246
H6    H     H_    0.915906 0.449069 0.443705 0.178063
H7    H     H_    0.782608 0.303690 0.841534 0.144997
H8    H     H_    0.870584 0.333970 0.992134 0.138859
H9    H     H_    0.427697 0.562693 0.176907 0.146804
H10   H     H_    0.168244 0.577365 0.824090 0.153335
H11   H     H_    0.261313 0.566138 0.110897 0.129121
H12   H     H_    0.099121 0.611750 0.012133 0.144327
H13   H     H_    0.608464 0.341669 0.750598 0.173546
H14   H     H_    0.695255 0.111480 0.530299 0.170911
N1    N     N_2   0.152660 0.501340 0.501130 -0.292841
N2    N     N_2   0.846520 0.501370 0.501160 -0.299152
O1    O     O_R   0.382960 0.678040 0.499980 -0.580581
O2    O     O_R   0.617100 0.678080 0.500020 -0.602163
O3    O     O_R   0.325800 0.499940 0.650950 -0.579605
O4    O     O_R   0.559930 0.499980 0.650990 -0.589869
O5    O     O_R   0.382900 0.321920 0.499980 -0.580707
O6    O     O_R   0.617040 0.321960 0.500020 -0.577889
O7    O     O_R   0.440070 0.500020 0.349010 -0.568563
O8    O     O_R   0.674200 0.500060 0.349050 -0.579977
C25   C     C_3   0.341698 0.910564 0.609789 -0.397117
C26   C     C_3   0.291481 0.834866 0.709688 -0.362623
C27   C     C_3   0.153300 0.887049 0.784613 -0.867745
H15   H     H_    0.171916 0.981621 0.809607 0.258295
H16   H     H_    0.066167 0.888554 0.746581 0.253540
H17   H     H_    0.118166 0.828749 0.854678 0.246558
H18   H     H_    0.269660 0.739012 0.690461 0.231243
H19   H     H_    0.377038 0.834105 0.749337 0.221579
H20   H     H_    0.348792 0.006744 0.635316 0.227448
H21   H     H_    0.258967 0.905878 0.567718 0.190536
C28   C     C_3   0.818283 0.671493 0.631630 -0.336364
C29   C     C_3   0.840151 0.649492 0.738645 -0.390919
C30   C     C_3   0.737422 0.727207 0.823906 -0.834747
H22   H     H_    0.756134 0.826188 0.806595 0.248656
H23   H     H_    0.623733 0.704138 0.830086 0.257384
H24   H     H_    0.756193 0.708688 0.899899 0.250188
H25   H     H_    0.821529 0.551393 0.758698 0.246997
H26   H     H_    0.952576 0.672249 0.736493 0.213252
H27   H     H_    0.853671 0.766066 0.606310 0.153378
H28   H     H_    0.702877 0.668070 0.641105 0.261616

loop_
_geom_bond_atom_site_label_1
_geom_bond_atom_site_label_2
_ccdc_geom_bond_type
C28   H28   S    
C2    C4    A    
C23   C24   A    
C30   H23   S    
C13   H2    S    
Cu1   O5    S    
C29   C30   S    
C1    C15   S    
C15   C25   S    
C23   H12   S    
C22   H10   S    
C19   O7    A    
C9    C20   A    
C28   C29   S    
C6    H7    S    
C29   H26   S    
C4    C8    A    
C1    O2    A    
C20   H8    S    
C18   O5    A    
Cu1   O1    S    
Cu2   O8    S    
C24   H11   S    
C30   H24   S    
Cu2   O2    S    
C3    C10   A    
Cu1   N1    S    
C27   H15   S    
C10   C22   A    
C11   C13   D    
C19   O8    A    
C9    C21   A    
C5    C6    A    
C10   C12   S    
C29   H25   S    
C13   C18   S    
C19   C21   S    
C2    C3    A    
C6    C7    A    
C3    C7    A    
C27   H16   S    
Cu2   N2    S    
C2    C24   A    
C11   H14   S    
C26   H19   S    
C11   C14   S    
Cu1   O7    S    
C25   H20   S    
C26   H18   S    
Cu2   O4    S    
C14   H3    S    
C16   H4    S    
C25   C26   S    
Cu1   O3    S    
C8    C21   A    
Cu2   O6    S    
C9    H1    S    
C12   O4    A    
C27   H17   S    
C28   H27   S    
C5    C20   A    
H6    N2    S    
C14   C15   D    
C12   O3    A    
C7    H13   S    
C25   H21   S    
H5    N1    S    
C17   C28   S    
Cu1   Cu2   S    
C17   N2    D    
C16   N1    D    
C1    O1    A    
C22   C23   A    
C30   H22   S    
C16   C17   S    
C26   C27   S    
C4    C5    A    
C8    H9    S    
C18   O6    A    
