data_mof_unit_2723.cif
_audit_creation_date              2012-12-10T17:20:23-0500
_audit_creation_method            fapswitch 2.2
_symmetry_space_group_name_H-M    P1
_symmetry_Int_Tables_number       1
_space_group_crystal_system       triclinic
_cell_length_a                    11.698964
_cell_length_b                    10.790561
_cell_length_c                    9.643711
_cell_angle_alpha                 90.36404
_cell_angle_beta                  89.946966
_cell_angle_gamma                 93.928839
_cell_volume                      1214.52083193

loop_
_atom_site_label
_atom_site_type_symbol
_atom_type_description
_atom_site_fract_x
_atom_site_fract_y
_atom_site_fract_z
_atom_type_partial_charge
C1    C     C_R   0.492702 0.262436 0.499705 0.774354
C2    C     C_R   0.255081 0.048678 0.767236 -0.145592
C3    C     C_R   0.255642 0.919945 0.768562 -0.136341
C4    C     C_R   0.328837 0.859703 0.680692 -0.170765
C5    C     C_R   0.405513 0.928131 0.591667 0.098974
C6    C     C_R   0.405479 0.059490 0.590909 0.103489
C7    C     C_R   0.479768 0.127638 0.498291 -0.103518
C8    C     C_R   0.542849 0.066313 0.399633 -0.201428
C9    C     C_R   0.540788 0.938600 0.398238 -0.221649
C10   C     C_R   0.478543 0.869348 0.498378 -0.099154
C11   C     C_R   0.669696 0.640424 0.150424 -0.133616
C12   C     C_R   0.284201 0.499321 0.500051 0.784034
C13   C     C_R   0.774495 0.671270 0.091793 -0.266447
C14   C     C_R   0.786743 0.659541 0.951249 -0.308317
C15   C     C_R   0.688128 0.636334 0.866407 0.496544
C16   C     C_R   0.588846 0.568088 0.927256 0.115769
C17   C     C_R   0.584735 0.569186 0.076786 0.162652
C18   C     C_R   0.418633 0.434182 0.073118 -0.045779
C19   C     C_R   0.418040 0.435057 0.925717 -0.060736
C20   C     C_R   0.491532 0.736343 0.500046 0.808438
C21   C     C_R   0.715651 0.498710 0.499841 0.845426
C22   C     C_1   0.162392 0.498998 0.500106 -0.183827
C23   C     C_1   0.059819 0.498604 0.499888 -0.007241
C24   C     C_1   0.939918 0.498115 0.499517 -0.015536
C25   C     C_1   0.837376 0.498010 0.499443 -0.193816
C26   C     C_R   0.327918 0.118063 0.678291 -0.179436
Cu1   Cu    Cu3+1 0.499990 0.499990 0.640660 0.972302
Cu2   Cu    Cu3+1 0.500010 0.500010 0.359340 0.939825
H1    H     H_    0.597230 0.117725 0.325807 0.164781
H2    H     H_    0.870300 0.689058 0.910821 0.135068
H3    H     H_    0.350756 0.381447 0.870793 0.127382
H4    H     H_    0.319620 0.217059 0.676175 0.141790
H5    H     H_    0.196311 0.094916 0.833486 0.130596
H6    H     H_    0.197315 0.866277 0.835868 0.131940
H7    H     H_    0.321465 0.759444 0.680774 0.152634
H8    H     H_    0.593875 0.894027 0.323304 0.157744
H9    H     H_    0.351914 0.379604 0.127369 0.134682
H10   H     H_    0.660877 0.670104 0.254856 0.195389
H11   H     H_    0.844672 0.711162 0.154468 0.170118
N1    N     N_R   0.501070 0.501210 0.147910 -0.187460
N2    N     N_R   0.501110 0.501290 0.852040 -0.189194
O1    O     O_R   0.499990 0.319640 0.618810 -0.584007
O2    O     O_R   0.500000 0.319660 0.381240 -0.575174
O3    O     O_R   0.337190 0.500000 0.618790 -0.598736
O4    O     O_R   0.337200 0.500030 0.381210 -0.572318
O5    O     O_R   0.500000 0.680340 0.618760 -0.513392
O6    O     O_R   0.500010 0.680360 0.381190 -0.610024
O7    O     O_R   0.662800 0.499970 0.618790 -0.530481
O8    O     O_R   0.662810 0.500000 0.381210 -0.593334
O9    O     O_3   0.680506 0.697558 0.739629 -0.531450
C27   C     C_3   0.782127 0.767946 0.698449 0.053046
H12   H     H_    0.853003 0.705864 0.681767 0.141931
H13   H     H_    0.806813 0.841329 0.776657 0.147231
C28   C     C_3   0.764436 0.834643 0.563203 -0.811625
H14   H     H_    0.705658 0.909282 0.581242 0.254583
H15   H     H_    0.847580 0.878246 0.526260 0.202090
H16   H     H_    0.730002 0.768560 0.482674 0.227583

loop_
_geom_bond_atom_site_label_1
_geom_bond_atom_site_label_2
_ccdc_geom_bond_type
Cu1   O7    S    
C9    H8    S    
C23   C24   S    
Cu2   O6    S    
C26   H4    S    
C6    C7    A    
C12   O4    A    
C11   H10   S    
Cu2   O8    S    
Cu1   N2    S    
Cu2   O2    S    
C14   C15   A    
C21   O7    A    
C19   H3    S    
C27   C28   S    
C21   O8    A    
C2    C3    A    
C4    H7    S    
C19   N2    A    
C5    C10   A    
C2    C26   A    
C13   C14   A    
C28   H16   S    
C11   C13   A    
Cu1   O1    S    
C28   H14   S    
C6    C26   A    
C14   H2    S    
C8    H1    S    
Cu1   O3    S    
Cu1   O5    S    
C18   H9    S    
C20   O5    A    
O9    C27   S    
C5    C6    A    
C28   H15   S    
Cu2   O4    S    
C13   H11   S    
C20   O6    A    
C16   C17   A    
Cu2   N1    S    
C15   C16   A    
C12   C22   S    
C1    O1    A    
C7    C8    A    
C24   C25   T    
C2    H5    S    
C12   O3    A    
C18   C19   A    
C9    C10   A    
C15   O9    S    
Cu1   Cu2   S    
C18   N1    A    
C22   C23   T    
C4    C5    A    
C21   C25   S    
C3    H6    S    
C1    C7    S    
C16   N2    A    
C1    O2    A    
C11   C17   A    
C3    C4    A    
C27   H12   S    
C10   C20   S    
C8    C9    A    
C27   H13   S    
C17   N1    A    
