data_mof_unit_2197.cif
_audit_creation_date              2012-12-10T18:33:31-0500
_audit_creation_method            fapswitch 2.2
_symmetry_space_group_name_H-M    P1
_symmetry_Int_Tables_number       1
_space_group_crystal_system       triclinic
_cell_length_a                    8.725983
_cell_length_b                    15.157772
_cell_length_c                    13.852402
_cell_angle_alpha                 90.79831
_cell_angle_beta                  97.763799
_cell_angle_gamma                 89.644478
_cell_volume                      1815.21955914

loop_
_atom_site_label
_atom_site_type_symbol
_atom_type_description
_atom_site_fract_x
_atom_site_fract_y
_atom_site_fract_z
_atom_type_partial_charge
C1    C     C_R   0.498408 0.330239 0.499158 0.789398
C2    C     C_R   0.499621 0.670249 0.500915 0.802733
C3    C     C_R   0.558353 0.572211 0.112599 0.065087
C4    C     C_R   0.608709 0.446879 0.900408 0.060155
C5    C     C_R   0.560724 0.569140 0.214828 0.032891
C6    C     C_R   0.608071 0.451659 0.798383 0.034420
C7    C     C_R   0.433862 0.431989 0.203208 0.020800
C8    C     C_R   0.387194 0.543619 0.781787 0.007228
C9    C     C_R   0.431973 0.429595 0.101345 -0.134252
C10   C     C_R   0.384064 0.543770 0.883123 -0.127051
C11   C     C_R   0.498430 0.499123 0.054252 0.068550
C12   C     C_R   0.498273 0.497133 0.944907 0.070080
C13   C     C_R   0.203697 0.500189 0.475173 0.861367
C14   C     C_R   0.796302 0.499465 0.524832 0.874714
C15   C     C_2   0.038030 0.499973 0.461397 -0.375516
C16   C     C_2   0.961993 0.499411 0.538643 -0.379547
C17   C     C_R   0.620945 0.094867 0.541887 -0.185503
C18   C     C_R   0.603632 0.906113 0.457218 -0.203530
C19   C     C_R   0.625023 0.186687 0.542650 0.116549
C20   C     C_R   0.611611 0.814295 0.460304 0.121210
C21   C     C_R   0.495423 0.233978 0.496975 -0.093518
C22   C     C_R   0.499381 0.767376 0.504056 -0.081988
C23   C     C_R   0.363575 0.188654 0.449173 0.062207
C24   C     C_R   0.390845 0.814408 0.553794 0.065586
C25   C     C_R   0.363742 0.095519 0.448669 0.008594
C26   C     C_R   0.390564 0.907577 0.553230 0.000391
C27   C     C_R   0.491965 0.049406 0.496499 -0.008467
C28   C     C_R   0.493291 0.952504 0.501571 0.001237
Cu1   Cu    Cu3+1 0.500000 0.499990 0.596430 0.935250
Cu2   Cu    Cu3+1 0.500000 0.500010 0.403570 0.936654
H1    H     H_    0.978380 0.500283 0.387220 0.182628
H2    H     H_    0.021622 0.499217 0.612831 0.178322
H3    H     H_    0.719211 0.058159 0.577616 0.161941
H4    H     H_    0.686851 0.942510 0.422088 0.154067
H5    H     H_    0.609136 0.623507 0.259165 0.119248
H6    H     H_    0.693063 0.415046 0.763929 0.134823
H7    H     H_    0.380543 0.379664 0.238369 0.143156
H8    H     H_    0.297894 0.577791 0.734671 0.141058
N1    N     N_R   0.500000 0.500020 0.258690 -0.187571
N2    N     N_R   0.500000 0.499980 0.741310 -0.185869
O1    O     O_R   0.500010 0.371450 0.581430 -0.573971
O2    O     O_R   0.499990 0.628550 0.418570 -0.594897
O3    O     O_R   0.500010 0.371460 0.418560 -0.585846
O4    O     O_R   0.499990 0.628540 0.581440 -0.577166
O5    O     O_R   0.274840 0.499990 0.562640 -0.584900
O6    O     O_R   0.725160 0.500010 0.437360 -0.571064
O7    O     O_R   0.274840 0.500000 0.399770 -0.581570
O8    O     O_R   0.725160 0.500000 0.600230 -0.594220
C29   C     C_3   0.770805 0.231349 0.591747 -0.394535
C30   C     C_3   0.780647 0.227426 0.702453 -0.795172
H9    H     H_    0.882692 0.265306 0.736800 0.238242
H10   H     H_    0.674802 0.256409 0.726663 0.252652
H11   H     H_    0.793154 0.158052 0.727157 0.254698
H12   H     H_    0.873874 0.197992 0.568468 0.201825
H13   H     H_    0.777720 0.301253 0.570222 0.193842
C31   C     C_3   0.750000 0.769811 0.424673 -0.404235
C32   C     C_3   0.864451 0.738031 0.510219 -0.817290
H14   H     H_    0.812669 0.686270 0.551169 0.248888
H15   H     H_    0.968614 0.710108 0.482869 0.235067
H16   H     H_    0.898804 0.794201 0.560585 0.252721
H17   H     H_    0.714604 0.714208 0.374816 0.209551
H18   H     H_    0.811794 0.816348 0.382175 0.206903
C33   C     C_3   0.220952 0.238442 0.401682 -0.391337
C34   C     C_3   0.205026 0.232587 0.290413 -0.783714
H19   H     H_    0.129769 0.287003 0.258317 0.232501
H20   H     H_    0.319826 0.237309 0.264866 0.247929
H21   H     H_    0.151294 0.169315 0.263279 0.258879
H22   H     H_    0.115362 0.211449 0.427026 0.198804
H23   H     H_    0.222793 0.309012 0.423627 0.196682
C35   C     C_3   0.275352 0.767276 0.608016 -0.398432
C36   C     C_3   0.332113 0.764550 0.717263 -0.774344
H24   H     H_    0.243859 0.732246 0.755284 0.232227
H25   H     H_    0.442502 0.727234 0.731361 0.262506
H26   H     H_    0.350947 0.832135 0.748190 0.254169
H27   H     H_    0.162863 0.802336 0.596862 0.203426
H28   H     H_    0.249060 0.699639 0.579362 0.201305
C37   C     C_1   0.232382 0.046677 0.399898 0.243062
N3    N     N_1   0.127685 0.007477 0.361271 -0.303495
C38   C     C_1   0.286721 0.957765 0.606905 0.236168
N4    N     N_1   0.203962 0.997830 0.649581 -0.290143
C39   C     C_3   0.608926 0.656822 0.068922 -0.425389
C40   C     C_3   0.768443 0.649403 0.036274 -0.788228
H29   H     H_    0.854515 0.625105 0.096584 0.253048
H30   H     H_    0.764943 0.605065 0.971815 0.266748
H31   H     H_    0.805553 0.715474 0.014979 0.250588
H32   H     H_    0.523225 0.677075 0.006589 0.220402
H33   H     H_    0.612645 0.711722 0.123288 0.197064
C41   C     C_3   0.719914 0.382746 0.956984 -0.413723
C42   C     C_3   0.859651 0.428148 0.014170 -0.803813
H34   H     H_    0.917483 0.470983 0.965764 0.262413
H35   H     H_    0.824351 0.467360 0.075592 0.259592
H36   H     H_    0.944104 0.377503 0.045170 0.250015
H37   H     H_    0.659384 0.343709 0.007268 0.219574
H38   H     H_    0.763361 0.334074 0.906224 0.200309
C43   C     C_1   0.355810 0.356907 0.046397 0.198408
N5    N     N_1   0.294643 0.298697 0.002314 -0.279658
C44   C     C_1   0.259406 0.589500 0.921626 0.196023
N6    N     N_1   0.159478 0.626085 0.952523 -0.296618

loop_
_geom_bond_atom_site_label_1
_geom_bond_atom_site_label_2
_ccdc_geom_bond_type
C1    C21   S    
C43   N5    T    
C20   C31   S    
C44   N6    T    
C24   C35   S    
C14   O6    A    
C37   N3    T    
C8    H8    S    
C25   C37   S    
C22   C24   A    
C19   C21   A    
C24   C26   A    
C32   H15   S    
C29   H12   S    
C31   C32   S    
C33   H22   S    
C1    O3    A    
C33   H23   S    
C2    O4    A    
C2    C22   S    
C30   H10   S    
C35   C36   S    
C42   H35   S    
C4    C12   A    
C9    C43   S    
C39   H32   S    
C31   H18   S    
C23   C33   S    
C17   H3    S    
C39   C40   S    
C21   C23   A    
C41   H38   S    
C30   H11   S    
Cu1   O8    S    
C17   C27   A    
C34   H21   S    
Cu2   O7    S    
C6    N2    A    
C18   C28   A    
C4    C6    A    
C36   H25   S    
C32   H16   S    
C14   O8    A    
C29   H13   S    
C38   N4    T    
Cu1   O5    S    
C34   H20   S    
C10   C44   S    
C3    C39   S    
Cu1   Cu2   S    
C9    C11   A    
C19   C29   S    
C30   H9    S    
C7    H7    S    
C42   H36   S    
C18   H4    S    
C39   H33   S    
C10   C12   A    
C1    O1    A    
C20   C22   A    
C40   H29   S    
C40   H30   S    
C13   C15   S    
Cu1   O4    S    
C35   H28   S    
C14   C16   S    
Cu2   O3    S    
C25   C27   A    
C35   H27   S    
C13   O7    A    
C7    C9    A    
C41   H37   S    
Cu1   O1    S    
Cu2   O6    S    
C3    C5    A    
C36   H26   S    
C11   C12   S    
C15   H1    S    
C4    C41   S    
C16   H2    S    
C40   H31   S    
C26   C28   A    
C26   C38   S    
C34   H19   S    
C5    N1    A    
C36   H24   S    
C13   O5    A    
C32   H14   S    
C2    O2    A    
C5    H5    S    
Cu1   N2    S    
C17   C19   A    
C6    H6    S    
Cu2   N1    S    
C18   C20   A    
C23   C25   A    
C3    C11   A    
C33   C34   S    
C41   C42   S    
C8    C10   A    
C29   C30   S    
C27   C28   S    
C7    N1    A    
C31   H17   S    
Cu2   O2    S    
C8    N2    A    
C42   H34   S    
C15   C16   D    
