data_mof_unit_2174.cif
_audit_creation_date              2012-12-11T15:57:40-0500
_audit_creation_method            fapswitch 2.2
_symmetry_space_group_name_H-M    P1
_symmetry_Int_Tables_number       1
_space_group_crystal_system       triclinic
_cell_length_a                    10.70221
_cell_length_b                    10.791115
_cell_length_c                    16.999744
_cell_angle_alpha                 99.561225
_cell_angle_beta                  99.470195
_cell_angle_gamma                 61.490899
_cell_volume                      1692.99557398

loop_
_atom_site_label
_atom_site_type_symbol
_atom_type_description
_atom_site_fract_x
_atom_site_fract_y
_atom_site_fract_z
_atom_type_partial_charge
C1    C     C_R   0.355581 0.773999 0.401109 0.561331
C2    C     C_2   0.829187 0.326277 0.159196 0.025288
C3    C     C_2   0.893544 0.216215 0.204906 -0.137459
C4    C     C_2   0.855922 0.226008 0.284536 -0.174828
C5    C     C_2   0.335171 0.843913 0.330892 -0.139181
C6    C     C_2   0.343623 0.828688 0.159541 -0.092082
C7    C     C_2   0.436733 0.854485 0.214905 0.228874
C8    C     C_2   0.450113 0.820677 0.296850 -0.148887
C9    C     C_2   0.301728 0.312840 0.636142 -0.067694
C10   C     C_2   0.316613 0.313995 0.811550 0.276930
C11   C     C_2   0.349441 0.200249 0.756209 -0.116718
C12   C     C_R   0.369146 0.346147 0.357450 0.548512
C13   C     C_2   0.380584 0.200124 0.676422 -0.130417
C14   C     C_1   0.817193 0.342392 0.708741 -0.039385
C15   C     C_1   0.844310 0.313602 0.776370 -0.033009
C16   C     C_1   0.358263 0.764935 0.713430 -0.031541
C17   C     C_1   0.325736 0.812673 0.780260 -0.054664
C18   C     C_R   0.893930 0.307530 0.086634 0.556791
C19   C     C_R   0.318403 0.298764 0.119987 0.546461
C20   C     C_R   0.293169 0.893758 0.084876 0.564558
C21   C     C_R   0.886006 0.296801 0.858599 0.555281
C22   C     C_R   0.305522 0.290137 0.891391 0.533724
C23   C     C_R   0.779767 0.375817 0.406665 0.550794
C24   C     C_R   0.280245 0.881792 0.857000 0.531582
C25   C     C_R   0.381178 0.714397 0.631445 0.569745
C26   C     C_R   0.364347 0.344642 0.578342 0.556886
C27   C     C_R   0.772772 0.381396 0.629698 0.541746
C28   C     C_1   0.341712 0.335046 0.274195 -0.031289
C29   C     C_1   0.330102 0.324975 0.203308 -0.028148
C30   C     C_2   0.866421 0.323949 0.340165 -0.115532
Cr1   Cr    Cr6+3 0.608020 0.610770 0.522990 1.015265
Cr2   Cr    Cr6+3 0.289390 0.599570 0.488050 1.018408
Cr3   Cr    Cr6+3 0.602610 0.289690 0.489020 1.011419
Cr4   Cr    Cr6+3 0.053780 0.052210 0.965970 1.006510
Cr5   Cr    Cr6+3 0.060060 0.372530 0.992430 1.000417
Cr6   Cr    Cr6+3 0.372600 0.061970 0.991430 1.040713
H1    H     H_    0.982779 0.116866 0.185193 0.143954
H2    H     H_    0.479273 0.113752 0.655810 0.151521
H3    H     H_    0.199487 0.394240 0.655317 0.131229
H4    H     H_    0.805136 0.164282 0.293892 0.148527
H5    H     H_    0.918444 0.383832 0.328822 0.110906
H6    H     H_    0.556649 0.769636 0.327720 0.137118
H7    H     H_    0.289618 0.772920 0.173788 0.048548
H8    H     H_    0.228114 0.896337 0.300579 0.097937
H9    H     H_    0.365390 0.099482 0.771654 0.116901
O1    O     O_R   0.749250 0.499990 0.439200 -0.521809
O2    O     O_R   0.299400 0.468710 0.556310 -0.511899
O3    O     O_R   0.489240 0.256450 0.560730 -0.510714
O4    O     O_R   0.723350 0.306730 0.584410 -0.491271
O5    O     O_3   0.500010 0.500010 0.500020 -0.266704
O6    O     O_R   0.170650 0.915100 0.051290 -0.538388
O7    O     O_R   0.941960 0.184500 0.049060 -0.502276
O8    O     O_R   0.922640 0.402670 0.071640 -0.517370
O9    O     O_R   0.196880 0.368740 0.083740 -0.503347
O10   O     O_R   0.411120 0.181190 0.091480 -0.484528
O11   O     O_R   0.364220 0.944920 0.062310 -0.440181
O12   O     O_R   0.477870 0.725740 0.440280 -0.493517
O13   O     O_R   0.158740 0.906940 0.874970 -0.531551
O14   O     O_R   0.930920 0.176940 0.885610 -0.490489
O15   O     O_R   0.910730 0.394510 0.895320 -0.522233
O16   O     O_R   0.185840 0.361180 0.920280 -0.524754
O17   O     O_R   0.399210 0.173040 0.915160 -0.532692
O18   O     O_R   0.353170 0.937370 0.898860 -0.502916
O19   O     O_3   0.162150 0.162240 0.983280 -0.253755
O20   O     O_R   0.260770 0.742210 0.412610 -0.510514
O21   O     O_R   0.297990 0.466320 0.394220 -0.503505
O22   O     O_R   0.487720 0.253870 0.385870 -0.524446
O23   O     O_R   0.721940 0.304340 0.422320 -0.499113
O24   O     O_R   0.750770 0.502570 0.614050 -0.521213
O25   O     O_R   0.479280 0.728140 0.602370 -0.495675
O26   O     O_R   0.262290 0.744790 0.587460 -0.504707
O27   O     O_3   0.309364 0.438841 0.793257 -0.598430
C31   C     C_3   0.202807 0.562007 0.831477 0.008963
H10   H     H_    0.218045 0.651915 0.821173 0.174478
H11   H     H_    0.216311 0.561697 0.897675 0.143549
C32   C     C_3   0.051499 0.590599 0.794298 -0.263131
H12   H     H_    0.038128 0.611404 0.730812 0.158853
H13   H     H_    0.034539 0.497078 0.795146 0.184288
C33   C     C_3   0.937665 0.718345 0.839445 -0.441127
H14   H     H_    0.947552 0.699242 0.902935 0.150520
H15   H     H_    0.829919 0.736206 0.811248 0.153944
H16   H     H_    0.948716 0.814919 0.837305 0.169479
C34   C     C_3   0.697068 0.463687 0.179322 -0.276902
C35   C     C_3   0.567350 0.438477 0.175378 -0.423906
H17   H     H_    0.544499 0.395206 0.113864 0.157259
H18   H     H_    0.585274 0.363632 0.218478 0.165486
H19   H     H_    0.472744 0.539591 0.191136 0.128556
H20   H     H_    0.714334 0.514853 0.239282 0.138055
H21   H     H_    0.672363 0.540218 0.135570 0.146124
O28   O     O_3   0.501395 0.931506 0.198563 -0.523493
C36   C     C_3   0.651483 0.860062 0.216758 0.018167
H22   H     H_    0.700852 0.860317 0.164210 0.154626
H23   H     H_    0.695160 0.746526 0.226555 0.096524
C37   C     C_3   0.696164 0.940031 0.289225 -0.256612
H24   H     H_    0.657478 0.050741 0.276225 0.189546
H25   H     H_    0.646456 0.943186 0.342431 0.176156
C38   C     C_3   0.858248 0.870156 0.308348 -0.477275
H26   H     H_    0.898908 0.759427 0.322066 0.154674
H27   H     H_    0.886965 0.930243 0.361409 0.158949
H28   H     H_    0.910197 0.869844 0.256804 0.145204

loop_
_geom_bond_atom_site_label_1
_geom_bond_atom_site_label_2
_ccdc_geom_bond_type
Cr5   O8    S    
C31   H10   S    
C35   H19   S    
C20   O11   A    
C38   H26   S    
C18   O7    A    
C7    C8    S    
C10   C22   S    
Cr4   O6    S    
C12   C28   S    
C1    C5    S    
C28   C29   T    
C35   H18   S    
C21   O14   A    
C20   O6    A    
C36   H23   S    
Cr3   O4    S    
C9    H3    S    
C9    C13   D    
C18   O8    A    
Cr1   O25   S    
C4    H4    S    
C16   C17   T    
Cr1   O1    S    
C1    O20   A    
C32   C33   S    
C30   H5    S    
Cr5   O19   S    
C25   O26   A    
C14   C27   S    
Cr6   O18   S    
C27   O24   A    
C26   O3    A    
C34   H20   S    
C23   O1    A    
Cr5   O9    S    
C31   H11   S    
C2    C34   S    
Cr6   O17   S    
C38   H27   S    
C9    C26   S    
Cr2   O26   S    
C34   H21   S    
C12   O22   A    
C17   C24   S    
C23   C30   S    
C32   H12   S    
C21   O15   A    
C36   H22   S    
C33   H15   S    
C37   C38   S    
Cr3   O5    S    
C7    O28   S    
C12   O21   A    
Cr5   O15   S    
C23   O23   A    
Cr6   O11   S    
C1    O12   A    
C22   O17   A    
C34   C35   S    
Cr1   O24   S    
Cr4   O19   S    
Cr5   O16   S    
C35   H17   S    
C37   H25   S    
Cr2   O5    S    
C13   H2    S    
C26   O2    A    
C19   O9    A    
C5    H8    S    
C24   O18   A    
C6    H7    S    
Cr4   O14   S    
Cr2   O2    S    
C11   H9    S    
C5    C8    D    
Cr1   O5    S    
C8    H6    S    
C3    C4    S    
C19   C29   S    
C38   H28   S    
Cr3   O22   S    
Cr2   O21   S    
C19   O10   A    
C16   C25   S    
C32   H13   S    
O27   C31   S    
C33   H16   S    
C6    C7    D    
C6    C20   S    
Cr4   O7    S    
Cr1   O12   S    
C2    C3    D    
Cr6   O10   S    
C36   C37   S    
C11   C13   S    
O28   C36   S    
C31   C32   S    
C37   H24   S    
C10   C11   D    
C33   H14   S    
C2    C18   S    
C15   C21   S    
C3    H1    S    
C24   O13   A    
Cr4   O13   S    
Cr3   O3    S    
C14   C15   T    
C25   O25   A    
Cr6   O19   S    
C4    C30   D    
C27   O4    A    
Cr3   O23   S    
Cr2   O20   S    
C22   O16   A    
C10   O27   S    
