data_mof_unit_4405.cif
_audit_creation_date              2012-12-11T20:00:39-0500
_audit_creation_method            fapswitch 2.2
_symmetry_space_group_name_H-M    P1
_symmetry_Int_Tables_number       1
_space_group_crystal_system       triclinic
_cell_length_a                    8.256116
_cell_length_b                    16.251338
_cell_length_c                    26.967845
_cell_angle_alpha                 72.734303
_cell_angle_beta                  96.708088
_cell_angle_gamma                 96.282429
_cell_volume                      3420.97425408

loop_
_atom_site_label
_atom_site_type_symbol
_atom_type_description
_atom_site_fract_x
_atom_site_fract_y
_atom_site_fract_z
_atom_type_partial_charge
Ba1   Ba    Ba6+2 0.337820 0.939830 0.518500 1.661386
Ba2   Ba    Ba6+2 0.851970 0.060110 0.481480 1.635874
C1    C     C_3   0.135118 0.518305 0.641324 -0.353261
C2    C     C_R   0.463231 0.401407 0.190293 0.577481
C3    C     C_2   0.294941 0.282497 0.280807 -0.109646
C4    C     C_3   0.605602 0.621441 0.622994 0.348386
C5    C     C_3   0.278059 0.244911 0.338503 -0.049340
C6    C     C_1   0.473157 0.141619 0.340532 0.031935
C7    C     C_2   0.521031 0.189690 0.294187 -0.111635
C8    C     C_2   0.422812 0.262763 0.260071 0.191984
C9    C     C_R   0.533000 0.406502 0.103743 -0.079799
C10   C     C_R   0.534309 0.315793 0.120639 -0.029166
C11   C     C_R   0.567329 0.273212 0.085138 -0.065438
C12   C     C_3   0.109584 0.614222 0.620572 0.364245
C13   C     C_R   0.499131 0.449378 0.139148 -0.027648
C14   C     C_2   0.344966 0.157829 0.360190 -0.268445
C15   C     C_2   0.824655 0.832622 0.634506 -0.258932
C16   C     C_3   0.647292 0.531028 0.655176 -0.349451
C17   C     C_R   0.613128 0.457560 0.962240 0.019793
C18   C     C_R   0.611232 0.594131 0.984270 0.020195
C19   C     C_R   0.627643 0.549518 0.947326 0.050415
C20   C     C_R   0.619501 0.416411 0.923125 -0.102095
C21   C     C_R   0.644709 0.463596 0.871907 -0.061607
C22   C     C_R   0.666705 0.554083 0.857218 -0.028618
C23   C     C_3   0.079859 0.014459 0.646039 0.270352
C24   C     C_R   0.658781 0.597337 0.894890 -0.080231
C25   C     C_R   0.681490 0.688351 0.880087 -0.034666
C26   C     C_R   0.716794 0.734582 0.828408 0.594189
C27   C     C_R   0.695635 0.601975 0.805455 0.591300
C28   C     C_3   0.611720 0.886603 0.388302 0.285214
C29   C     C_2   0.886201 0.713866 0.717342 -0.099254
C30   C     C_3   0.903977 0.749407 0.659524 -0.068707
C31   C     C_1   0.712068 0.856023 0.657501 0.035393
C32   C     C_2   0.672977 0.813683 0.705632 -0.088613
C33   C     C_2   0.766397 0.738917 0.738734 0.212404
C34   C     C_3   0.077302 0.975540 0.704673 -0.353728
C35   C     C_R   0.590859 0.409933 0.015250 0.020218
C36   C     C_R   0.565441 0.454416 0.051420 0.049460
C37   C     C_R   0.571639 0.546308 0.035790 0.019204
C38   C     C_R   0.594214 0.318894 0.033724 -0.102183
C39   C     C_R   0.500401 0.539789 0.122683 -0.056942
C40   C     C_3   0.620831 0.819464 0.359251 -0.195915
C41   C     C_R   0.636024 0.685512 0.968215 -0.099168
C42   C     C_R   0.670867 0.731241 0.917501 -0.059548
C43   C     C_R   0.536255 0.587144 0.072429 -0.101090
C44   C     C_2   0.407565 0.243910 0.515618 -0.293487
C45   C     C_3   0.658898 0.358788 0.368714 0.332470
C46   C     C_R   0.801215 0.760505 0.490147 -0.306266
C47   C     C_2   0.249984 0.314308 0.561013 -0.128492
C48   C     C_2   0.269622 0.245262 0.545397 0.035154
C49   C     C_2   0.513487 0.313025 0.501087 0.003545
C50   C     C_3   0.467757 0.398804 0.504158 -0.047739
C51   C     C_3   0.375098 0.390295 0.551741 0.006607
C52   C     C_3   0.571725 0.110462 0.616993 0.320000
C53   C     C_2   0.606601 0.466125 0.501140 -0.070315
C54   C     C_2   0.573715 0.548828 0.484942 -0.060488
C55   C     C_R   0.844548 0.616665 0.458227 0.009085
C56   C     C_3   0.685003 0.432271 0.319368 -0.292638
C57   C     C_R   0.702851 0.619040 0.481568 -0.040911
C58   C     C_R   0.960628 0.687132 0.449093 -0.127462
C59   C     C_R   0.935964 0.760225 0.463675 0.082115
C60   C     C_R   0.680848 0.691851 0.497328 -0.009062
C61   C     C_3   0.564124 0.173718 0.649227 -0.207976
C62   C     C_3   0.073194 0.984632 0.348463 0.303233
C63   C     C_3   0.969642 0.011012 0.295899 -0.206031
C64   C     C_2   0.455997 0.785319 0.340228 0.880362
C65   C     C_3   0.707454 0.243606 0.643076 -0.252482
C66   C     C_3   0.867698 0.207024 0.669942 -0.335820
C67   C     C_3   0.141995 0.379211 0.396313 0.339691
C68   C     C_3   0.034039 0.095987 0.258531 -0.292704
C69   C     C_3   0.170241 0.083327 0.228482 -0.366537
C70   C     C_3   0.129652 0.474427 0.390418 -0.350173
C71   C     C_R   0.502344 0.269280 0.172599 0.578194
H1    H     H_    0.151215 0.639863 0.580751 0.083538
H2    H     H_    0.065252 0.483380 0.614920 0.061444
H3    H     H_    0.960878 0.958739 0.276576 0.134266
H4    H     H_    0.843019 0.017585 0.303430 0.120204
H5    H     H_    0.976190 0.619784 0.618148 -0.081989
H6    H     H_    0.091144 0.491656 0.680775 0.111884
H7    H     H_    0.952516 0.012882 0.627844 0.019887
H8    H     H_    0.152545 0.974568 0.631357 0.091442
H9    H     H_    0.000700 0.012463 0.720306 0.127532
H10   H     H_    0.025624 0.907316 0.713689 0.083843
H11   H     H_    0.203667 0.977345 0.723879 0.131539
H12   H     H_    0.694479 0.848716 0.325455 0.074996
H13   H     H_    0.266251 0.507643 0.643647 0.148939
H14   H     H_    0.757379 0.535225 0.682472 0.119847
H15   H     H_    0.722207 0.303057 0.366786 0.099974
H16   H     H_    0.525982 0.340456 0.370384 -0.049342
H17   H     H_    0.809339 0.465288 0.321715 0.144337
H18   H     H_    0.673260 0.405863 0.285575 0.115737
H19   H     H_    0.593372 0.480250 0.313535 0.141426
H20   H     H_    0.271423 0.370588 0.392668 -0.048326
H21   H     H_    0.108008 0.341271 0.435829 0.070819
H22   H     H_    0.217292 0.495006 0.419778 0.072169
H23   H     H_    0.684182 0.764047 0.385353 -0.015079
H24   H     H_    0.004337 0.485579 0.396623 0.147565
H25   H     H_    0.569570 0.656664 0.649046 0.079514
H26   H     H_    0.159416 0.514096 0.350840 0.139483
H27   H     H_    0.631048 0.175986 0.280693 0.133848
H28   H     H_    0.571490 0.203615 0.096907 0.120501
H29   H     H_    0.957126 0.660588 0.739961 0.102388
H30   H     H_    0.648064 0.428373 0.843694 0.117530
H31   H     H_    0.601442 0.347327 0.930507 0.068445
H32   H     H_    0.621023 0.280736 0.009600 0.068980
H33   H     H_    0.214919 0.331443 0.258018 0.122706
H34   H     H_    0.445519 0.091884 0.603551 0.004441
H35   H     H_    0.473455 0.574856 0.148825 0.129401
H36   H     H_    0.633118 0.724053 0.994360 0.070318
H37   H     H_    0.718352 0.655222 0.605423 -0.074073
H38   H     H_    0.689360 0.801061 0.907669 0.120883
H39   H     H_    0.571371 0.832162 0.721079 0.119746
H40   H     H_    0.531249 0.656039 0.063165 0.072214
H41   H     H_    0.299095 0.113636 0.395355 0.066925
H42   H     H_    0.843830 0.864908 0.593963 0.078530
H43   H     H_    0.152593 0.312405 0.585195 0.075138
H44   H     H_    0.064261 0.686409 0.428140 0.110149
H45   H     H_    0.641973 0.140933 0.582534 0.032970
H46   H     H_    0.427998 0.183656 0.508580 0.066348
H47   H     H_    0.783686 0.817231 0.501470 0.070085
H48   H     H_    0.730533 0.448309 0.514885 0.089740
H49   H     H_    0.544130 0.497032 0.678111 0.133925
H50   H     H_    0.447519 0.564945 0.474805 0.101487
H51   H     H_    0.673614 0.493393 0.629123 0.093041
H52   H     H_    0.736516 0.902019 0.404537 -0.017101
H53   H     H_    0.531674 0.859906 0.420667 0.061534
H54   H     H_    0.210395 0.786248 0.334242 0.310038
H55   H     H_    0.857456 0.177572 0.712358 0.126114
H56   H     H_    0.449854 0.206889 0.636809 0.053889
H57   H     H_    0.898347 0.157381 0.652817 0.178055
H58   H     H_    0.967726 0.259588 0.664415 0.106173
H59   H     H_    0.721438 0.275975 0.601126 0.119484
H60   H     H_    0.679954 0.293662 0.660739 0.118546
H61   H     H_    0.280137 0.061991 0.255257 0.158256
H62   H     H_    0.128486 0.034836 0.207168 0.140575
H63   H     H_    0.203088 0.145617 0.199502 0.164261
H64   H     H_    0.931648 0.123602 0.229927 0.152506
H65   H     H_    0.079143 0.143122 0.280138 0.134816
H66   H     H_    0.556884 0.137751 0.691119 0.139390
H67   H     H_    0.205393 0.996814 0.342629 0.033234
H68   H     H_    0.042823 0.023370 0.373297 0.044459
N1    N     N_R   0.463851 0.311652 0.206992 -0.420069
N2    N     N_R   0.724950 0.691359 0.791618 -0.421727
O1    O     O_2   0.431310 0.922990 0.623550 -0.459218
O2    O     O_2   0.850776 0.306593 0.504184 -0.488395
O3    O     O_3   0.723260 0.386331 0.412078 -0.600518
O4    O     O_3   0.663280 0.983100 0.563360 -0.491195
O5    O     O_3   0.016420 0.932050 0.462720 -0.500362
O6    O     O_2   0.959730 0.164640 0.549160 -0.447763
O7    O     O_3   0.150132 0.099784 0.635478 -0.658884
O8    O     O_2   0.927554 0.216424 0.327878 -0.507764
O9    O     O_3   0.035474 0.354021 0.357720 -0.595433
O10   O     O_2   0.506720 0.190809 0.186757 -0.620411
O11   O     O_2   0.693423 0.563863 0.772527 -0.620314
O12   O     O_3   0.038665 0.895531 0.369586 -0.627457
O13   O     O_2   0.432597 0.440262 0.220082 -0.615001
O14   O     O_2   0.742380 0.813196 0.816482 -0.599348
O15   O     O_3   0.126250 0.812630 0.574830 -0.483270
O16   O     O_2   0.233850 0.809522 0.672956 -0.484400
O17   O     O_3   0.645083 0.037170 0.648612 -0.642918
O18   O     O_3   0.198703 0.658747 0.653880 -0.577438
O19   O     O_2   0.229950 0.835370 0.450810 -0.425330
O20   O     O_3   0.517580 0.797570 0.545130 -0.480324
O21   O     O_2   0.340091 0.694692 0.494028 -0.492403
O22   O     O_2   0.448772 0.730530 0.317111 -0.609139
O23   O     O_3   0.474322 0.615463 0.585667 -0.599996
O24   O     O_R   0.312273 0.815118 0.348816 -0.725883
O25   O     O_2   0.758370 0.077020 0.376420 -0.475593
O26   O     O_3   0.526390 0.016840 0.436620 -0.486754
O27   O     O_3   0.063420 0.187310 0.425160 -0.468023
O28   O     O_3   0.550969 0.960858 0.353050 -0.625209
O29   O     O_3   0.173250 0.067890 0.537260 -0.480772
O30   O     O_3   0.672100 0.202370 0.454860 -0.489165
P1    P     P_3+3 0.610630 0.953360 0.619150 0.988030
P2    P     P_3+3 0.057260 0.861390 0.437850 1.009215
P3    P     P_3+3 0.500619 0.700498 0.528916 0.957791
P4    P     P_3+3 0.579040 0.046590 0.380840 0.990291
P5    P     P_3+3 0.690988 0.301825 0.468687 0.948523
P6    P     P_3+3 0.117428 0.758744 0.641243 0.964269
P7    P     P_3+3 0.141911 0.145348 0.567836 0.931954
P8    P     P_3+3 0.073534 0.248906 0.360504 0.938684

loop_
_geom_bond_atom_site_label_1
_geom_bond_atom_site_label_2
_ccdc_geom_bond_type
C53   C54   D    
C4    O23   S    
C39   H35   S    
Ba2   O25   S    
C67   C70   S    
C23   H7    S    
C32   H39   S    
C65   H59   S    
C59   P2    S    
C19   C24   A    
C56   H18   S    
C1    H6    S    
C69   H61   S    
C28   H53   S    
O4    P1    S    
C46   H47   S    
O15   P6    S    
C27   O11   D    
C62   O12   S    
C24   C25   A    
C63   H3    S    
C52   H34   S    
C40   H23   S    
C4    H25   S    
Ba1   O15   S    
C17   C19   A    
C22   C24   A    
C32   C33   S    
C35   C38   A    
C67   H20   S    
Ba2   O30   S    
C2    N1    Am   
C36   C37   A    
C55   C57   A    
C52   C61   S    
C34   H10   S    
Ba2   O5    S    
O25   P4    D    
C27   N2    Am   
C20   H31   S    
O3    P5    S    
Ba1   Ba2   S    
C8    N1    S    
C22   C27   A    
C11   C38   A    
C53   H48   S    
C17   C35   A    
C70   H22   S    
C9    C13   A    
C25   C42   A    
C21   H30   S    
C34   H9    S    
C6    C7    D    
O2    P5    D    
C21   C22   A    
C30   P6    S    
C68   C69   S    
Ba2   P4    S    
O18   P6    S    
C49   P5    S    
C1    H2    S    
C7    C8    S    
C66   H55   S    
C50   C53   S    
C37   C43   A    
O29   P7    S    
Ba2   O6    S    
C61   H56   S    
C45   O3    S    
C3    H33   S    
C6    C14   D    
C10   C71   A    
C70   H24   S    
C1    H13   S    
C23   H8    S    
C4    H37   S    
C15   C31   D    
O20   P3    S    
C6    P4    S    
O26   P4    S    
O8    P8    D    
C71   N1    Am   
C4    C16   S    
C61   C65   S    
Ba1   P1    S    
O5    P2    S    
C63   H4    S    
C5    P8    S    
C49   C50   S    
C54   H50   S    
C17   C20   A    
C13   C39   A    
C67   H21   S    
C69   H63   S    
C3    C5    S    
C18   C37   A    
C55   C58   A    
O19   P2    D    
Ba2   O26   S    
Ba2   O4    S    
C44   C49   D    
O6    P7    D    
C65   C66   S    
C11   H28   S    
C58   C59   A    
C66   H58   S    
C48   P7    S    
C41   C42   A    
C29   H29   S    
C35   C36   A    
C46   C60   A    
C29   C30   S    
C60   P3    S    
C31   C32   D    
C26   N2    Am   
C58   H44   S    
C40   H12   S    
C18   C19   A    
C66   H57   S    
C31   P1    S    
C56   H17   S    
O1    P1    D    
C1    C12   S    
Ba2   O27   S    
C64   O24   S    
C5    C14   S    
C2    O13   D    
C16   H49   S    
Ba1   O19   S    
C45   H16   S    
C7    H27   S    
C52   H45   S    
O27   P8    S    
C29   C33   D    
Ba1   O4    S    
C71   O10   D    
C12   H1    S    
C18   C41   A    
C50   C51   S    
C15   H42   S    
O7    P7    S    
C9    C36   A    
C62   H67   S    
O12   P2    S    
Ba1   P2    S    
C57   C60   A    
C64   O22   D    
C65   H60   S    
C67   O9    S    
O17   P1    S    
C28   C40   S    
C34   H11   S    
O16   P6    D    
C14   H41   S    
C9    C10   A    
C68   H65   S    
C61   H66   S    
C44   C48   S    
Ba1   O29   S    
O23   P3    S    
C16   H14   S    
C54   C57   S    
C45   H15   S    
C23   O7    S    
C12   O18   S    
C3    C8    D    
Ba1   O1    S    
C62   C63   S    
C45   C56   S    
C69   H62   S    
C46   C59   A    
O30   P5    S    
C2    C13   A    
C47   C51   S    
Ba1   O26   S    
C26   O14   D    
C44   H46   S    
O21   P3    D    
C12   H5    S    
C28   O28   S    
C28   H52   S    
C23   C34   S    
C52   O17   S    
C42   H38   S    
C43   H40   S    
C47   H43   S    
C10   C11   A    
Ba1   O20   S    
C68   H64   S    
H54   O24   S    
C47   C48   D    
C62   H68   S    
C33   N2    S    
C25   C26   A    
C40   C64   S    
C15   C30   S    
C39   C43   A    
C20   C21   A    
O28   P4    S    
Ba1   O5    S    
C41   H36   S    
C16   H51   S    
O9    P8    S    
C56   H19   S    
C63   C68   S    
Ba2   O29   S    
C38   H32   S    
C70   H26   S    
