data_mof_unit_2191.cif
_audit_creation_date              2012-12-10T16:49:26-0500
_audit_creation_method            fapswitch 2.2
_symmetry_space_group_name_H-M    P1
_symmetry_Int_Tables_number       1
_space_group_crystal_system       triclinic
_cell_length_a                    19.353942
_cell_length_b                    8.687685
_cell_length_c                    7.446528
_cell_angle_alpha                 103.281232
_cell_angle_beta                  93.914195
_cell_angle_gamma                 92.748283
_cell_volume                      1213.12306262

loop_
_atom_site_label
_atom_site_type_symbol
_atom_type_description
_atom_site_fract_x
_atom_site_fract_y
_atom_site_fract_z
_atom_type_partial_charge
C1    C     C_R   0.497877 0.199566 0.452968 0.853287
C2    C     C_R   0.502123 0.800434 0.547032 0.853287
C3    C     C_2   0.496852 0.031448 0.426717 -0.327167
C4    C     C_2   0.503148 0.968552 0.573283 -0.327168
C5    C     C_R   0.367569 0.502542 0.503643 0.772666
C6    C     C_R   0.632431 0.497458 0.496357 0.772666
C7    C     C_R   0.260227 0.575404 0.673960 -0.074289
C8    C     C_R   0.739773 0.424595 0.326040 -0.074289
C9    C     C_R   0.187335 0.573641 0.671631 -0.064131
C10   C     C_R   0.812665 0.426359 0.328369 -0.064131
C11   C     C_R   0.145908 0.503376 0.506708 -0.026903
C12   C     C_R   0.854092 0.496624 0.493292 -0.026903
C13   C     C_R   0.177633 0.435221 0.345008 -0.022634
C14   C     C_R   0.822367 0.564779 0.654992 -0.022634
C15   C     C_R   0.249604 0.437231 0.348253 -0.204339
C16   C     C_R   0.750396 0.562769 0.651747 -0.204339
C17   C     C_R   0.291574 0.505662 0.510673 -0.084608
C18   C     C_R   0.708426 0.494338 0.489327 -0.084608
C19   C     C_R   0.930133 0.498369 0.496903 0.410781
C20   C     C_R   0.069867 0.501631 0.503097 0.410781
Cu1   Cu    Cu3+1 0.507710 0.517380 0.684380 1.132431
Cu2   Cu    Cu3+1 0.492290 0.482620 0.315620 1.132431
H1    H     H_    0.273045 0.383875 0.222441 0.180794
H2    H     H_    0.726954 0.616125 0.777559 0.180794
H3    H     H_    0.490909 0.959139 0.285772 0.206217
H4    H     H_    0.509091 0.040861 0.714228 0.206217
N1    N     N_R   0.030580 0.363808 0.439923 -0.195352
N2    N     N_R   0.969420 0.636192 0.560077 -0.195352
N3    N     N_R   0.961803 0.362203 0.436918 -0.194902
N4    N     N_R   0.038197 0.637797 0.563082 -0.194902
N5    N     N_2   0.480680 0.456420 0.038530 0.237767
N6    N     N_2   0.519320 0.543580 0.961470 0.237767
O1    O     O_R   0.505010 0.286130 0.619770 -0.545065
O2    O     O_R   0.494990 0.713870 0.380230 -0.545065
O3    O     O_R   0.491990 0.256780 0.308370 -0.576049
O4    O     O_R   0.508010 0.743220 0.691630 -0.576049
O5    O     O_R   0.406650 0.514660 0.655750 -0.543413
O6    O     O_R   0.593350 0.485340 0.344250 -0.543413
O7    O     O_R   0.393640 0.485310 0.344340 -0.568179
O8    O     O_R   0.606360 0.514690 0.655660 -0.568179
C21   C     C_1   0.301884 0.652536 0.843160 0.304460
N7    N     N_1   0.334926 0.714074 0.978346 -0.243064
C22   C     C_1   0.698116 0.347464 0.156839 0.304460
N8    N     N_1   0.665074 0.285925 0.021654 -0.243064
C23   C     C_1   0.155125 0.640757 0.840230 0.282745
N9    N     N_1   0.129515 0.694331 0.974628 -0.227416
C24   C     C_1   0.844875 0.359243 0.159770 0.282745
N10   N     N_1   0.870485 0.305669 0.025372 -0.227416
C25   C     C_1   0.137511 0.365947 0.171734 0.292943
N11   N     N_1   0.105445 0.310516 0.032994 -0.221418
C26   C     C_1   0.862489 0.634053 0.828266 0.292943
N12   N     N_1   0.894555 0.689484 0.967006 -0.221418
F1    F     F_    0.430850 0.363036 0.927209 -0.555160
F2    F     F_    0.569150 0.636964 0.072790 -0.555160

loop_
_geom_bond_atom_site_label_1
_geom_bond_atom_site_label_2
_ccdc_geom_bond_type
C2    C4    S    
C22   N8    T    
C6    O6    A    
C9    C23   S    
Cu2   O3    S    
C20   N1    A    
C5    O5    A    
N1    N3    A    
C11   C13   A    
C21   N7    T    
C4    H4    S    
C14   C26   S    
N6    F2    S    
C8    C22   S    
N5    N6    D    
Cu1   Cu2   S    
C2    O2    A    
N2    N4    A    
C1    O1    A    
C16   H2    S    
Cu1   O4    S    
C20   N4    A    
C23   N9    T    
N5    F1    S    
C19   N2    A    
C9    C11   A    
Cu1   O8    S    
C10   C12   A    
C13   C25   S    
Cu2   O7    S    
C12   C19   S    
C15   H1    S    
Cu1   N6    S    
C12   C14   A    
C6    O8    A    
C13   C15   A    
Cu2   O2    S    
C6    C18   S    
C14   C16   A    
C11   C20   S    
Cu1   O1    S    
Cu2   N5    S    
C26   N12   T    
C19   N3    A    
C24   N10   T    
C3    H3    S    
C5    C17   S    
C1    O3    A    
Cu1   O5    S    
C16   C18   A    
C25   N11   T    
C2    O4    A    
C10   C24   S    
C7    C9    A    
C5    O7    A    
C7    C17   A    
C15   C17   A    
C8    C10   A    
C8    C18   A    
C3    C4    D    
C7    C21   S    
C1    C3    S    
Cu2   O6    S    
