data_mof_unit_1547.cif
_audit_creation_date              2013-03-05T15:40:10-0500
_audit_creation_method            fapswitch 2.2
_symmetry_space_group_name_H-M    P1
_symmetry_Int_Tables_number       1
_space_group_crystal_system       triclinic
_cell_length_a                    7.441283
_cell_length_b                    8.725692
_cell_length_c                    13.02459
_cell_angle_alpha                 88.324318
_cell_angle_beta                  80.196776
_cell_angle_gamma                 102.085213
_cell_volume                      813.023571473

loop_
_atom_site_label
_atom_site_type_symbol
_atom_site_description
_atom_site_fract_x
_atom_site_fract_y
_atom_site_fract_z
_atom_type_partial_charge
O1    O     O_R   0.621060 0.286250 0.492350 -0.599512
O2    O     O_R   0.378940 0.713750 0.507650 -0.587803
O3    O     O_R   0.306310 0.256580 0.512240 -0.531219
O4    O     O_R   0.693690 0.743420 0.487760 -0.510521
C1    C     C_R   0.454819 0.200708 0.501125 0.847409
C2    C     C_R   0.544492 0.798671 0.503841 0.886832
O5    O     O_R   0.631800 0.512400 0.642670 -0.572366
O6    O     O_R   0.368200 0.487600 0.357330 -0.551328
O7    O     O_R   0.317060 0.482730 0.662570 -0.589595
O8    O     O_R   0.682940 0.517270 0.337430 -0.560837
C3    C     C_R   0.468282 0.492743 0.700862 0.896986
C4    C     C_R   0.531764 0.511487 0.299170 0.869283
Cu1   Cu    Cu3+1 0.686350 0.517570 0.488220 1.083726
Cu2   Cu    Cu3+1 0.313650 0.482430 0.511780 1.064080
N1    N     N_2   0.033570 0.455950 0.529530 -0.229310
N2    N     N_2   0.966430 0.544050 0.470470 -0.196229
C5    C     C_R   0.544175 0.533507 0.186575 -0.234339
C6    C     C_R   0.453584 0.478669 0.813642 -0.238406
C7    C     C_R   0.275751 0.376959 0.983491 -0.198753
C8    C     C_R   0.707828 0.656123 0.018304 -0.209858
C9    C     C_R   0.294913 0.379881 0.875676 0.244339
C10   C     C_R   0.694505 0.642464 0.126080 0.299908
C11   C     C_R   0.596510 0.567175 0.859952 0.402021
C12   C     C_R   0.400145 0.449892 0.139448 0.390199
C13   C     C_R   0.575716 0.561094 0.969306 -0.051684
C14   C     C_R   0.416549 0.462569 0.030879 -0.030325
H1    H     H_    0.152318 0.302082 0.029880 0.215662
H2    H     H_    0.820439 0.744270 0.973541 0.218551
H3    H     H_    0.934918 0.375577 0.580190 0.262282
H4    H     H_    0.065064 0.621904 0.418154 0.290269
C15   C     C_2   0.438060 0.036657 0.488527 0.066242
C16   C     C_2   0.558479 0.961497 0.523830 0.026541
O9    O     O_3   0.234422 0.368998 0.199922 -0.572109
C17   C     C_3   0.245528 0.211963 0.219137 0.019292
H5    H     H_    0.348865 0.204944 0.270513 0.165689
H6    H     H_    0.285056 0.155427 0.145497 0.172002
C18   C     C_3   0.054568 0.121859 0.273625 -0.479642
H7    H     H_    0.948135 0.132559 0.225074 0.237105
H8    H     H_    0.057978 0.996481 0.284996 0.291330
H9    H     H_    0.015874 0.168845 0.350736 0.243347
O10   O     O_3   0.742446 0.674581 0.798778 -0.552734
C19   C     C_3   0.909493 0.618268 0.788314 0.075818
H10   H     H_    0.906633 0.523886 0.733118 0.189053
H11   H     H_    0.934186 0.569663 0.863325 0.149750
C20   C     C_3   0.073529 0.753734 0.746350 -0.579180
H12   H     H_    0.070190 0.854035 0.796654 0.278518
H13   H     H_    0.207425 0.717076 0.746176 0.182323
H14   H     H_    0.066145 0.792265 0.665493 0.284435
N3    N     N_R   0.824436 0.749866 0.173722 0.138139
O11   O     O_R   0.998331 0.794168 0.127918 -0.361191
O12   O     O_R   0.762457 0.823652 0.252875 -0.374811
N4    N     N_R   0.156491 0.276019 0.830702 0.136664
O13   O     O_R   0.207934 0.186685 0.758082 -0.316392
O14   O     O_R   0.981017 0.250646 0.874116 -0.360614
N5    N     N_R   0.308985 0.963756 0.424824 0.070238
O15   O     O_R   0.130831 0.933436 0.461682 -0.334668
O16   O     O_R   0.369756 0.913604 0.335088 -0.380559
N6    N     N_R   0.674882 0.028503 0.596734 0.108415
O17   O     O_R   0.830784 0.985548 0.600670 -0.265001
O18   O     O_R   0.608305 0.106529 0.672467 -0.337461

loop_
_geom_bond_atom_site_label_1
_geom_bond_atom_site_label_2
_geom_bond_distance
_ccdc_geom_bond_type
C4    C5    1.458099 S    
C2    C16   1.437416 S    
O7    Cu2   1.968529 S    
C3    C6    1.453920 S    
C18   H7    1.110820 S    
O6    C4    1.291992 A    
C17   C18   1.515627 S    
C7    H1    1.082685 S    
O10   C19   1.416745 S    
C12   O9    1.382621 S    
C11   O10   1.388517 S    
C16   N6    1.447147 S    
N5    O15   1.298806 A    
C15   N5    1.435966 S    
C9    N4    1.439116 S    
N3    O12   1.300496 A    
C11   C13   1.404435 A    
O9    C17   1.407628 S    
C13   C14   1.412416 A    
N4    O14   1.301511 A    
C18   H8    1.105833 S    
C20   H12   1.110389 S    
O5    C3    1.294371 A    
O7    C3    1.294269 A    
O2    C2    1.289948 A    
O3    Cu2   1.959795 S    
C19   H11   1.112508 S    
C10   N3    1.434229 S    
O1    C1    1.288683 A    
N1    N2    1.299762 D    
O8    C4    1.298061 A    
C7    C9    1.386028 A    
C12   C14   1.397541 A    
N1    H3    1.028848 S    
C18   H9    1.111184 S    
C17   H6    1.114520 S    
N5    O16   1.301858 A    
O2    Cu2   1.971576 S    
C20   H14   1.109900 S    
C5    C12   1.407317 A    
O1    Cu1   1.971575 S    
C8    C13   1.401621 A    
N2    H4    1.028746 S    
C6    C11   1.411775 A    
C6    C9    1.413570 A    
O5    Cu1   1.980530 S    
C20   H13   1.108049 S    
N4    O13   1.301368 A    
O4    C2    1.288302 A    
C17   H5    1.111470 S    
C19   H10   1.108158 S    
Cu1   N2    2.020319 S    
O4    Cu1   1.959795 S    
N3    O11   1.301524 A    
C7    C14   1.398617 A    
Cu2   N1    2.020320 S    
O6    Cu2   1.980528 S    
C8    H2    1.082225 S    
O3    C1    1.286516 A    
N6    O17   1.300067 A    
Cu1   Cu2   2.688560 S    
N6    O18   1.302318 A    
C19   C20   1.522092 S    
C15   C16   1.346548 D    
C5    C10   1.409533 A    
C8    C10   1.390111 A    
C1    C15   1.427416 S    
O8    Cu1   1.968527 S    
