data_mof_unit_4795.cif
_audit_creation_date              2012-12-10T17:56:42-0500
_audit_creation_method            fapswitch 2.2
_symmetry_space_group_name_H-M    P1
_symmetry_Int_Tables_number       1
_space_group_crystal_system       triclinic
_cell_length_a                    10.980442
_cell_length_b                    9.575529
_cell_length_c                    11.003157
_cell_angle_alpha                 90.038352
_cell_angle_beta                  91.672609
_cell_angle_gamma                 89.9914
_cell_volume                      1156.417691

loop_
_atom_site_label
_atom_site_type_symbol
_atom_type_description
_atom_site_fract_x
_atom_site_fract_y
_atom_site_fract_z
_atom_type_partial_charge
C1    C     C_R   0.262243 0.500958 0.500923 0.800600
C2    C     C_R   0.737761 0.500943 0.499147 0.801083
C3    C     C_R   0.936307 0.634302 0.498965 -0.062773
C4    C     C_R   0.063669 0.634308 0.501341 -0.063939
C5    C     C_R   0.419470 0.073761 0.427393 0.040107
C6    C     C_R   0.580548 0.073833 0.572589 0.040612
C7    C     C_R   0.426332 0.925601 0.420325 0.036506
C8    C     C_R   0.573680 0.925685 0.579660 0.036314
C9    C     C_R   0.504619 0.500040 0.262291 0.863444
C10   C     C_R   0.495256 0.500161 0.737716 0.863092
C11   C     C_R   0.572150 0.751543 0.107478 0.056498
C12   C     C_R   0.430744 0.753145 0.893177 0.056284
C13   C     C_R   0.541216 0.878157 0.051713 -0.186560
C14   C     C_R   0.463512 0.879023 0.949429 -0.189366
C15   C     C_R   0.478461 0.626163 0.939491 -0.022812
C16   C     C_R   0.522455 0.625693 0.060841 -0.023538
C17   C     C_R   0.510463 0.499922 0.128099 -0.270700
C18   C     C_R   0.489173 0.500250 0.871920 -0.271172
C19   C     C_R   0.488962 0.375250 0.062486 0.377452
C20   C     C_R   0.509534 0.375262 0.937323 0.377439
C21   C     C_R   0.063184 0.379983 0.501640 -0.164206
C22   C     C_R   0.936869 0.379974 0.498584 -0.164388
C23   C     C_R   0.871709 0.505739 0.498509 -0.075692
C24   C     C_R   0.128304 0.505756 0.501714 -0.076268
Cu1   Cu    Cu3+1 0.500000 0.640660 0.500000 0.995213
Cu2   Cu    Cu3+1 0.500000 0.359340 0.500000 1.007771
H1    H     H_    0.575396 0.975448 0.089007 0.167093
H2    H     H_    0.430947 0.977095 0.912380 0.169694
H3    H     H_    0.109741 0.280414 0.504178 0.183098
H4    H     H_    0.890346 0.280401 0.495975 0.183102
N1    N     N_R   0.500000 0.852070 0.500000 -0.211270
N2    N     N_R   0.500000 0.147940 0.500000 -0.218205
O1    O     O_R   0.319640 0.618740 0.499990 -0.579395
O2    O     O_R   0.680360 0.618740 0.500010 -0.579490
O3    O     O_R   0.319620 0.381170 0.499990 -0.591728
O4    O     O_R   0.680380 0.381170 0.500010 -0.591806
O5    O     O_R   0.500000 0.618810 0.319650 -0.593221
O6    O     O_R   0.500000 0.618810 0.680350 -0.593229
O7    O     O_R   0.499970 0.381240 0.319640 -0.534224
O8    O     O_R   0.500030 0.381240 0.680360 -0.533868
O9    O     O_3   0.459036 0.251718 0.120036 -0.572106
C25   C     C_3   0.345984 0.203125 0.071361 -0.260894
H5    H     H_    0.325914 0.100054 0.111960 0.187139
H6    H     H_    0.345727 0.186417 0.971639 0.175890
H7    H     H_    0.271503 0.277153 0.092652 0.175116
O10   O     O_3   0.539526 0.251713 0.879705 -0.572593
C26   C     C_3   0.652837 0.203607 0.928101 -0.262409
H8    H     H_    0.653362 0.187178 0.027848 0.175847
H9    H     H_    0.727042 0.277859 0.906605 0.175596
H10   H     H_    0.673110 0.100518 0.887515 0.186853
C27   C     C_1   0.676366 0.749274 0.189409 0.249518
N3    N     N_1   0.762003 0.746578 0.252681 -0.280029
C28   C     C_1   0.326939 0.753436 0.810698 0.249566
N4    N     N_1   0.241686 0.752997 0.746850 -0.278327
C29   C     C_1   0.876579 0.769912 0.493337 0.337873
N5    N     N_1   0.833373 0.879974 0.486999 -0.293272
C30   C     C_1   0.123340 0.769935 0.506672 0.337527
N6    N     N_1   0.166451 0.880059 0.512642 -0.292412
C31   C     C_1   0.320444 0.144214 0.364598 0.349759
N7    N     N_1   0.238463 0.198552 0.316072 -0.318914
C32   C     C_1   0.679631 0.144314 0.635323 0.349018
N8    N     N_1   0.761655 0.198649 0.683820 -0.319402
C33   C     C_1   0.353558 0.852745 0.328931 0.314629
N9    N     N_1   0.294681 0.795916 0.255222 -0.292652
C34   C     C_1   0.646525 0.852902 0.670972 0.313831
N10   N     N_1   0.705472 0.796123 0.744600 -0.292703

loop_
_geom_bond_atom_site_label_1
_geom_bond_atom_site_label_2
_ccdc_geom_bond_type
C4    C30   S    
Cu1   N1    S    
C15   C18   A    
C6    N2    A    
C29   N5    T    
Cu2   N2    S    
C13   C14   A    
Cu1   O6    S    
O9    C25   S    
C3    C23   A    
C19   C20   A    
C12   C15   A    
Cu1   O2    S    
C10   O6    A    
C5    N2    A    
C7    C33   S    
C2    O2    A    
Cu1   O1    S    
C9    O5    A    
C1    O1    A    
C31   N7    T    
C26   H9    S    
C21   C22   A    
C11   C13   A    
Cu2   O8    S    
C30   N6    T    
C16   C17   A    
C25   H6    S    
C10   C18   S    
C6    C32   S    
C9    C17   S    
C17   C19   A    
C12   C14   A    
C26   H10   S    
C18   C20   A    
C32   N8    T    
C4    C24   A    
Cu2   O7    S    
C8    C34   S    
C11   C27   S    
C15   C16   A    
C5    C31   S    
C2    O4    A    
C27   N3    T    
C26   H8    S    
C19   O9    S    
Cu2   O3    S    
C9    O7    A    
C7    N1    A    
C1    O3    A    
C1    C24   S    
C10   O8    A    
C34   N10   T    
C25   H5    S    
C21   C24   A    
Cu2   O4    S    
C2    C23   S    
C5    C7    A    
C22   C23   A    
C13   H1    S    
C6    C8    A    
C22   H4    S    
C14   H2    S    
Cu1   Cu2   S    
O10   C26   S    
C8    N1    A    
C21   H3    S    
C11   C16   A    
C20   O10   S    
C3    C4    A    
C12   C28   S    
C28   N4    T    
Cu1   O5    S    
C33   N9    T    
C3    C29   S    
C25   H7    S    
