data_mof_unit_903.cif
_audit_creation_date              2012-12-10T16:52:38-0500
_audit_creation_method            fapswitch 2.2
_symmetry_space_group_name_H-M    P1
_symmetry_Int_Tables_number       1
_space_group_crystal_system       triclinic
_cell_length_a                    7.839201
_cell_length_b                    8.564725
_cell_length_c                    13.877328
_cell_angle_alpha                 93.486951
_cell_angle_beta                  94.225655
_cell_angle_gamma                 93.917661
_cell_volume                      924.995090123

loop_
_atom_site_label
_atom_site_type_symbol
_atom_type_description
_atom_site_fract_x
_atom_site_fract_y
_atom_site_fract_z
_atom_type_partial_charge
C1    C     C_R   0.044849 0.794526 0.497462 0.948221
C2    C     C_R   0.934952 0.487125 0.318655 0.857811
C3    C     C_R   0.108026 0.571975 0.783946 -0.114132
C4    C     C_R   0.897393 0.468925 0.214949 -0.106626
C5    C     C_R   0.022219 0.633156 0.945280 -0.194048
C6    C     C_R   0.908157 0.310305 0.066216 -0.197145
C7    C     C_R   0.978660 0.600621 0.846327 -0.225305
C8    C     C_R   0.970701 0.350789 0.161253 -0.232059
C9    C     C_R   0.279833 0.587862 0.821550 0.035752
C10   C     C_R   0.765079 0.551324 0.173443 0.022095
C11   C     C_R   0.311136 0.564463 0.919684 0.069559
C12   C     C_R   0.955023 0.205426 0.502221 0.975309
C13   C     C_R   0.676257 0.483556 0.087201 0.056701
C14   C     C_R   0.187876 0.607891 0.983355 0.139442
C15   C     C_R   0.759564 0.374186 0.029027 0.131184
C16   C     C_R   0.460579 0.499861 0.955477 0.046820
C17   C     C_R   0.511167 0.523259 0.054761 0.044871
C18   C     C_3   0.737347 0.716137 0.217384 -0.382067
C19   C     C_3   0.737374 0.842822 0.143424 -0.375968
C20   C     C_3   0.692287 0.999378 0.189856 -0.857464
C21   C     C_3   0.420164 0.664787 0.765072 -0.393146
C22   C     C_3   0.528079 0.799707 0.824131 -0.369579
C23   C     C_R   0.390874 0.574881 0.118429 -0.209484
C24   C     C_3   0.646049 0.889509 0.760406 -0.891498
C25   C     C_R   0.550606 0.399956 0.896236 -0.230841
C26   C     C_R   0.230759 0.617136 0.082897 -0.217536
C27   C     C_R   0.694302 0.331997 0.934178 -0.224899
C28   C     C_2   0.068180 0.958058 0.495792 -0.387726
C29   C     C_2   0.931422 0.041784 0.503327 -0.391419
C30   C     C_R   0.067607 0.526489 0.681105 0.865745
H1    H     H_    0.139721 0.653638 0.133125 0.157759
H2    H     H_    0.802391 0.990818 0.510532 0.181250
H3    H     H_    0.486627 0.371495 0.429937 0.189289
H4    H     H_    0.513658 0.630985 0.568049 0.182877
H5    H     H_    0.566513 0.985984 0.221606 0.258635
H6    H     H_    0.792743 0.044286 0.247420 0.258411
H7    H     H_    0.682396 0.086009 0.133922 0.262327
H8    H     H_    0.866570 0.858238 0.115853 0.211576
H9    H     H_    0.643170 0.810272 0.080809 0.232704
H10   H     H_    0.621062 0.716171 0.257714 0.208443
H11   H     H_    0.843629 0.755613 0.272831 0.194474
H12   H     H_    0.757460 0.250553 0.888481 0.149289
H13   H     H_    0.728962 0.808699 0.723341 0.271392
H14   H     H_    0.569156 0.948949 0.705042 0.259074
H15   H     H_    0.729322 0.979682 0.805859 0.248145
H16   H     H_    0.442050 0.882570 0.856905 0.233678
H17   H     H_    0.608854 0.753408 0.883371 0.222462
H18   H     H_    0.505247 0.576703 0.737904 0.199690
H19   H     H_    0.359809 0.718606 0.701474 0.214482
H20   H     H_    0.074726 0.289185 0.193180 0.165979
H21   H     H_    0.845936 0.599950 0.818753 0.182630
H22   H     H_    0.924133 0.664295 0.992181 0.145124
H23   H     H_    0.970111 0.223542 0.023695 0.149345
H24   H     H_    0.412565 0.569109 0.195644 0.158977
H25   H     H_    0.503190 0.364434 0.822473 0.160395
H26   H     H_    0.197193 0.009006 0.488567 0.179234
N1    N     N_2   0.440860 0.456490 0.474790 -0.176315
N2    N     N_2   0.559140 0.543510 0.525210 -0.180266
O1    O     O_R   0.891570 0.738930 0.506190 -0.614145
O2    O     O_R   0.108430 0.261070 0.493810 -0.607474
O3    O     O_R   0.174650 0.711050 0.490030 -0.633419
O4    O     O_R   0.825350 0.288950 0.509970 -0.622192
O5    O     O_R   0.909850 0.521900 0.644940 -0.618407
O6    O     O_R   0.090150 0.478100 0.355060 -0.618240
O7    O     O_R   0.192930 0.494020 0.628780 -0.623598
O8    O     O_R   0.807070 0.505980 0.371220 -0.617533
Zn1   Zn    Zn3+2 0.810990 0.518620 0.510790 0.920726
Zn2   Zn    Zn3+2 0.189010 0.481380 0.489210 0.920654

loop_
_geom_bond_atom_site_label_1
_geom_bond_atom_site_label_2
_ccdc_geom_bond_type
C1    C28   S    
C2    C4    S    
C5    H22   S    
C3    C9    A    
C19   H8    S    
H3    N1    S    
C12   C29   S    
C25   C27   A    
C12   O4    A    
C11   C16   A    
C15   C27   A    
C19   C20   S    
C27   H12   S    
C13   C15   A    
C13   C17   A    
C4    C8    A    
O7    Zn2   S    
C21   H18   S    
C22   C24   S    
C21   H19   S    
C22   H17   S    
N1    N2    D    
C7    H21   S    
C26   H1    S    
C21   C22   S    
C14   C26   A    
C20   H7    S    
C9    C11   A    
O3    Zn2   S    
C9    C21   S    
C5    C14   A    
C17   C23   A    
C19   H9    S    
O4    Zn1   S    
C10   C18   S    
C24   H15   S    
O6    Zn2   S    
C3    C30   S    
C28   C29   D    
C22   H16   S    
C2    O6    A    
O8    Zn1   S    
C29   H2    S    
C3    C7    A    
C1    O1    A    
C28   H26   S    
C24   H14   S    
C11   C14   A    
O5    Zn1   S    
C23   C26   A    
C30   O7    A    
N1    Zn2   S    
C4    C10   A    
C12   O2    A    
C8    H20   S    
N2    Zn1   S    
O2    Zn2   S    
C23   H24   S    
H4    N2    S    
C18   C19   S    
C18   H11   S    
C16   C25   A    
C5    C7    A    
C24   H13   S    
C18   H10   S    
C6    C8    A    
C6    H23   S    
O1    Zn1   S    
C6    C15   A    
C30   O5    A    
C20   H5    S    
C25   H25   S    
C1    O3    A    
C16   C17   A    
C2    O8    A    
C10   C13   A    
C20   H6    S    
