data_mof_unit_1103.cif
_audit_creation_date              2012-12-11T15:15:47-0500
_audit_creation_method            fapswitch 2.2
_symmetry_space_group_name_H-M    P1
_symmetry_Int_Tables_number       1
_space_group_crystal_system       triclinic
_cell_length_a                    18.834137
_cell_length_b                    18.834547
_cell_length_c                    20.374385
_cell_angle_alpha                 107.2205
_cell_angle_beta                  106.454283
_cell_angle_gamma                 110.947226
_cell_volume                      5801.59609431

loop_
_atom_site_label
_atom_site_type_symbol
_atom_type_description
_atom_site_fract_x
_atom_site_fract_y
_atom_site_fract_z
_atom_type_partial_charge
C1    C     C_R   0.085126 0.087819 0.353606 -0.144376
C2    C     C_R   0.245222 0.069885 0.545012 -0.126794
C3    C     C_R   0.151621 0.223138 0.708879 -0.144819
C4    C     C_R   0.761397 0.925929 0.504894 -0.143378
C5    C     C_R   0.998047 0.762980 0.430178 -0.146995
C6    C     C_R   0.227026 0.274760 0.710879 0.047404
C7    C     C_R   0.945837 0.708869 0.449802 0.087159
C8    C     C_R   0.253289 0.997296 0.535336 0.074372
C9    C     C_R   0.024242 0.978597 0.724463 0.060374
C10   C     C_R   0.944793 0.577458 0.373662 -0.261182
C11   C     C_R   0.914273 0.616811 0.420201 0.113575
C12   C     C_R   0.757189 0.994753 0.549110 0.085519
C13   C     C_R   0.859649 0.569287 0.443970 -0.258330
C14   C     C_R   0.845720 0.487594 0.431223 0.141760
C15   C     C_R   0.885409 0.452577 0.392705 0.028053
C16   C     C_R   0.839152 0.815740 0.281398 -0.124331
C17   C     C_R   0.931635 0.495961 0.360559 0.143135
C18   C     C_R   0.799734 0.443904 0.462900 -0.203693
C19   C     C_R   0.800708 0.370467 0.463570 -0.199493
C20   C     C_R   0.847889 0.340556 0.432770 0.139555
C21   C     C_R   0.886550 0.378899 0.393525 0.027195
C22   C     C_R   0.934150 0.349197 0.362428 0.141790
C23   C     C_R   0.756849 0.791416 0.273236 0.039459
C24   C     C_R   0.972239 0.387528 0.323330 -0.204248
C25   C     C_R   0.970996 0.460769 0.322410 -0.206955
C26   C     C_R   0.865005 0.279599 0.448036 -0.252510
C27   C     C_R   0.923185 0.259787 0.427506 0.115292
C28   C     C_R   0.948170 0.195207 0.520053 -0.130413
C29   C     C_R   0.950810 0.288347 0.378434 -0.255213
C30   C     C_R   0.329931 0.915602 0.552578 -0.251579
C31   C     C_R   0.330174 0.993817 0.573279 0.115599
C32   C     C_R   0.406638 0.069264 0.622253 -0.254337
C33   C     C_R   0.483064 0.068187 0.637803 0.141689
C34   C     C_R   0.963499 0.219721 0.465336 0.074494
C35   C     C_R   0.482339 0.990270 0.606348 0.027104
C36   C     C_R   0.405723 0.913351 0.567313 0.140202
C37   C     C_R   0.559530 0.144380 0.676713 -0.203333
C38   C     C_R   0.633517 0.144034 0.677112 -0.206520
C39   C     C_R   0.631345 0.067499 0.638597 0.142694
C40   C     C_R   0.760711 0.809543 0.346004 -0.126971
C41   C     C_R   0.556647 0.989935 0.606585 0.028250
C42   C     C_R   0.553925 0.912713 0.567671 0.142989
C43   C     C_R   0.479384 0.835839 0.536152 -0.206532
C44   C     C_R   0.405473 0.836146 0.536096 -0.201530
C45   C     C_R   0.229186 0.229500 0.644841 -0.145861
C46   C     C_R   0.699885 0.067905 0.625127 -0.260653
C47   C     C_R   0.693754 0.992036 0.578400 0.114236
C48   C     C_R   0.622988 0.914240 0.554514 -0.261180
C49   C     C_R   0.281726 0.366566 0.760613 0.142308
C50   C     C_R   0.253235 0.414120 0.802793 -0.187816
C51   C     C_R   0.306769 0.499957 0.852340 -0.156495
C52   C     C_R   0.026494 0.202018 0.455523 -0.127505
C53   C     C_R   0.389807 0.539441 0.860784 0.227214
C54   C     C_R   0.416275 0.493687 0.814815 -0.181496
C55   C     C_R   0.362919 0.407792 0.765472 -0.177767
C56   C     C_R   0.920350 0.756233 0.494195 -0.142864
C57   C     C_R   0.613664 0.698868 0.063825 -0.151028
C58   C     C_R   0.684850 0.731962 0.131421 -0.185982
C59   C     C_R   0.606399 0.755784 0.203596 -0.168772
C60   C     C_R   0.534821 0.722212 0.135695 -0.182988
C61   C     C_R   0.537457 0.692621 0.065195 0.224757
C62   C     C_2   0.454445 0.622607 0.924927 -0.225816
C63   C     C_2   0.457238 0.641536 0.994883 -0.215224
C64   C     C_R   0.830789 0.066136 0.569337 -0.146175
C65   C     C_R   0.681748 0.759417 0.202020 0.142429
C66   C     C_R   0.097719 0.027132 0.230303 0.140247
C67   C     C_R   0.175526 0.928613 0.480335 -0.126686
C68   C     C_R   0.091795 0.954819 0.177701 -0.201812
C69   C     C_R   0.121045 0.959847 0.122860 -0.092516
C70   C     C_R   0.158166 0.037559 0.120308 0.278632
C71   C     C_R   0.166176 0.110185 0.173838 -0.182958
C72   C     C_R   0.136542 0.105221 0.228589 -0.184878
C73   C     C_R   0.197790 0.039406 0.911074 -0.218557
C74   C     C_R   0.154898 0.039683 0.843344 -0.175915
C75   C     C_R   0.037797 0.903177 0.805250 -0.216086
C76   C     C_R   0.015548 0.947620 0.289372 -0.132412
C77   C     C_R   0.079777 0.902807 0.873888 0.339753
C78   C     C_R   0.036014 0.052580 0.717462 -0.131355
C79   C     C_R   0.159437 0.973181 0.928309 0.141441
C80   C     C_2   0.169843 0.040323 0.052569 -0.336814
C81   C     C_2   0.190606 0.989379 0.008945 -0.133060
C82   C     C_R   0.073213 0.973295 0.791513 0.088998
C83   C     C_R   0.062566 0.021164 0.285877 0.052696
C84   C     C_2   0.238073 0.947593 0.036376 1.022612
C85   C     C_3   0.036015 0.830881 0.890796 -1.032709
C86   C     C_R   0.966520 0.911377 0.653165 -0.131488
H1    H     H_    0.133395 0.152749 0.376181 0.090371
H2    H     H_    0.833190 0.597453 0.477696 0.117032
H3    H     H_    0.767730 0.469446 0.491498 0.129679
H4    H     H_    0.721751 0.859952 0.488804 0.086600
H5    H     H_    0.769602 0.340659 0.492827 0.131198
H6    H     H_    0.839220 0.254413 0.482233 0.119145
H7    H     H_    0.991979 0.270090 0.358568 0.117599
H8    H     H_    0.007864 0.364423 0.298141 0.129129
H9    H     H_    0.005534 0.492872 0.296365 0.129006
H10   H     H_    0.271365 0.856482 0.518498 0.118946
H11   H     H_    0.407765 0.129801 0.642251 0.117474
H12   H     H_    0.869772 0.732234 0.509956 0.086832
H13   H     H_    0.561080 0.204557 0.702171 0.129239
H14   H     H_    0.691010 0.203957 0.703072 0.129025
H15   H     H_    0.754884 0.128328 0.646267 0.116507
H16   H     H_    0.860320 0.812761 0.237222 0.093245
H17   H     H_    0.618130 0.854922 0.520553 0.116801
H18   H     H_    0.476909 0.775967 0.507252 0.129212
H19   H     H_    0.347131 0.776520 0.506968 0.130606
H20   H     H_    0.190093 0.385340 0.798530 0.113170
H21   H     H_    0.741185 0.732759 0.127585 0.111986
H22   H     H_    0.601891 0.777488 0.256926 0.115303
H23   H     H_    0.158028 0.862297 0.458753 0.096174
H24   H     H_    0.401662 0.606717 0.001272 0.132579
H25   H     H_    0.480265 0.523014 0.820739 0.111614
H26   H     H_    0.617808 0.673579 0.010835 0.110593
H27   H     H_    0.386562 0.373096 0.733430 0.111328
H28   H     H_    0.902992 0.198868 0.541721 0.096235
H29   H     H_    0.509734 0.657943 0.918487 0.131987
H30   H     H_    0.284128 0.534580 0.885798 0.117007
H31   H     H_    0.476456 0.716761 0.138089 0.119450
H32   H     H_    0.062781 0.893575 0.177116 0.114597
H33   H     H_    0.184637 0.093345 0.832854 0.129012
H34   H     H_    0.078701 0.116637 0.761496 0.098732
H35   H     H_    0.975131 0.851359 0.764810 0.121925
H36   H     H_    0.192078 0.170114 0.171098 0.120303
H37   H     H_    0.258193 0.094099 0.952853 0.142200
H38   H     H_    0.141293 0.162007 0.267525 0.113231
H39   H     H_    0.709077 0.799833 0.361669 0.093720
H40   H     H_    0.144942 0.076321 0.029735 0.152507
H41   H     H_    0.110229 0.901910 0.080007 0.110623
H42   H     H_    0.054028 0.212339 0.417294 0.094180
H43   H     H_    0.855438 0.129392 0.612762 0.087068
H44   H     H_    0.998306 0.883728 0.252449 0.084429
H45   H     H_    0.946501 0.845011 0.637432 0.102170
H46   H     H_    0.270722 0.255695 0.621081 0.091522
H47   H     H_    0.278424 0.862022 0.008872 0.323850
H48   H     H_    0.075946 0.800777 0.902824 0.279390
H49   H     H_    0.024044 0.855085 0.940956 0.243585
H50   H     H_    0.974320 0.781169 0.841871 0.247995
H51   H     H_    0.292615 0.134727 0.583623 0.095032
H52   H     H_    0.122803 0.242400 0.744703 0.087989
H53   H     H_    0.019026 0.745432 0.386776 0.087470
H54   H     H_    0.984622 0.611863 0.352542 0.116693
N1    N     N_R   0.052580 0.056040 0.395500 -0.037406
N2    N     N_R   0.890210 0.849400 0.355780 -0.039489
N3    N     N_R   0.997110 0.161140 0.539580 -0.040948
N4    N     N_R   0.841950 0.845400 0.395490 -0.039130
N5    N     N_R   0.045360 0.165140 0.499870 -0.040562
N6    N     N_R   0.877490 0.041510 0.539580 -0.038453
N7    N     N_R   0.009820 0.969030 0.355780 -0.037838
N8    N     N_R   0.158050 0.154600 0.604510 -0.036825
N9    N     N_R   0.954640 0.834860 0.500130 -0.038814
N10   N     N_R   0.122510 0.958490 0.460420 -0.041560
N11   N     N_R   0.990180 0.030970 0.644220 -0.039800
N12   N     N_R   0.947420 0.943960 0.604500 -0.040256
N13   N     N_R   0.165270 0.045500 0.500140 -0.040978
N14   N     N_R   0.109790 0.150600 0.644220 -0.037317
N15   N     N_R   0.002890 0.838860 0.460420 -0.038692
N16   N     N_R   0.834730 0.954500 0.499860 -0.038362
Ni1   Ni    Ni4+2 0.104370 0.104380 0.500010 0.214356
Ni2   Ni    Ni4+2 0.895630 0.895620 0.499990 0.211357
Ni3   Ni    Ni4+2 0.006300 0.904810 0.408930 0.212732
Ni4   Ni    Ni4+2 0.993700 0.095190 0.591070 0.210821
O1    O     O_2   0.274948 0.969706 0.104703 -0.640001
O2    O     O_R   0.243750 0.885195 0.983629 -0.810720

loop_
_geom_bond_atom_site_label_1
_geom_bond_atom_site_label_2
_ccdc_geom_bond_type
C1    H1    S    
C66   C68   A    
C52   N5    A    
C6    C45   A    
C5    N15   A    
C27   C29   A    
C45   N8    A    
C41   C42   A    
C14   C18   A    
C71   H36   S    
C16   N2    A    
C35   C36   A    
C56   H12   S    
N2    Ni3   S    
C3    C6    A    
N7    Ni3   S    
H47   O2    S    
C52   H42   S    
N3    Ni4   S    
C39   C41   A    
C53   C54   A    
C7    C11   S    
C74   H33   S    
C26   C27   A    
C62   C63   D    
C10   H54   S    
C22   C29   A    
C18   C19   A    
C24   H8    S    
C30   C31   A    
C12   C64   A    
C86   H45   S    
C57   H26   S    
N6    Ni4   S    
C10   C17   A    
C26   H6    S    
C23   C40   A    
C32   H11   S    
C15   C17   A    
C58   H21   S    
C73   C74   A    
C61   C63   S    
C43   H18   S    
C30   H10   S    
C68   H32   S    
C66   C83   S    
C46   C47   A    
C76   H44   S    
C67   H23   S    
C66   C72   A    
C47   C48   A    
C76   N7    A    
C68   C69   A    
C73   H37   S    
N10   N13   A    
N11   N12   A    
C70   C71   A    
C4    C12   A    
N9    Ni2   S    
C9    C82   S    
N8    Ni1   S    
C77   C85   S    
C59   C60   A    
C13   C14   A    
C72   H38   S    
C67   N10   A    
C2    H51   S    
N8    N14   A    
C7    C56   A    
C74   C82   A    
C12   C47   S    
C76   C83   A    
C78   N11   A    
C5    H53   S    
C4    H4    S    
C77   C79   A    
C27   C34   S    
C46   H15   S    
N12   Ni2   S    
N10   Ni3   S    
N15   Ni3   S    
C1    N1    A    
C24   C25   A    
C38   H14   S    
C5    C7    A    
C55   H27   S    
C44   H19   S    
C48   H17   S    
C70   C80   S    
C3    N14   A    
C33   C37   A    
C60   C61   A    
C51   C53   A    
C78   H34   S    
C43   C44   A    
N14   Ni4   S    
C37   C38   A    
C86   N12   A    
C9    C86   A    
N5    Ni1   S    
C53   C62   S    
C58   C65   A    
C31   C32   A    
C15   C21   A    
C50   C51   A    
C73   C79   A    
C28   N3    A    
C60   H31   S    
C84   O1    D    
C3    H52   S    
C42   C48   A    
C20   C21   A    
C75   C77   A    
C28   H28   S    
C85   H49   S    
C39   C46   A    
C16   H16   S    
C4    N16   A    
C25   H9    S    
C2    N13   A    
C40   N4    A    
C22   C24   A    
C36   C44   A    
C1    C83   A    
C42   C43   A    
N4    Ni2   S    
C37   H13   S    
C81   C84   S    
C84   O2    S    
C79   C81   S    
N1    Ni1   S    
N3    N5    A    
C54   C55   A    
C64   N6    A    
C75   H35   S    
C18   H3    S    
C2    C8    A    
C51   H30   S    
C80   C81   D    
C20   C26   A    
C75   C82   A    
C57   C61   A    
C16   C23   A    
C85   H48   S    
C34   C52   A    
C59   H22   S    
C30   C36   A    
C17   C25   A    
C32   C33   A    
C23   C65   S    
C19   C20   A    
N16   Ni2   S    
N9    N15   A    
C8    C67   A    
C62   H29   S    
C49   C55   A    
N11   Ni4   S    
C29   H7    S    
C11   C13   A    
C57   C58   A    
C38   C39   A    
C80   H40   S    
C63   H24   S    
C40   H39   S    
C13   H2    S    
C33   C35   A    
C54   H25   S    
N2    N4    A    
C9    C78   A    
C6    C49   S    
N13   Ni1   S    
C69   C70   A    
C35   C41   A    
C19   H5    S    
C10   C11   A    
N1    N7    A    
C85   H50   S    
C28   C34   A    
C71   C72   A    
N6    N16   A    
C64   H43   S    
C69   H41   S    
C45   H46   S    
C49   C50   A    
C50   H20   S    
C14   C15   A    
C56   N9    A    
C21   C22   A    
C59   C65   A    
C8    C31   S    
