data_mof_unit_242.cif
_audit_creation_date              2012-12-10T18:29:44-0500
_audit_creation_method            fapswitch 2.2
_symmetry_space_group_name_H-M    P1
_symmetry_Int_Tables_number       1
_space_group_crystal_system       triclinic
_cell_length_a                    11.555093
_cell_length_b                    14.988981
_cell_length_c                    15.461896
_cell_angle_alpha                 82.390392
_cell_angle_beta                  89.541073
_cell_angle_gamma                 104.317333
_cell_volume                      2569.64179143

loop_
_atom_site_label
_atom_site_type_symbol
_atom_type_description
_atom_site_fract_x
_atom_site_fract_y
_atom_site_fract_z
_atom_type_partial_charge
C1    C     C_R   0.485645 0.441915 0.662202 0.896035
C2    C     C_R   0.614014 0.683396 0.976438 -0.112251
C3    C     C_R   0.661083 0.835823 0.648495 -0.210240
C4    C     C_R   0.354911 0.167113 0.344869 -0.206164
C5    C     C_R   0.635071 0.748722 0.621854 0.002846
C6    C     C_R   0.369260 0.251331 0.376129 0.001680
C7    C     C_R   0.522145 0.797509 0.506168 0.001563
C8    C     C_R   0.483480 0.204769 0.492018 -0.003802
C9    C     C_R   0.548682 0.888857 0.527701 -0.014018
C10   C     C_R   0.471848 0.116958 0.464341 -0.015485
C11   C     C_R   0.617325 0.907213 0.602449 0.012617
C12   C     C_R   0.518705 0.558247 0.337776 0.899567
C13   C     C_R   0.407780 0.099142 0.387355 0.010667
C14   C     C_R   0.506224 0.960657 0.478883 0.009936
C15   C     C_R   0.522584 0.047724 0.509829 0.008037
C16   C     C_R   0.718027 0.500893 0.500133 0.900631
C17   C     C_R   0.281968 0.499095 0.499890 0.903722
C18   C     C_R   0.589557 0.063100 0.584966 -0.265270
C19   C     C_R   0.449956 0.948098 0.399145 -0.263713
C20   C     C_R   0.638981 0.995615 0.629841 0.438405
C21   C     C_R   0.400367 0.015071 0.353798 0.430432
C22   C     C_1   0.839063 0.502207 0.500518 -0.157792
C23   C     C_R   0.548900 0.357878 0.927799 0.021192
C24   C     C_1   0.160909 0.497740 0.499579 -0.159606
C25   C     C_1   0.940951 0.501107 0.500320 0.030245
C26   C     C_1   0.059007 0.498808 0.499820 0.030222
C27   C     C_R   0.495856 0.408170 0.754222 -0.115829
C28   C     C_R   0.543971 0.594049 0.245152 -0.139634
C29   C     C_R   0.524160 0.289861 0.869905 0.381708
C30   C     C_R   0.593124 0.721155 0.125214 0.424198
C31   C     C_R   0.500383 0.316630 0.782880 -0.267158
C32   C     C_R   0.567447 0.689017 0.214175 -0.229504
C33   C     C_R   0.515199 0.473067 0.812077 -0.245943
C34   C     C_R   0.596551 0.656126 0.066725 0.001163
C35   C     C_R   0.549822 0.531103 0.188012 -0.244996
C36   C     C_R   0.549621 0.451646 0.896667 0.050897
C37   C     C_R   0.579175 0.560205 0.099560 0.052599
C38   C     C_R   0.577980 0.521335 0.952060 0.100973
C39   C     C_R   0.581609 0.494165 0.042330 0.101909
C40   C     C_R   0.585754 0.401663 0.072299 -0.238759
C41   C     C_R   0.602642 0.617262 0.920042 -0.235924
C42   C     C_R   0.572044 0.335404 0.015706 -0.117553
H1    H     H_    0.576339 0.266105 0.042712 0.227234
H2    H     H_    0.616412 0.643246 0.851199 0.149498
H3    H     H_    0.533268 0.226680 0.547086 0.131614
H4    H     H_    0.464271 0.775164 0.454865 0.132815
H5    H     H_    0.331886 0.304822 0.342027 0.146619
H6    H     H_    0.668339 0.693628 0.657286 0.139656
H7    H     H_    0.713972 0.845352 0.705338 0.213796
H8    H     H_    0.304138 0.157290 0.287071 0.221660
H9    H     H_    0.401933 0.099649 0.814094 0.358940
H10   H     H_    0.611371 0.963836 0.149664 0.421924
H11   H     H_    0.789818 0.146291 0.785544 0.416459
H12   H     H_    0.631620 0.755408 0.947711 0.231027
H13   H     H_    0.318642 0.886016 0.168410 0.418134
H14   H     H_    0.606450 0.127968 0.610476 0.200079
H15   H     H_    0.446211 0.886972 0.368953 0.204215
H16   H     H_    0.526036 0.458124 0.213177 0.173085
H17   H     H_    0.501599 0.540941 0.790116 0.171953
H18   H     H_    0.563917 0.737758 0.259296 0.217827
H19   H     H_    0.486444 0.266556 0.737178 0.193200
H20   H     H_    0.603113 0.379254 0.139133 0.160192
N1    N     N_R   0.566020 0.731700 0.552730 -0.103415
N2    N     N_R   0.433980 0.268300 0.447270 -0.105604
O1    O     O_R   0.466720 0.383110 0.605620 -0.616575
O2    O     O_2   0.432173 0.131296 0.976975 -0.242795
O3    O     O_3   0.489269 0.108896 0.819884 -0.475229
O4    O     O_2   0.737098 0.878959 0.043724 -0.241305
O5    O     O_2   0.521292 0.857508 0.028342 -0.246407
O6    O     O_3   0.610576 0.899639 0.175732 -0.528733
O7    O     O_2   0.664727 0.963845 0.802431 -0.214941
O8    O     O_2   0.847459 0.008910 0.708402 -0.297596
O9    O     O_3   0.740407 0.136832 0.733902 -0.516346
O10   O     O_2   0.202583 0.989668 0.261096 -0.270103
O11   O     O_2   0.393214 0.066601 0.181734 -0.266145
O12   O     O_R   0.533280 0.616890 0.394380 -0.614819
O13   O     O_3   0.345635 0.888049 0.228924 -0.530616
O14   O     O_R   0.509090 0.531900 0.639510 -0.627328
O15   O     O_R   0.490910 0.468100 0.360490 -0.627239
O16   O     O_R   0.644370 0.425610 0.483050 -0.608313
O17   O     O_R   0.355630 0.574390 0.516950 -0.606025
O18   O     O_R   0.686740 0.574390 0.516930 -0.605120
O19   O     O_R   0.313260 0.425610 0.483070 -0.604303
O20   O     O_2   0.644219 0.165757 0.933617 -0.232386
S1    S     S_3+6 0.522929 0.171656 0.902926 0.076798
S2    S     S_3+6 0.616515 0.842090 0.090109 0.066834
S3    S     S_3+6 0.725399 0.024758 0.721425 0.066858
S4    S     S_3+6 0.332897 0.991331 0.253616 0.042946
Zn1   Zn    Zn3+2 0.471710 0.400660 0.477370 0.963007
Zn2   Zn    Zn3+2 0.528290 0.599340 0.522630 0.967371

loop_
_geom_bond_atom_site_label_1
_geom_bond_atom_site_label_2
_ccdc_geom_bond_type
C15   C18   A    
C20   S3    S    
C34   C37   A    
O4    S2    D    
C31   H19   S    
O2    S1    D    
C3    H7    S    
C27   C33   A    
O1    Zn1   S    
C23   C42   A    
C12   C28   S    
C35   H16   S    
C23   C29   A    
C35   C37   A    
C24   C26   T    
C10   C15   A    
C38   C39   A    
H13   O13   S    
C2    C41   A    
C12   O15   A    
O16   Zn1   S    
C33   C36   A    
C40   H20   S    
C5    N1    A    
C18   C20   A    
C6    N2    A    
C4    C13   A    
C8    H3    S    
O9    S3    S    
C28   C35   A    
C22   C25   T    
C1    O1    A    
C30   S2    S    
C29   S1    S    
C18   H14   S    
C2    C34   A    
C40   C42   A    
C21   S4    S    
C33   H17   S    
C1    O14   A    
N2    Zn1   S    
O19   Zn1   S    
C5    H6    S    
C11   C20   A    
O3    S1    S    
C17   C24   S    
C6    H5    S    
C30   C34   A    
C27   C31   A    
C7    H4    S    
C28   C32   A    
C3    C11   A    
O20   S1    D    
O13   S4    S    
C38   C41   A    
C4    C6    A    
C2    H12   S    
C39   C40   A    
C25   C26   S    
C19   H15   S    
C4    H8    S    
C16   O16   A    
C9    C14   A    
C16   O18   A    
C13   C21   A    
H9    O3    S    
C9    C11   A    
C7    N1    A    
C8    N2    A    
O7    S3    D    
O17   Zn2   S    
C8    C10   A    
C12   O12   A    
C41   H2    S    
C42   H1    S    
C32   H18   S    
O6    S2    S    
O8    S3    D    
C7    C9    A    
C16   C22   S    
C19   C21   A    
C14   C19   A    
H11   O9    S    
C3    C5    A    
C10   C13   A    
O18   Zn2   S    
O10   S4    D    
C36   C38   A    
C29   C31   A    
C30   C32   A    
O14   Zn2   S    
N1    Zn2   S    
C17   O17   A    
O15   Zn1   S    
H10   O6    S    
O11   S4    D    
C37   C39   A    
C23   C36   A    
C1    C27   S    
C14   C15   A    
C17   O19   A    
O5    S2    D    
O12   Zn2   S    
