data_mof_unit_2768.cif
_audit_creation_date              2013-03-05T16:35:54-0500
_audit_creation_method            fapswitch 2.2
_symmetry_space_group_name_H-M    P1
_symmetry_Int_Tables_number       1
_space_group_crystal_system       monoclinic
_cell_length_a                    23.527992
_cell_length_b                    9.088097
_cell_length_c                    7.78059
_cell_angle_alpha                 90.036005
_cell_angle_beta                  90.0
_cell_angle_gamma                 90.0
_cell_volume                      1663.68178799

loop_
_atom_site_label
_atom_site_type_symbol
_atom_site_description
_atom_site_fract_x
_atom_site_fract_y
_atom_site_fract_z
_atom_type_partial_charge
O1    O     O_R   0.500000 0.288390 0.642760 -0.574898
O2    O     O_R   0.500000 0.711610 0.357240 -0.574898
O3    O     O_R   0.500000 0.711610 0.642760 -0.574520
O4    O     O_R   0.500000 0.288390 0.357240 -0.574520
H1    H     H_    0.948325 0.134907 0.585070 0.188903
H2    H     H_    0.051628 0.865101 0.414998 0.188946
H3    H     H_    0.948325 0.865091 0.414930 0.188903
H4    H     H_    0.051628 0.134898 0.585002 0.188946
C1    C     C_R   0.500000 0.220008 0.499967 0.852627
C2    C     C_R   0.500000 0.779992 0.500033 0.852627
O5    O     O_R   0.417880 0.500000 0.642820 -0.585080
O6    O     O_R   0.582120 0.500000 0.357180 -0.585098
O7    O     O_R   0.582120 0.500000 0.642820 -0.585098
O8    O     O_R   0.417880 0.500000 0.357180 -0.585079
C3    C     C_R   0.208793 0.499999 0.500000 0.358810
C4    C     C_R   0.791203 0.499999 0.500000 0.360511
C5    C     C_R   0.390586 0.500000 0.500000 0.796582
C6    C     C_R   0.609418 0.500000 0.500000 0.796585
Cu1   Cu    Cu3+1 0.500000 0.500000 0.669080 1.007472
Cu2   Cu    Cu3+1 0.500000 0.500000 0.330920 1.007472
C7    C     C_R   0.297819 0.510645 0.344533 -0.206478
C8    C     C_R   0.702198 0.505660 0.344061 -0.205827
C9    C     C_R   0.297819 0.489354 0.655467 -0.206478
C10   C     C_R   0.702198 0.494339 0.655939 -0.205828
H5    H     H_    0.319942 0.519094 0.222879 0.160733
H6    H     H_    0.680085 0.510060 0.222010 0.160535
H7    H     H_    0.319942 0.480906 0.777121 0.160733
H8    H     H_    0.680085 0.489939 0.777990 0.160535
C11   C     C_R   0.327999 0.500000 0.500000 -0.038661
C12   C     C_R   0.672012 0.500000 0.500000 -0.038666
C13   C     C_R   0.880454 0.628886 0.469469 0.536055
C14   C     C_R   0.119502 0.371088 0.530398 0.535852
C15   C     C_R   0.880454 0.371113 0.530531 0.536055
C16   C     C_R   0.119502 0.628910 0.469602 0.535852
N1    N     N_R   0.852074 0.499999 0.500000 -0.474413
N2    N     N_R   0.147900 0.499999 0.500000 -0.474103
C17   C     C_R   0.940069 0.368335 0.530978 -0.013601
C18   C     C_R   0.059886 0.631664 0.469070 -0.013448
C19   C     C_R   0.940069 0.631663 0.469021 -0.013601
C20   C     C_R   0.059886 0.368334 0.530930 -0.013448
C21   C     C_R   0.969989 0.499999 0.500000 -0.017315
C22   C     C_R   0.029967 0.499999 0.500000 -0.017333
C23   C     C_R   0.970328 0.237586 0.561248 -0.164972
C24   C     C_R   0.029627 0.762416 0.438792 -0.164911
C25   C     C_R   0.970328 0.762412 0.438752 -0.164973
C26   C     C_R   0.029627 0.237583 0.561207 -0.164910
C27   C     C_1   0.500000 0.065378 0.499955 -0.166526
C28   C     C_1   0.500000 0.934622 0.500045 -0.166526
C29   C     C_R   0.238552 0.510961 0.344764 -0.098348
C30   C     C_R   0.761466 0.505937 0.344281 -0.098938
C31   C     C_R   0.238552 0.489037 0.655236 -0.098348
C32   C     C_R   0.761466 0.494062 0.655719 -0.098938
N3    N     N_1   0.500000 0.500000 0.076820 -0.049446
N4    N     N_1   0.500000 0.500000 0.923180 -0.049446
O9    O     O_2   0.851020 0.753893 0.440573 -0.514796
O10   O     O_2   0.148916 0.245993 0.558970 -0.515179
O11   O     O_2   0.851020 0.246105 0.559427 -0.514796
O12   O     O_2   0.148916 0.754006 0.441030 -0.515179
H9    H     H_    0.215683 0.519245 0.224372 0.137988
H10   H     H_    0.784350 0.510292 0.223546 0.136958
H11   H     H_    0.215682 0.480753 0.775628 0.137988
H12   H     H_    0.784350 0.489706 0.776453 0.136958

loop_
_geom_bond_atom_site_label_1
_geom_bond_atom_site_label_2
_geom_bond_distance
_ccdc_geom_bond_type
C10   C32   1.394446 A    
C9    C11   1.406025 A    
C18   C24   1.405249 A    
C6    C12   1.472704 S    
C9    H7    1.082983 S    
C5    C11   1.472535 S    
C21   C22   1.411157 A    
C9    C31   1.394435 A    
C27   C28   1.188318 T    
C29   H9    1.082928 S    
C8    C30   1.394446 A    
C19   C25   1.405206 A    
C30   H10   1.083498 S    
O3    Cu1   1.934133 S    
O6    Cu2   1.942892 S    
C20   C22   1.409124 A    
H1    C23   1.083209 S    
C19   C21   1.409184 A    
O3    C2    1.272908 A    
C32   H12   1.083498 S    
N3    N4    1.195411 T    
C20   C26   1.405248 A    
C31   H11   1.082929 S    
O8    C5    1.283437 A    
O5    Cu1   1.942894 S    
O7    C6    1.283481 A    
C17   C21   1.409185 A    
H3    C25   1.083208 S    
Cu1   N4    1.977047 S    
C7    C29   1.394435 A    
C15   N1    1.369175 A    
C16   N2    1.369396 A    
C13   C19   1.402867 A    
C1    C27   1.405295 S    
C3    C31   1.399700 A    
C3    C29   1.399700 A    
C4    N1    1.432175 S    
C2    C28   1.405295 S    
C4    C30   1.400164 A    
C23   C26   1.395189 A    
C13   N1    1.369176 A    
C17   C23   1.405205 A    
O1    Cu1   1.933878 S    
C10   C12   1.406854 A    
O7    Cu1   1.942892 S    
O2    Cu2   1.933877 S    
O4    Cu2   1.934134 S    
C18   C22   1.409124 A    
C14   N2    1.369396 A    
C3    N2    1.432690 S    
C14   C20   1.402879 A    
O1    C1    1.272673 A    
C24   C25   1.395186 A    
H2    C24   1.083208 S    
O8    Cu2   1.942894 S    
C4    C32   1.400166 A    
C8    H6    1.083577 S    
O6    C6    1.283481 A    
C16   O12   1.349508 S    
C7    H5    1.082984 S    
O5    C5    1.283436 A    
C15   O11   1.349493 S    
C8    C12   1.406856 A    
H4    C26   1.083208 S    
C13   O9    1.349493 S    
O4    C1    1.272908 A    
C16   C18   1.402879 A    
C7    C11   1.406025 A    
C14   O10   1.349508 S    
C15   C17   1.402867 A    
Cu1   Cu2   2.631085 S    
C10   H8    1.083576 S    
Cu2   N3    1.977047 S    
O2    C2    1.272673 A    
