data_mof_unit_396.cif
_audit_creation_date              2012-12-10T20:49:27-0500
_audit_creation_method            fapswitch 2.2
_symmetry_space_group_name_H-M    P1
_symmetry_Int_Tables_number       1
_space_group_crystal_system       triclinic
_cell_length_a                    15.701257
_cell_length_b                    8.954869
_cell_length_c                    8.13704
_cell_angle_alpha                 90.454988
_cell_angle_beta                  95.032351
_cell_angle_gamma                 90.443289
_cell_volume                      1139.60292214

loop_
_atom_site_label
_atom_site_type_symbol
_atom_type_description
_atom_site_fract_x
_atom_site_fract_y
_atom_site_fract_z
_atom_type_partial_charge
C1    C     C_1   0.499956 0.065162 0.499407 -0.182999
C2    C     C_3   0.989829 0.601065 0.606693 -0.074438
C3    C     C_1   0.247667 0.491413 0.472637 -0.176694
C4    C     C_1   0.752412 0.503568 0.526827 -0.175390
C5    C     C_3   0.046396 0.461805 0.639120 0.119171
C6    C     C_3   0.953121 0.519693 0.355007 0.117109
C7    C     C_3   0.081104 0.483766 0.469024 0.034419
C8    C     C_3   0.918792 0.499145 0.525595 0.005973
C9    C     C_1   0.171929 0.485640 0.460487 -0.026011
C10   C     C_1   0.828177 0.503631 0.537240 -0.041747
C11   C     C_1   0.024288 0.263683 0.265857 0.187603
C12   C     C_1   0.500000 0.934840 0.500589 -0.182618
C13   C     C_1   0.980190 0.724886 0.722339 0.164017
C14   C     C_1   0.941759 0.220368 0.619855 0.185656
C15   C     C_1   0.054050 0.762569 0.370297 0.190621
C16   C     C_3   0.889952 0.556335 0.206235 -0.385434
C17   C     C_3   0.928868 0.540720 0.043771 -0.850989
C18   C     C_3   0.103925 0.430453 0.797697 -0.409444
C19   C     C_3   0.145749 0.276999 0.795983 -0.791258
C20   C     C_R   0.499924 0.218055 0.499575 0.932036
C21   C     C_R   0.500050 0.781946 0.500421 0.932422
C22   C     C_R   0.337131 0.498528 0.492447 0.898779
C23   C     C_R   0.662876 0.501445 0.507519 0.901750
C24   C     C_3   0.974729 0.360104 0.556170 -0.035902
C25   C     C_3   0.024476 0.621706 0.437500 -0.055253
C26   C     C_3   0.010076 0.381030 0.386950 -0.042798
H1    H     H_    0.989802 0.604803 0.048493 0.266353
H2    H     H_    0.066069 0.435846 0.905077 0.214474
H3    H     H_    0.939468 0.421171 0.016622 0.259626
H4    H     H_    0.883336 0.584198 0.943858 0.266942
H5    H     H_    0.833889 0.479592 0.203346 0.221425
H6    H     H_    0.867067 0.672466 0.220225 0.221823
H7    H     H_    0.096833 0.187126 0.797208 0.268671
H8    H     H_    0.181923 0.262150 0.686076 0.257387
H9    H     H_    0.190847 0.265493 0.908049 0.253852
H10   H     H_    0.154378 0.518261 0.814000 0.218595
N1    N     N_1   0.500010 0.500000 0.073640 -0.029581
N2    N     N_1   0.499990 0.500000 0.926360 -0.029281
N3    N     N_1   0.035401 0.172104 0.169171 -0.178844
N4    N     N_1   0.973207 0.822869 0.813540 -0.173153
N5    N     N_1   0.915005 0.110661 0.669766 -0.178692
N6    N     N_1   0.077807 0.873308 0.317453 -0.179216
O1    O     O_R   0.500000 0.285340 0.636850 -0.614420
O2    O     O_R   0.500000 0.714660 0.363150 -0.614323
O3    O     O_R   0.500000 0.285340 0.363150 -0.614534
O4    O     O_R   0.500000 0.714660 0.636850 -0.614412
O5    O     O_R   0.376770 0.500000 0.636850 -0.612225
O6    O     O_R   0.623230 0.500000 0.363150 -0.615637
O7    O     O_R   0.376780 0.500000 0.363100 -0.615677
O8    O     O_R   0.623220 0.500000 0.636900 -0.613226
Zn1   Zn    Zn3+2 0.499990 0.500000 0.682780 0.998623
Zn2   Zn    Zn3+2 0.500010 0.500000 0.317220 0.996866

loop_
_geom_bond_atom_site_label_1
_geom_bond_atom_site_label_2
_ccdc_geom_bond_type
O5    Zn1   S    
C11   C26   S    
N1    N2    T    
C3    C9    T    
C16   H6    S    
C21   O2    A    
C17   H3    S    
C20   O3    A    
C7    C25   S    
C23   O8    A    
O7    Zn2   S    
O2    Zn2   S    
C5    C24   S    
C22   O5    A    
C19   H9    S    
C16   H5    S    
C11   N3    T    
C17   H4    S    
C7    C26   S    
O1    Zn1   S    
C6    C26   S    
C1    C12   T    
C14   N5    T    
C5    C18   S    
C22   O7    A    
C12   C21   S    
C1    C20   S    
C8    C10   S    
C8    C24   S    
C24   C26   S    
C4    C23   S    
C2    C25   S    
C5    C7    S    
N2    Zn1   S    
C6    C25   S    
C15   C25   S    
C2    C5    S    
C4    C10   T    
C17   H1    S    
O6    Zn2   S    
C20   O1    A    
C18   H2    S    
C7    C9    S    
C21   O4    A    
C19   H7    S    
C14   C24   S    
N1    Zn2   S    
C2    C13   S    
C18   C19   S    
C3    C22   S    
C6    C8    S    
C23   O6    A    
O3    Zn2   S    
O8    Zn1   S    
C18   H10   S    
O4    Zn1   S    
C6    C16   S    
C2    C8    S    
C15   N6    T    
C16   C17   S    
C13   N4    T    
C19   H8    S    
