data_mof_unit_732.cif
_audit_creation_date              2012-12-11T14:56:22-0500
_audit_creation_method            fapswitch 2.2
_symmetry_space_group_name_H-M    P1
_symmetry_Int_Tables_number       1
_space_group_crystal_system       triclinic
_cell_length_a                    10.584647
_cell_length_b                    10.70588
_cell_length_c                    17.147747
_cell_angle_alpha                 80.542973
_cell_angle_beta                  89.865281
_cell_angle_gamma                 119.515521
_cell_volume                      1660.11645414

loop_
_atom_site_label
_atom_site_type_symbol
_atom_type_description
_atom_site_fract_x
_atom_site_fract_y
_atom_site_fract_z
_atom_type_partial_charge
Br1   Br    Br    0.445582 0.421643 0.132196 -0.479559
C1    C     C_R   0.223308 0.854739 0.128787 0.548462
C2    C     C_1   0.651666 0.345912 0.707623 -0.042338
C3    C     C_R   0.624720 0.713141 0.804601 -0.136517
C4    C     C_R   0.634044 0.272189 0.089734 0.570852
C5    C     C_R   0.613585 0.697536 0.726483 -0.131452
C6    C     C_R   0.671568 0.821610 0.665746 0.032719
C7    C     C_R   0.748538 0.961707 0.683419 -0.150157
C8    C     C_R   0.757154 0.977586 0.762147 -0.143899
C9    C     C_R   0.689280 0.852916 0.822774 0.021324
C10   C     C_R   0.085469 0.883913 0.789766 -0.133373
C11   C     C_R   0.068470 0.880546 0.710567 -0.123733
C12   C     C_R   0.712528 0.261495 0.299823 -0.146030
C13   C     C_R   0.116512 0.803825 0.671397 0.032925
C14   C     C_R   0.170415 0.720146 0.713620 -0.136592
C15   C     C_R   0.189385 0.725004 0.793253 -0.123908
C16   C     C_R   0.640452 0.858712 0.125463 0.562909
C17   C     C_R   0.153508 0.813125 0.830222 0.028284
C18   C     C_R   0.686531 0.809760 0.357198 0.547986
C19   C     C_R   0.682614 0.386648 0.398650 0.548241
C20   C     C_R   0.103370 0.810155 0.359122 0.554849
C21   C     C_R   0.678313 0.799701 0.585800 0.539567
C22   C     C_R   0.679108 0.383186 0.624566 0.547502
C23   C     C_R   0.713510 0.250220 0.221212 -0.157509
C24   C     C_R   0.089787 0.798904 0.589334 0.546667
C25   C     C_R   0.217632 0.858637 0.901926 0.544311
C26   C     C_R   0.637331 0.284291 0.860920 0.549348
C27   C     C_R   0.647036 0.866928 0.899393 0.548670
C28   C     C_R   0.555654 0.355803 0.198172 0.135820
C29   C     C_R   0.556577 0.368416 0.277395 -0.097543
C30   C     C_R   0.640455 0.327443 0.327212 -0.003982
C31   C     C_R   0.639648 0.301653 0.169181 0.040681
C32   C     C_1   0.668841 0.849194 0.205519 -0.024661
C33   C     C_1   0.680079 0.839216 0.274904 -0.034376
C34   C     C_1   0.180850 0.826055 0.211246 -0.021944
C35   C     C_1   0.151149 0.819754 0.279762 -0.022844
C36   C     C_1   0.644161 0.323619 0.778151 -0.042015
Cr1   Cr    Cr6+3 0.402240 0.783890 0.019450 1.077088
Cr2   Cr    Cr6+3 0.382360 0.097900 0.991800 1.068611
Cr3   Cr    Cr6+3 0.715380 0.118170 0.988700 1.034657
Cr4   Cr    Cr6+3 0.936650 0.882420 0.465510 1.032375
Cr5   Cr    Cr6+3 0.605770 0.565620 0.493360 1.029110
Cr6   Cr    Cr6+3 0.921340 0.550490 0.496380 1.031522
H1    H     H_    0.018480 0.939296 0.679844 0.148976
H2    H     H_    0.573398 0.616001 0.850827 0.143178
H3    H     H_    0.561402 0.588076 0.713633 0.140350
H4    H     H_    0.202068 0.655818 0.684572 0.128671
H5    H     H_    0.241583 0.668540 0.823953 0.145550
H6    H     H_    0.500145 0.419783 0.298217 0.169341
H7    H     H_    0.775843 0.227228 0.337873 0.145981
H8    H     H_    0.772045 0.200061 0.201380 0.153464
H9    H     H_    0.799673 0.057776 0.636565 0.129302
H10   H     H_    0.807223 0.086745 0.775254 0.145979
H11   H     H_    0.054490 0.949840 0.817773 0.137012
O1    O     O_R   0.521780 0.757110 0.108900 -0.459310
O2    O     O_R   0.805020 0.410040 0.421340 -0.514556
O3    O     O_R   0.049240 0.685450 0.403290 -0.494452
O4    O     O_R   0.275160 0.783810 0.101120 -0.490924
O5    O     O_R   0.077520 0.903010 0.551800 -0.523408
O6    O     O_R   0.802980 0.872780 0.546830 -0.509850
O7    O     O_R   0.578090 0.681300 0.569920 -0.521062
O8    O     O_R   0.608530 0.436370 0.586530 -0.502799
O9    O     O_R   0.798770 0.401880 0.597100 -0.515412
O10   O     O_R   0.043450 0.677890 0.566230 -0.502199
O11   O     O_3   0.821250 0.666180 0.485090 -0.260365
O12   O     O_R   0.513330 0.228330 0.898660 -0.495610
O13   O     O_R   0.237900 0.972600 0.090980 -0.493965
O14   O     O_R   0.511190 0.220540 0.061620 -0.459682
O15   O     O_R   0.736920 0.257720 0.063840 -0.526090
O16   O     O_R   0.710450 0.984050 0.081720 -0.510127
O17   O     O_R   0.524090 0.765520 0.933110 -0.502966
O18   O     O_R   0.277300 0.791600 0.938160 -0.505200
O19   O     O_R   0.240210 0.981010 0.915190 -0.517923
O20   O     O_R   0.739230 0.266130 0.888050 -0.510562
O21   O     O_R   0.712580 0.991850 0.918770 -0.509175
O22   O     O_3   0.499990 0.999980 0.999980 -0.275129
O23   O     O_R   0.083770 0.911170 0.376030 -0.497259
O24   O     O_R   0.808770 0.880340 0.383890 -0.497553
O25   O     O_R   0.584340 0.689460 0.394160 -0.507357
O26   O     O_R   0.614320 0.443940 0.423590 -0.506919

loop_
_geom_bond_atom_site_label_1
_geom_bond_atom_site_label_2
_ccdc_geom_bond_type
C1    C34   S    
C10   C17   A    
Cr5   O26   S    
C25   O18   A    
Cr2   O14   S    
C2    C22   S    
C34   C35   T    
C17   C25   S    
C14   H4    S    
C19   O2    A    
C15   H5    S    
Cr6   O9    S    
C6    C7    A    
C20   C35   S    
Cr1   O22   S    
Cr3   O16   S    
C28   C31   A    
Cr4   O23   S    
C29   C30   A    
C14   C15   A    
C25   O19   A    
C4    O15   A    
Cr1   O4    S    
C22   O8    A    
Cr1   O1    S    
C7    C8    A    
Cr5   O11   S    
C26   O20   A    
C8    C9    A    
Cr5   O8    S    
C4    C31   S    
C23   H8    S    
C22   O9    A    
C16   O16   A    
C16   C32   S    
C4    O14   A    
Cr6   O10   S    
C3    H2    S    
Cr1   O18   S    
Cr3   O15   S    
C19   O26   A    
C7    H9    S    
Cr4   O5    S    
C3    C5    A    
C1    O13   A    
Cr4   O24   S    
Cr4   O11   S    
Cr3   O22   S    
C12   C23   A    
C24   O10   A    
C18   O24   A    
C23   C31   A    
C20   O3    A    
C28   C29   A    
Cr6   O11   S    
Br1   C28   S    
C32   C33   T    
Cr2   O22   S    
C18   O25   A    
Cr5   O7    S    
C10   H11   S    
C29   H6    S    
C11   C13   A    
Cr2   O12   S    
C27   O17   A    
C8    H10   S    
C3    C9    A    
C9    C27   S    
C16   O1    A    
Cr1   O17   S    
C5    H3    S    
Cr2   O13   S    
C12   C30   A    
Cr4   O6    S    
C18   C33   S    
C10   C11   A    
C1    O4    A    
C5    C6    A    
C6    C21   S    
Cr3   O21   S    
C11   H1    S    
C26   O12   A    
C21   O7    A    
C21   O6    A    
C26   C36   S    
Cr3   O20   S    
Cr2   O19   S    
C13   C24   S    
Cr6   O3    S    
C12   H7    S    
Cr6   O2    S    
Cr5   O25   S    
C2    C36   T    
C15   C17   A    
C20   O23   A    
C13   C14   A    
C24   O5    A    
C27   O21   A    
C19   C30   S    
