data_mof_unit_1550.cif
_audit_creation_date              2012-12-10T21:00:36-0500
_audit_creation_method            fapswitch 2.2
_symmetry_space_group_name_H-M    P1
_symmetry_Int_Tables_number       1
_space_group_crystal_system       triclinic
_cell_length_a                    18.092048
_cell_length_b                    18.165071
_cell_length_c                    18.346968
_cell_angle_alpha                 120.065015
_cell_angle_beta                  90.058125
_cell_angle_gamma                 119.833528
_cell_volume                      4267.93215813

loop_
_atom_site_label
_atom_site_type_symbol
_atom_type_description
_atom_site_fract_x
_atom_site_fract_y
_atom_site_fract_z
_atom_type_partial_charge
C1    C     C_R   0.112386 0.220127 0.609517 0.785922
C2    C     C_3   0.450526 0.897472 0.947482 0.056536
C3    C     C_3   0.445533 0.032301 0.016190 -0.138332
C4    C     C_3   0.554477 0.967706 0.983812 -0.138915
C5    C     C_3   0.413052 0.437071 0.448381 -0.136861
C6    C     C_3   0.587014 0.562906 0.551707 -0.135537
C7    C     C_3   0.477059 0.402813 0.442658 -0.182360
C8    C     C_3   0.523007 0.597168 0.557429 -0.181801
C9    C     C_3   0.550813 0.500093 0.449465 0.065778
C10   C     C_3   0.449244 0.499885 0.550606 0.066604
C11   C     C_3   0.487769 0.534443 0.454421 -0.184459
C12   C     C_R   0.887988 0.779854 0.390399 0.792707
C13   C     C_3   0.512290 0.465545 0.545669 -0.183684
C14   C     C_R   0.266333 0.207658 0.782582 -0.151636
C15   C     C_R   0.730442 0.808081 0.230951 -0.164389
C16   C     C_R   0.392928 0.781212 0.888319 0.757933
C17   C     C_R   0.607074 0.218790 0.111682 0.757757
C18   C     C_R   0.211565 0.158602 0.697191 -0.135621
C19   C     C_R   0.790823 0.861790 0.314961 -0.166350
C20   C     C_R   0.117272 0.100885 0.675014 0.131558
C21   C     C_R   0.881731 0.898203 0.325970 0.119395
C22   C     C_R   0.078528 0.091469 0.738681 -0.199916
C23   C     C_3   0.980494 0.427337 0.414081 -0.126940
C24   C     C_R   0.911786 0.880510 0.252157 -0.145341
C25   C     C_R   0.132844 0.140807 0.824928 0.162376
C26   C     C_R   0.850946 0.825197 0.167212 0.162593
C27   C     C_R   0.227614 0.199400 0.846345 -0.106770
C28   C     C_R   0.760213 0.789683 0.157415 -0.116886
C29   C     C_R   0.000442 0.943651 0.530915 -0.265813
C30   C     C_R   0.001918 0.056107 0.468089 -0.260368
C31   C     C_R   0.943968 0.892234 0.445532 -0.047442
C32   C     C_R   0.058112 0.107712 0.553855 -0.048882
C33   C     C_R   0.944060 0.948699 0.413644 0.000905
C34   C     C_3   0.019333 0.572591 0.586034 -0.126548
C35   C     C_R   0.058286 0.051153 0.585643 0.004361
C36   C     C_R   0.622154 0.496786 0.747368 -0.168177
C37   C     C_R   0.377903 0.506342 0.253081 -0.166352
C38   C     C_R   0.577335 0.472056 0.802018 -0.178617
C39   C     C_R   0.420740 0.528983 0.196609 -0.177611
C40   C     C_R   0.110164 0.500222 0.889035 0.791140
C41   C     C_R   0.889758 0.499696 0.110895 0.791068
C42   C     C_R   0.576771 0.548243 0.879123 0.140789
C43   C     C_R   0.423790 0.453010 0.121781 0.134097
C44   C     C_R   0.622023 0.649515 0.901188 -0.087852
C45   C     C_3   0.448841 0.966029 0.922669 -0.175874
C46   C     C_R   0.382810 0.353948 0.103758 -0.100022
C47   C     C_R   0.666035 0.673665 0.845910 -0.117214
C48   C     C_R   0.341415 0.332211 0.161257 -0.119857
C49   C     C_R   0.666437 0.597482 0.769274 -0.121173
C50   C     C_R   0.338292 0.408052 0.235417 -0.119147
C51   C     C_R   0.584973 0.522097 0.996346 -0.270858
C52   C     C_R   0.414530 0.476623 0.002922 -0.269650
C53   C     C_R   0.549926 0.498672 0.055365 -0.036639
C54   C     C_R   0.449809 0.500633 0.944234 -0.042722
C55   C     C_R   0.463664 0.475056 0.058867 -0.024647
C56   C     C_3   0.551170 0.033978 0.077334 -0.176655
C57   C     C_R   0.536060 0.524261 0.940784 -0.028425
C58   C     C_R   0.098445 0.766303 0.926008 -0.162421
C59   C     C_R   0.897622 0.235095 0.076565 -0.157744
C60   C     C_R   0.092785 0.712477 0.962050 -0.095391
C61   C     C_R   0.904983 0.287858 0.038874 -0.094177
C62   C     C_R   0.018206 0.609423 0.921613 0.110330
C63   C     C_R   0.980931 0.389876 0.077959 0.107677
C64   C     C_R   0.392416 0.500018 0.607714 0.772996
C65   C     C_R   0.607592 0.499962 0.392299 0.774265
C66   C     C_R   0.948283 0.561728 0.846229 -0.166339
C67   C     C_3   0.553498 0.037730 0.959737 -0.177420
C68   C     C_R   0.050812 0.437175 0.153185 -0.165098
C69   C     C_R   0.953074 0.615907 0.810509 0.173569
C70   C     C_R   0.044447 0.383865 0.190355 0.176894
C71   C     C_R   0.029075 0.718397 0.850490 -0.161181
C72   C     C_R   0.966736 0.282856 0.152227 -0.172594
C73   C     C_R   0.957580 0.550295 0.014899 -0.265261
C74   C     C_R   0.042069 0.449274 0.984795 -0.263319
C75   C     C_R   0.945997 0.497978 0.054192 -0.053804
C76   C     C_R   0.053699 0.501661 0.945524 -0.055047
C77   C     C_R   0.988610 0.446322 0.038665 -0.001313
C78   C     C_3   0.446514 0.962277 0.040266 -0.176831
C79   C     C_R   0.010910 0.553110 0.960913 -0.001151
C80   C     C_R   0.393999 0.499087 0.887615 0.798451
C81   C     C_R   0.605968 0.500838 0.112347 0.804465
C82   C     C_R   0.108954 0.500330 0.607823 0.776867
C83   C     C_R   0.890991 0.499628 0.392192 0.776696
C84   C     C_3   0.076705 0.522034 0.480831 -0.168054
C85   C     C_3   0.923123 0.477894 0.519264 -0.168160
C86   C     C_3   0.043970 0.593845 0.514741 -0.186269
C87   C     C_3   0.955864 0.406090 0.485370 -0.186875
C88   C     C_3   0.948615 0.499184 0.448823 0.051953
C89   C     C_3   0.549483 0.102533 0.052520 0.056349
C90   C     C_3   0.051228 0.500740 0.551265 0.051707
C91   C     C_3   0.085553 0.128093 0.890164 -0.454497
C92   C     C_3   0.147987 0.185598 0.984104 -0.340776
C93   C     C_3   0.093295 0.166878 0.043671 -0.889759
C94   C     C_3   0.881405 0.800069 0.086582 -0.438098
C95   C     C_3   0.881395 0.860092 0.050488 -0.348531
C96   C     C_3   0.912087 0.834299 0.968830 -0.884507
H1    H     H_    0.079248 0.670882 0.525859 0.130449
H2    H     H_    0.981742 0.907262 0.260590 0.115780
H3    H     H_    0.001032 0.899849 0.554615 0.165875
H4    H     H_    0.000744 0.099605 0.444312 0.166601
H5    H     H_    0.701466 0.616583 0.727144 0.116952
H6    H     H_    0.304753 0.390513 0.278911 0.115447
H7    H     H_    0.622981 0.438035 0.688266 0.123935
H8    H     H_    0.375165 0.564882 0.310410 0.124312
H9    H     H_    0.544101 0.394115 0.785006 0.120109
H10   H     H_    0.450710 0.605178 0.210558 0.121648
H11   H     H_    0.623303 0.709550 0.961139 0.106249
H12   H     H_    0.920589 0.329050 0.474247 0.130337
H13   H     H_    0.383079 0.293854 0.045357 0.113325
H14   H     H_    0.140672 0.540266 0.466023 0.139373
H15   H     H_    0.859162 0.459677 0.534083 0.139521
H16   H     H_    0.700732 0.751742 0.863048 0.119233
H17   H     H_    0.310426 0.256005 0.147476 0.120288
H18   H     H_    0.651018 0.538811 0.993338 0.164115
H19   H     H_    0.348453 0.459803 0.005881 0.167554
H20   H     H_    0.034266 0.761487 0.823801 0.118038
H21   H     H_    0.960218 0.240555 0.180181 0.117691
H22   H     H_    0.156470 0.845490 0.956935 0.128976
H23   H     H_    0.272361 0.239063 0.911743 0.115221
H24   H     H_    0.838376 0.156925 0.046927 0.129823
H25   H     H_    0.146591 0.750633 0.020999 0.113995
H26   H     H_    0.851104 0.250035 0.980137 0.113910
H27   H     H_    0.889880 0.482705 0.815598 0.126487
H28   H     H_    0.110226 0.515348 0.182784 0.126571
H29   H     H_    0.924663 0.589410 0.025924 0.168857
H30   H     H_    0.075007 0.410202 0.973827 0.172814
H31   H     H_    0.963355 0.367338 0.342749 0.146870
H32   H     H_    0.036291 0.632466 0.657388 0.147780
H33   H     H_    0.598101 0.069936 0.927156 0.122908
H34   H     H_    0.712298 0.746556 0.092593 0.124182
H35   H     H_    0.401915 0.930077 0.072853 0.123025
H36   H     H_    0.406268 0.936985 0.858407 0.125676
H37   H     H_    0.593746 0.063025 0.141595 0.125369
H38   H     H_    0.400996 0.059638 0.029940 0.133051
H39   H     H_    0.599019 0.940376 0.970066 0.133088
H40   H     H_    0.459226 0.323153 0.394536 0.128595
H41   H     H_    0.540834 0.676826 0.605548 0.128697
H42   H     H_    0.340687 0.385190 0.407048 0.134796
H43   H     H_    0.659334 0.614688 0.593165 0.134863
H44   H     H_    0.479495 0.563612 0.416669 0.137799
H45   H     H_    0.339128 0.252876 0.799672 0.129200
H46   H     H_    0.520595 0.436472 0.583495 0.136334
H47   H     H_    0.048211 0.192474 0.047779 0.272667
H48   H     H_    0.051811 0.083002 0.016550 0.258798
H49   H     H_    0.139568 0.211856 0.112028 0.247738
H50   H     H_    0.191120 0.157401 0.979881 0.213209
H51   H     H_    0.191662 0.270574 0.015066 0.232808
H52   H     H_    0.042014 0.156229 0.896229 0.207952
H53   H     H_    0.040725 0.043667 0.861212 0.199185
H54   H     H_    0.982599 0.858001 0.987136 0.265714
H55   H     H_    0.909537 0.876964 0.942936 0.237872
H56   H     H_    0.660160 0.779397 0.222515 0.129991
H57   H     H_    0.867083 0.749551 0.915192 0.270981
H58   H     H_    0.812376 0.840072 0.031342 0.214446
H59   H     H_    0.927772 0.945084 0.103217 0.220171
H60   H     H_    0.950622 0.819673 0.103845 0.198990
H61   H     H_    0.835430 0.714962 0.033927 0.206041
H62   H     H_    0.894591 0.615341 0.714489 0.168619
H63   H     H_    0.823203 0.552869 0.753128 0.176621
H64   H     H_    0.101991 0.384439 0.286920 0.168504
H65   H     H_    0.173631 0.443644 0.246395 0.181022
H66   H     H_    0.242465 0.166344 0.648668 0.103492
H67   H     H_    0.766665 0.873936 0.371201 0.118133
H68   H     H_    0.005604 0.046796 0.721395 0.125436
N1    N     N_3   0.880389 0.565763 0.733843 -0.483891
N2    N     N_3   0.117263 0.433387 0.266612 -0.483171
O1    O     O_3   0.251620 0.500000 0.748430 -0.477434
O2    O     O_R   0.570330 0.268390 0.136490 -0.648219
O3    O     O_R   0.134680 0.268390 0.572240 -0.649995
O4    O     O_R   0.865320 0.731610 0.427760 -0.650375
O5    O     O_R   0.306670 0.731630 0.863510 -0.640117
O6    O     O_R   0.693330 0.268370 0.136490 -0.640398
O7    O     O_R   0.135450 0.439270 0.865360 -0.648330
O8    O     O_R   0.864550 0.560730 0.134640 -0.652070
O9    O     O_R   0.429670 0.560710 0.692610 -0.634621
O10   O     O_R   0.570330 0.439290 0.307390 -0.634370
O11   O     O_R   0.308540 0.439240 0.865360 -0.642484
O12   O     O_3   0.748380 0.500000 0.251570 -0.476691
O13   O     O_R   0.691460 0.560760 0.134640 -0.643284
O14   O     O_R   0.133580 0.439310 0.571150 -0.646191
O15   O     O_R   0.866420 0.560690 0.428850 -0.646624
O16   O     O_R   0.430770 0.560690 0.864590 -0.644351
O17   O     O_R   0.569230 0.439310 0.135410 -0.645746
O18   O     O_R   0.133580 0.560760 0.692610 -0.638350
O19   O     O_R   0.866420 0.439240 0.307390 -0.637850
O20   O     O_R   0.134680 0.560740 0.864590 -0.635879
O21   O     O_R   0.865320 0.439260 0.135410 -0.635135
O22   O     O_R   0.306670 0.439270 0.571150 -0.651891
O23   O     O_R   0.693330 0.560730 0.428850 -0.651870
O24   O     O_R   0.135450 0.268370 0.694460 -0.629770
O25   O     O_R   0.864550 0.731630 0.305540 -0.632373
O26   O     O_R   0.429670 0.731610 0.863510 -0.647482
Zn1   Zn    Zn3+2 0.207400 0.586780 0.791530 0.969608
Zn2   Zn    Zn3+2 0.792600 0.413220 0.208470 0.969168
Zn3   Zn    Zn3+2 0.208510 0.413230 0.792630 0.966415
Zn4   Zn    Zn3+2 0.791490 0.586770 0.207370 0.962556
Zn5   Zn    Zn3+2 0.383150 0.586740 0.791530 0.960169
Zn6   Zn    Zn3+2 0.616850 0.413260 0.208470 0.960328
Zn7   Zn    Zn3+2 0.207400 0.413250 0.618010 0.951453
Zn8   Zn    Zn3+2 0.792600 0.586750 0.381990 0.952376

loop_
_geom_bond_atom_site_label_1
_geom_bond_atom_site_label_2
_ccdc_geom_bond_type
C26   C94   S    
C39   H10   S    
C41   O8    A    
O8    Zn4   S    
C59   H24   S    
C30   H4    S    
C37   H8    S    
O1    Zn1   S    
C14   C18   A    
O20   Zn1   S    
O6    Zn2   S    
C95   C96   S    
C84   C90   S    
C76   C79   A    
C58   H22   S    
O19   Zn2   S    
O5    Zn1   S    
C68   H28   S    
C6    C9    S    
O4    Zn8   S    
C56   H37   S    
C17   O6    A    
C5    H42   S    
C47   C49   A    
C12   C31   S    
C15   C19   A    
O12   Zn2   S    
C69   N1    S    
C41   O21   A    
C74   C76   A    
C36   H7    S    
C24   H2    S    
C60   C62   A    
C19   C21   A    
C84   C86   S    
C38   C42   A    
C70   N2    S    
C49   H5    S    
C40   O7    A    
C8    C10   S    
C86   C88   S    
C58   C71   A    
C85   C88   S    
C66   C69   A    
C21   C33   S    
C58   C60   A    
O18   Zn1   S    
C82   O18   A    
C67   C89   S    
C56   C78   S    
C83   O15   A    
C53   C81   S    
C34   C86   S    
C6    H43   S    
C61   C63   A    
C86   H1    S    
O25   Zn4   S    
O9    Zn5   S    
C16   O26   A    
C20   C35   S    
C83   O19   A    
C87   H12   S    
C74   C77   A    
C72   H21   S    
C45   C67   S    
C31   C33   A    
C93   H49   S    
C51   C57   A    
C80   O16   A    
C14   C27   A    
C28   H34   S    
C2    C16   S    
C95   H59   S    
H65   N2    S    
C93   H47   S    
C44   C47   A    
C59   C72   A    
O3    Zn7   S    
C1    O24   A    
C48   C50   A    
C83   C88   S    
O12   Zn6   S    
C14   H45   S    
C69   C71   A    
C23   C87   S    
C4    C56   S    
C92   H51   S    
C73   C75   A    
C60   H25   S    
C67   H33   S    
O16   Zn5   S    
C42   C44   A    
C42   C57   S    
C15   H56   S    
C52   C54   A    
C54   C80   S    
O13   Zn4   S    
C85   C87   S    
C2    C45   S    
O1    Zn5   S    
C3    C78   S    
C46   C48   A    
C59   C61   A    
O17   Zn6   S    
C25   C91   S    
C23   C84   S    
C29   H3    S    
C92   H50   S    
C51   H18   S    
C32   C35   A    
C62   C79   S    
C17   C89   S    
C81   O13   A    
O10   Zn6   S    
C91   C92   S    
C5    C7    S    
C62   C66   A    
C6    C8    S    
O22   Zn7   S    
O26   Zn5   S    
C96   H55   S    
O12   Zn4   S    
C3    C45   S    
C1    C32   S    
C84   H14   S    
H63   N1    S    
C61   H26   S    
C51   C53   A    
C34   C85   S    
C2    C4    S    
C11   H44   S    
C34   C90   S    
O7    Zn3   S    
C2    C78   S    
C41   C75   S    
C22   H68   S    
C96   H57   S    
C7    C13   S    
C96   H54   S    
C44   H11   S    
C73   C79   A    
C19   H67   S    
C13   H46   S    
C64   O9    A    
C75   C77   A    
C64   O22   A    
C93   H48   S    
O2    Zn6   S    
O24   Zn3   S    
C4    H39   S    
O23   Zn8   S    
C68   C70   A    
C56   C89   S    
C22   C25   A    
C65   O23   A    
C50   H6    S    
C94   H61   S    
H64   N2    S    
C23   C88   S    
C9    C11   S    
C65   O10   A    
C91   H52   S    
C21   C24   A    
C46   H13   S    
C81   O17   A    
C53   C55   A    
C91   H53   S    
C63   C77   S    
C52   H19   S    
C43   C55   S    
C7    C9    S    
C12   O25   A    
O12   Zn8   S    
C63   C68   A    
O11   Zn3   S    
C30   C33   A    
O1    Zn3   S    
C78   H35   S    
C10   C64   S    
C24   C26   A    
C20   C22   A    
C85   H15   S    
C10   C13   S    
C4    C67   S    
C12   O4    A    
C52   C55   A    
C34   H32   S    
C5    C11   S    
C27   H23   S    
C25   C27   A    
C29   C35   A    
C23   H31   S    
C26   C28   A    
C82   C90   S    
C3    C89   S    
C95   H58   S    
C80   O11   A    
C3    H38   S    
C38   H9    S    
C36   C38   A    
C7    H40   S    
C37   C39   A    
O14   Zn7   S    
C6    C13   S    
C30   C32   A    
C37   C50   A    
C18   H66   S    
C16   O5    A    
C15   C28   A    
C74   H30   S    
C8    C11   S    
C73   H29   S    
C1    O3    A    
C92   C93   S    
C71   H20   S    
C18   C20   A    
C94   C95   S    
C43   C46   A    
C9    C65   S    
C94   H60   S    
C40   C76   S    
C5    C10   S    
C40   O20   A    
C39   C43   A    
C45   H36   S    
C29   C31   A    
C87   C90   S    
C82   O14   A    
O21   Zn2   S    
C17   O2    A    
O1    Zn7   S    
C66   H27   S    
C8    H41   S    
C70   C72   A    
O15   Zn8   S    
C36   C49   A    
C47   H16   S    
H62   N1    S    
C48   H17   S    
C54   C57   A    
