data_mof_unit_2975.cif
_audit_creation_date              2013-03-05T15:53:43-0500
_audit_creation_method            fapswitch 2.2
_symmetry_space_group_name_H-M    P1
_symmetry_Int_Tables_number       1
_space_group_crystal_system       triclinic
_cell_length_a                    12.9493
_cell_length_b                    13.283679
_cell_length_c                    27.782931
_cell_angle_alpha                 94.436764
_cell_angle_beta                  90.167528
_cell_angle_gamma                 119.249158
_cell_volume                      4152.69429889

loop_
_atom_site_label
_atom_site_type_symbol
_atom_site_description
_atom_site_fract_x
_atom_site_fract_y
_atom_site_fract_z
_atom_type_partial_charge
O1    O     O_R   0.296680 0.802170 0.437540 -0.486553
O2    O     O_R   0.525380 0.838530 0.443500 -0.475763
C1    C     C_R   0.628248 0.895484 0.427332 0.531005
O3    O     O_R   0.702130 0.995190 0.446810 -0.508852
O4    O     O_R   0.661770 0.181390 0.458760 -0.478271
C2    C     C_R   0.601092 0.221888 0.440415 0.554018
O5    O     O_R   0.499820 0.198480 0.455280 -0.496939
O6    O     O_R   0.311660 0.976250 0.449080 -0.508997
C3    C     C_R   0.267187 0.876148 0.426706 0.541128
O7    O     O_R   0.297580 0.804960 0.544440 -0.469102
O8    O     O_R   0.526220 0.841130 0.542590 -0.478465
C4    C     C_R   0.627250 0.898597 0.564842 0.548798
O9    O     O_R   0.703030 0.997990 0.553710 -0.492371
O10   O     O_R   0.662610 0.183990 0.557860 -0.507611
C5    C     C_R   0.604010 0.228535 0.577989 0.562618
O11   O     O_R   0.500730 0.201280 0.562180 -0.442985
O12   O     O_R   0.312500 0.978850 0.548170 -0.498781
C6    C     C_R   0.271724 0.879207 0.563374 0.549311
Cr1   Cr    Cr6+3 0.416430 0.829200 0.492370 1.118508
Cr2   Cr    Cr6+3 0.674630 0.087020 0.504170 1.093662
Cr3   Cr    Cr6+3 0.408920 0.083740 0.503490 1.103371
O13   O     O_3   0.499990 0.999990 0.500010 -0.283293
C7    C     C_1   0.633419 0.268065 0.394399 0.023260
C8    C     C_R   0.655576 0.223331 0.269213 -0.054173
C9    C     C_R   0.663998 0.238732 0.219396 0.300065
C10   C     C_R   0.707186 0.437770 0.238524 -0.142054
C11   C     C_R   0.698176 0.421636 0.287736 -0.088415
C12   C     C_R   0.671426 0.314200 0.303174 0.043534
C13   C     C_R   0.688865 0.346562 0.204265 0.093195
C14   C     C_1   0.694663 0.366134 0.153747 0.040197
C15   C     C_1   0.653849 0.293967 0.353462 -0.003126
C16   C     C_1   0.702442 0.392867 0.112847 0.040791
H1    H     H_    0.634953 0.140228 0.281441 0.105280
H2    H     H_    0.726939 0.521270 0.227055 0.118447
H3    H     H_    0.710442 0.492350 0.313624 0.133350
C17   C     C_R   0.145592 0.742482 0.358579 -0.090643
C18   C     C_R   0.120767 0.725377 0.308966 -0.037399
C19   C     C_R   0.084901 0.698075 0.208276 0.009184
C20   C     C_R   0.073741 0.604224 0.233223 0.248936
C21   C     C_R   0.086678 0.616989 0.283923 0.177211
C22   C     C_R   0.061512 0.685430 0.158213 0.274063
H4    H     H_    0.134888 0.671552 0.378639 0.199356
C23   C     C_R   0.088142 0.783569 0.133006 0.014448
C24   C     C_R   0.207651 0.946654 0.358096 -0.124439
C25   C     C_R   0.178387 0.930930 0.308881 0.018105
C26   C     C_R   0.139006 0.820803 0.283767 0.014715
C27   C     C_R   0.196463 0.025392 0.283884 -0.095957
C28   C     C_R   0.178689 0.012048 0.233883 -0.071283
C29   C     C_R   0.142452 0.904095 0.208403 0.004563
C30   C     C_R   0.121371 0.807339 0.233480 -0.033774
C31   C     C_R   0.127675 0.891824 0.158223 -0.161009
C32   C     C_R   0.198823 0.853832 0.381899 -0.012609
H5    H     H_    0.143474 0.965554 0.138865 0.160931
H6    H     H_    0.195051 0.086570 0.215062 0.187079
H7    H     H_    0.227171 0.110192 0.302879 0.161116
H8    H     H_    0.247138 0.032985 0.376653 0.145415
C33   C     C_R   0.744306 0.945260 0.354868 -0.135374
C34   C     C_R   0.744115 0.940001 0.304537 -0.053504
C35   C     C_R   0.742700 0.924415 0.203275 -0.055092
C36   C     C_R   0.829906 0.025251 0.230294 0.203601
C37   C     C_R   0.830721 0.033087 0.280897 0.193989
C38   C     C_R   0.746416 0.911754 0.153245 -0.122148
H9    H     H_    0.814461 0.981250 0.134893 0.211352
H10   H     H_    0.812993 0.020225 0.375985 0.203133
C39   C     C_R   0.674515 0.805071 0.127082 -0.031554
C40   C     C_R   0.565710 0.757375 0.352098 0.233878
C41   C     C_R   0.564310 0.750470 0.301368 0.023191
C42   C     C_R   0.653409 0.841509 0.277511 -0.038097
C43   C     C_R   0.471184 0.656665 0.274164 -0.079743
C44   C     C_R   0.466418 0.649673 0.223757 0.188309
C45   C     C_R   0.563020 0.733127 0.199330 -0.002747
C46   C     C_R   0.652791 0.833122 0.226693 -0.058320
C47   C     C_R   0.577098 0.717161 0.149164 0.201609
C48   C     C_R   0.650897 0.860428 0.378662 -0.023519
H11   H     H_    0.397860 0.590712 0.292067 0.231787
C49   C     C_R   0.734577 0.286529 0.651114 -0.103054
C50   C     C_R   0.749237 0.310996 0.701172 0.017841
C51   C     C_R   0.764252 0.347734 0.802613 -0.017271
C52   C     C_R   0.832962 0.306346 0.779075 -0.092958
C53   C     C_R   0.824845 0.285604 0.728706 0.236282
C54   C     C_R   0.768802 0.363464 0.853227 -0.122042
H12   H     H_    0.828413 0.346978 0.874499 0.132556
H13   H     H_    0.783251 0.249691 0.632535 0.205216
H14   H     H_    0.889893 0.285729 0.799991 0.151458
C55   C     C_R   0.697191 0.402320 0.876309 0.008518
C56   C     C_R   0.589207 0.352590 0.647428 0.218178
C57   C     C_R   0.609546 0.387339 0.697495 0.032011
C58   C     C_R   0.683597 0.358343 0.724534 -0.003960
C59   C     C_R   0.553199 0.443899 0.722223 0.236429
C60   C     C_R   0.555958 0.453186 0.772492 -0.110629
C61   C     C_R   0.621438 0.416760 0.798777 -0.020981
C62   C     C_R   0.690152 0.374604 0.775236 0.055039
C63   C     C_R   0.622878 0.427250 0.848712 -0.118894
C64   C     C_R   0.647600 0.296398 0.625150 -0.023434
H15   H     H_    0.570537 0.461984 0.866035 0.144349
H16   H     H_    0.510045 0.493277 0.791240 0.145035
C65   C     C_1   0.222379 0.862321 0.610069 0.063960
C66   C     C_R   0.067868 0.756152 0.718763 0.206247
C67   C     C_R   0.053057 0.748595 0.768624 -0.109517
C68   C     C_R   0.242993 0.920853 0.786237 -0.010227
C69   C     C_R   0.260255 0.932180 0.736846 0.271741
C70   C     C_R   0.172870 0.848045 0.702508 0.033388
C71   C     C_R   0.140737 0.829171 0.802122 -0.049011
C72   C     C_1   0.123912 0.816200 0.852902 -0.038932
C73   C     C_1   0.194359 0.853925 0.651514 0.043614
C74   C     C_1   0.100527 0.798329 0.894404 0.009683
H17   H     H_    0.973607 0.677922 0.781430 0.154763
H18   H     H_    0.310328 0.983869 0.812318 0.156350
C75   C     C_1   0.645351 0.862866 0.609909 0.085385
C76   C     C_R   0.771751 0.826625 0.716432 -0.072575
C77   C     C_R   0.786024 0.810694 0.764537 -0.089039
C78   C     C_R   0.585477 0.770420 0.778573 -0.075825
C79   C     C_R   0.568931 0.785218 0.730116 0.260256
C80   C     C_R   0.664445 0.815021 0.698983 0.064448
C81   C     C_R   0.693307 0.783533 0.795698 -0.019505
C82   C     C_1   0.709700 0.771898 0.845701 -0.051610
C83   C     C_1   0.656034 0.839107 0.649908 0.085292
C84   C     C_1   0.725469 0.763729 0.887604 -0.004604
H19   H     H_    0.845127 0.849440 0.692907 0.157610
H20   H     H_    0.869912 0.821206 0.777618 0.132399
H21   H     H_    0.514067 0.748178 0.803092 0.163428
O14   O     O_R   0.820790 0.857990 0.068830 -0.509442
O15   O     O_R   0.016700 0.827330 0.062850 -0.509421
C85   C     C_R   0.054526 0.765623 0.081495 0.570191
O16   O     O_R   0.041970 0.673520 0.060040 -0.423501
O17   O     O_R   0.817980 0.483660 0.048840 -0.473088
C86   C     C_R   0.716583 0.440545 0.067145 0.550760
O18   O     O_R   0.637200 0.461990 0.052510 -0.458296
O19   O     O_R   0.664790 0.681920 0.057970 -0.436331
C87   C     C_R   0.718942 0.782212 0.080879 0.563104
O20   O     O_R   0.815840 0.852920 0.961840 -0.486540
O21   O     O_R   0.012100 0.822630 0.963670 -0.511369
C88   C     C_R   0.056612 0.766508 0.941270 0.539735
O22   O     O_R   0.037010 0.668460 0.953040 -0.495013
O23   O     O_R   0.813390 0.478970 0.949660 -0.503878
C89   C     C_R   0.712005 0.438825 0.927981 0.529933
O24   O     O_R   0.632250 0.456930 0.945520 -0.522157
O25   O     O_R   0.660200 0.677230 0.958780 -0.485153
C90   C     C_R   0.748816 0.755098 0.937053 0.547683
Cr4   Cr    Cr6+3 0.914010 0.832750 0.013970 1.063756
Cr5   Cr    Cr6+3 0.922310 0.578600 0.003000 1.096904
Cr6   Cr    Cr6+3 0.656280 0.574630 0.003870 1.118274
O26   O     O_3   0.830870 0.661990 0.006950 -0.307709
N1    N     N_R   0.917940 0.120670 0.206633 0.108673
O27   O     O_R   0.001431 0.111005 0.184449 -0.322458
O28   O     O_R   0.923174 0.221197 0.212354 -0.225014
N2    N     N_R   0.919595 0.136360 0.307957 0.100319
O29   O     O_R   0.888645 0.199810 0.335601 -0.279057
O30   O     O_R   0.031392 0.173281 0.301259 -0.257861
N3    N     N_R   0.502222 0.607906 0.122241 0.121541
O31   O     O_R   0.502820 0.514903 0.133515 -0.299655
O32   O     O_R   0.438356 0.602407 0.084825 -0.256859
N4    N     N_R   0.358498 0.563340 0.198598 0.120328
O33   O     O_R   0.302761 0.459162 0.212514 -0.254804
O34   O     O_R   0.304186 0.594680 0.168719 -0.231849
O35   O     O_3   0.647062 0.150164 0.185233 -0.662268
H22   H     H_    0.629774 0.080600 0.201915 0.322541
O36   O     O_3   0.481263 0.664547 0.374521 -0.662054
H23   H     H_    0.515181 0.664091 0.406477 0.341002
N5    N     N_R   0.890110 0.234163 0.706581 0.078434
O37   O     O_R   0.833863 0.134075 0.681431 -0.356258
O38   O     O_R   0.000608 0.274013 0.720010 -0.265145
N6    N     N_R   0.498550 0.498122 0.697570 0.113095
O39   O     O_R   0.401189 0.492670 0.712862 -0.252460
O40   O     O_R   0.556387 0.569484 0.665570 -0.274788
N7    N     N_R   0.500539 0.362254 0.620171 0.129968
O41   O     O_R   0.528972 0.419554 0.581966 -0.258004
O42   O     O_R   0.389391 0.301427 0.629754 -0.260648
N8    N     N_R   0.975768 0.669927 0.685642 0.082199
O43   O     O_R   0.865972 0.620593 0.697873 -0.361189
O44   O     O_R   0.001365 0.631969 0.645392 -0.287656
O45   O     O_3   0.364525 0.025462 0.724296 -0.672528
H24   H     H_    0.364827 0.029880 0.688951 0.332859
N9    N     N_R   0.455788 0.769731 0.713668 0.105300
O46   O     O_R   0.383219 0.774952 0.744772 -0.325970
O47   O     O_R   0.418870 0.738292 0.668578 -0.270581
O48   O     O_3   0.003325 0.576390 0.133866 -0.579400
H25   H     H_    0.933236 0.528880 0.152414 0.336230
O49   O     O_3   0.057140 0.503769 0.207183 -0.576663
H26   H     H_    0.074888 0.456417 0.227938 0.418536
N10   N     N_R   0.066896 0.520009 0.309655 0.060214
O50   O     O_R   0.156363 0.515158 0.328425 -0.275171
O51   O     O_R   0.961771 0.429695 0.308208 -0.262292

loop_
_geom_bond_atom_site_label_1
_geom_bond_atom_site_label_2
_geom_bond_distance
_ccdc_geom_bond_type
C67   C71   1.397519 A    
C57   C58   1.426076 A    
C69   C70   1.425662 A    
C47   N3    1.434792 S    
C44   N4    1.435565 S    
C22   C23   1.418521 A    
N8    O43   1.301206 A    
C21   N10   1.434372 S    
C17   H4    1.082435 S    
N6    O39   1.301501 A    
C56   N7    1.436066 S    
Cr4   O26   1.971364 S    
O24   Cr6   2.073370 S    
C5    C64   1.470970 S    
C72   C74   1.204883 T    
C54   H12   1.084283 S    
C33   C34   1.394607 A    
C75   C83   1.204071 T    
O23   C89   1.277610 A    
O4    Cr2   1.907446 S    
C25   C26   1.413482 A    
O45   H24   0.988186 S    
C28   H6    1.083538 S    
O8    Cr1   1.930574 S    
C10   C11   1.396702 A    
O17   C86   1.274675 A    
C70   C73   1.445323 S    
C16   C86   1.435035 S    
C22   O48   1.379213 S    
C17   C18   1.390165 A    
N2    O30   1.301084 A    
C79   C80   1.419648 A    
C18   C21   1.405027 A    
Cr5   O26   1.976073 S    
O4    C2    1.272672 A    
C66   C67   1.403601 A    
C53   N5    1.435775 S    
C59   N6    1.435388 S    
C5    O11   1.269416 A    
C40   C48   1.413770 A    
C39   C47   1.416756 A    
C69   O45   1.383740 S    
C1    C48   1.472965 S    
N9    O46   1.301465 A    
C4    C75   1.430703 S    
O20   Cr4   2.041465 S    
C56   C64   1.412399 A    
N2    O29   1.301010 A    
C49   C64   1.400075 A    
C76   C77   1.394898 A    
C66   N8    1.441062 S    
C55   C63   1.403538 A    
C10   H2    1.084045 S    
C74   C88   1.432476 S    
N4    O33   1.301481 A    
C58   C62   1.404445 A    
C50   C58   1.414855 A    
O16   Cr5   2.066267 S    
O21   C88   1.274983 A    
C29   C31   1.392713 A    
O36   H23   0.991128 S    
C86   O18   1.266809 A    
C44   C45   1.421463 A    
C6    C65   1.432313 S    
N4    O34   1.301241 A    
C76   C80   1.401700 A    
C17   C32   1.391238 A    
C35   C46   1.412876 A    
C65   C73   1.205282 T    
C24   C32   1.399858 A    
C34   C37   1.411712 A    
N10   O51   1.300116 A    
C40   C41   1.404783 A    
C35   C36   1.412169 A    
C63   H15   1.084927 S    
Cr3   O13   1.975820 S    
C9    O35   1.380955 S    
N7    O42   1.301685 A    
N8    O44   1.301115 A    
C3    C32   1.449575 S    
C49   H13   1.080468 S    
C78   C79   1.406200 A    
C39   C87   1.478424 S    
C25   C27   1.400140 A    
C9    C13   1.405471 A    
C19   C20   1.419067 A    
O1    Cr1   2.052208 S    
C68   H18   1.084090 S    
C41   C42   1.413505 A    
C14   C16   1.206481 T    
O10   Cr2   1.951548 S    
O15   C85   1.279355 A    
Cr1   O13   1.971849 S    
O1    C3    1.270439 A    
C8    C9    1.411462 A    
C19   C22   1.402214 A    
N1    O28   1.300658 A    
O25   Cr6   1.904299 S    
C61   C62   1.402410 A    
C45   C47   1.419261 A    
C56   C57   1.413167 A    
O6    C3    1.268034 A    
O19   Cr6   1.953628 S    
C51   C62   1.413897 A    
N10   O50   1.301118 A    
O15   Cr4   1.927648 S    
C68   C71   1.393562 A    
O12   Cr3   1.902065 S    
C52   C53   1.398739 A    
C36   C37   1.401328 A    
C31   H5    1.084748 S    
C7    C15   1.206343 T    
C33   C48   1.399247 A    
C13   C14   1.442620 S    
C61   C63   1.382729 A    
C88   O22   1.269254 A    
C24   H8    1.084602 S    
C27   C28   1.390814 A    
O23   Cr5   1.948646 S    
O7    Cr1   2.041056 S    
C42   C46   1.407350 A    
C38   H9    1.081276 S    
O12   C6    1.270449 A    
C49   C50   1.394325 A    
C34   C42   1.412901 A    
C28   C29   1.400409 A    
Cr2   O13   1.971555 S    
O48   H25   0.990401 S    
C57   C59   1.423958 A    
N7    O41   1.301922 A    
N3    O32   1.301562 A    
C1    O3    1.268924 A    
C40   O36   1.381875 S    
C24   C25   1.390057 A    
C33   H10   1.080729 S    
C27   H7    1.083783 S    
O19   C87   1.274741 A    
C50   C53   1.419782 A    
O35   H22   0.991737 S    
C35   C38   1.390957 A    
C38   C39   1.396712 A    
N6    O40   1.300181 A    
O2    Cr1   1.927602 S    
N3    O31   1.301395 A    
O9    Cr2   2.025384 S    
C12   C15   1.440922 S    
C8    C12   1.403577 A    
C89   O24   1.260730 A    
O6    Cr3   1.951334 S    
C76   H19   1.083843 S    
C20   O49   1.385508 S    
O8    C4    1.273894 A    
O11   Cr3   2.071439 S    
C60   H16   1.084761 S    
C2    O5    1.269482 A    
C19   C30   1.411036 A    
O3    Cr2   2.069185 S    
O21   Cr4   1.931993 S    
C67   H17   1.084608 S    
C26   C30   1.398429 A    
O17   Cr5   1.905587 S    
C8    H1    1.084357 S    
N1    O27   1.300969 A    
C11   H3    1.083459 S    
N5    O37   1.301293 A    
O2    C1    1.272726 A    
C18   C26   1.413669 A    
O14   Cr4   2.054236 S    
C78   H21   1.083631 S    
C66   C70   1.417656 A    
C36   N1    1.435115 S    
O22   Cr5   2.023218 S    
O5    Cr3   2.018545 S    
C51   C52   1.395485 A    
C51   C54   1.402328 A    
C23   C31   1.394077 A    
C60   C61   1.392253 A    
C52   H14   1.084251 S    
O7    C6    1.266892 A    
C2    C7    1.435092 S    
C68   C69   1.398754 A    
C82   C84   1.203588 T    
C43   H11   1.083415 S    
C37   N2    1.436734 S    
C43   C44   1.395520 A    
N9    O47   1.301062 A    
C80   C83   1.440104 S    
O20   C90   1.293067 A    
O25   C90   1.300706 A    
C55   C89   1.460356 S    
O49   H26   0.988742 S    
C20   C21   1.405281 A    
C45   C46   1.422427 A    
C85   O16   1.253331 A    
C4    O9    1.265170 A    
C84   C90   1.431001 S    
C10   C13   1.403403 A    
C29   C30   1.417265 A    
C71   C72   1.438841 S    
Cr6   O26   1.971035 S    
O10   C5    1.276238 A    
C77   H20   1.083146 S    
C77   C81   1.397235 A    
C41   C43   1.399545 A    
C59   C60   1.391318 A    
O18   Cr6   2.019798 S    
C23   C85   1.461712 S    
O14   C87   1.273618 A    
C78   C81   1.397157 A    
C54   C55   1.399134 A    
C81   C82   1.436122 S    
N5    O38   1.301131 A    
C79   N9    1.443858 S    
C11   C12   1.397561 A    
