data_mof_unit_869.cif
_audit_creation_date              2012-12-10T17:15:42-0500
_audit_creation_method            fapswitch 2.2
_symmetry_space_group_name_H-M    P1
_symmetry_Int_Tables_number       1
_space_group_crystal_system       triclinic
_cell_length_a                    17.377385
_cell_length_b                    12.930904
_cell_length_c                    11.746058
_cell_angle_alpha                 100.402566
_cell_angle_beta                  90.485022
_cell_angle_gamma                 92.145949
_cell_volume                      2593.88669244

loop_
_atom_site_label
_atom_site_type_symbol
_atom_type_description
_atom_site_fract_x
_atom_site_fract_y
_atom_site_fract_z
_atom_type_partial_charge
C1    C     C_R   0.502138 0.299491 0.478044 0.796144
C2    C     C_R   0.497403 0.700582 0.522102 0.816575
C3    C     C_R   0.490454 0.813913 0.535052 -0.061127
C4    C     C_R   0.510299 0.186534 0.465546 -0.094431
C5    C     C_R   0.575791 0.025598 0.395898 -0.183488
C6    C     C_R   0.426652 0.975978 0.606310 -0.216417
C7    C     C_R   0.568390 0.133723 0.396286 0.126259
C8    C     C_R   0.434079 0.868603 0.606267 0.146195
C9    C     C_R   0.463820 0.133795 0.534771 -0.279163
C10   C     C_R   0.537315 0.866617 0.465898 -0.297315
C11   C     C_R   0.473086 0.027896 0.536055 0.136854
C12   C     C_R   0.528967 0.973211 0.465631 0.121331
C13   C     C_R   0.429274 0.398868 0.023702 -0.317848
C14   C     C_R   0.570500 0.601492 0.976327 -0.319928
C15   C     C_R   0.435391 0.406212 0.144921 0.369525
C16   C     C_R   0.564190 0.594239 0.855143 0.368837
C17   C     C_R   0.530286 0.544708 0.155659 -0.005074
C18   C     C_R   0.469940 0.455033 0.844305 -0.005511
C19   C     C_R   0.525603 0.536712 0.033295 0.027140
C20   C     C_R   0.474585 0.463118 0.966680 0.026375
C21   C     C_R   0.350911 0.498389 0.514395 0.781694
C22   C     C_R   0.649077 0.500039 0.485396 0.769369
C23   C     C_R   0.266985 0.491730 0.520680 -0.026026
C24   C     C_R   0.732976 0.502806 0.478367 -0.026276
C25   C     C_R   0.222624 0.471604 0.418259 -0.212345
C26   C     C_R   0.777858 0.523995 0.580274 -0.208455
C27   C     C_R   0.142959 0.464645 0.423006 -0.144493
C28   C     C_R   0.857564 0.527200 0.574518 -0.147251
C29   C     C_R   0.106354 0.479467 0.530478 0.195260
C30   C     C_R   0.893533 0.507972 0.466625 0.193583
C31   C     C_R   0.150541 0.496621 0.632830 -0.176969
C32   C     C_R   0.848891 0.489207 0.364732 -0.172601
C33   C     C_R   0.230531 0.502969 0.628127 -0.207704
C34   C     C_R   0.768930 0.486096 0.370410 -0.200624
C35   C     C_2   0.022210 0.477635 0.538321 -0.231844
C36   C     C_2   0.977548 0.508327 0.457931 -0.231924
Cu1   Cu    Cu3+1 0.505800 0.507690 0.615350 0.924829
Cu2   Cu    Cu3+1 0.494200 0.492310 0.384650 0.922531
H1    H     H_    0.002624 0.532706 0.382204 0.143943
H2    H     H_    0.996915 0.453371 0.614000 0.144528
H3    H     H_    0.890656 0.546156 0.654516 0.121765
H4    H     H_    0.110491 0.446669 0.342407 0.120679
H5    H     H_    0.579831 0.823780 0.410989 0.138245
H6    H     H_    0.420750 0.176191 0.588985 0.138431
H7    H     H_    0.430401 0.397602 0.793693 0.125890
H8    H     H_    0.569888 0.602048 0.206264 0.126703
N1    N     N_R   0.514530 0.519260 0.788680 -0.196448
N2    N     N_R   0.485470 0.480740 0.211320 -0.196974
O1    O     O_R   0.504120 0.354440 0.581590 -0.574998
O2    O     O_R   0.495880 0.645560 0.418410 -0.577424
O3    O     O_R   0.494320 0.341440 0.386760 -0.597140
O4    O     O_R   0.505680 0.658560 0.613240 -0.597069
O5    O     O_R   0.391870 0.507230 0.608700 -0.585646
O6    O     O_R   0.608130 0.492770 0.391300 -0.590290
O7    O     O_R   0.382070 0.494240 0.413880 -0.609495
O8    O     O_R   0.617930 0.505760 0.586120 -0.605845
H9    H     H_    0.249334 0.460573 0.334190 0.145349
H10   H     H_    0.751520 0.538947 0.664605 0.145369
C37   C     C_3   0.614385 0.673998 0.806779 -0.376689
C38   C     C_3   0.585660 0.785454 0.842478 -0.849688
H11   H     H_    0.524252 0.788367 0.817117 0.262154
H12   H     H_    0.591809 0.812298 0.937483 0.240627
H13   H     H_    0.620088 0.840615 0.798921 0.242386
H14   H     H_    0.674289 0.672260 0.840268 0.159874
H15   H     H_    0.619645 0.658209 0.713036 0.252008
C39   C     C_3   0.383456 0.328336 0.193598 -0.378683
C40   C     C_3   0.407554 0.214987 0.154457 -0.853208
H16   H     H_    0.399565 0.189887 0.059503 0.240701
H17   H     H_    0.468743 0.207223 0.177567 0.262605
H18   H     H_    0.371595 0.161363 0.197978 0.242845
H19   H     H_    0.380392 0.342244 0.287515 0.254466
H20   H     H_    0.323370 0.334832 0.163117 0.160980
H21   H     H_    0.388876 0.342088 0.973617 0.139419
H22   H     H_    0.610366 0.659075 0.026424 0.139202
H23   H     H_    0.735426 0.470119 0.290556 0.152500
H24   H     H_    0.263646 0.517647 0.708346 0.153429
H25   H     H_    0.123070 0.507045 0.716374 0.122363
H26   H     H_    0.875961 0.475321 0.280872 0.121920
C41   C     C_3   0.375604 0.814321 0.672826 -0.435643
C42   C     C_3   0.305808 0.773114 0.596118 -0.802160
H27   H     H_    0.276828 0.839380 0.567527 0.249378
H28   H     H_    0.323599 0.717096 0.518641 0.247927
H29   H     H_    0.264144 0.732115 0.645554 0.244408
H30   H     H_    0.400373 0.749095 0.708436 0.227563
H31   H     H_    0.355854 0.870591 0.749001 0.195881
C43   C     C_3   0.623697 0.195451 0.330667 -0.364438
C44   C     C_3   0.689503 0.134106 0.268796 -0.872851
H32   H     H_    0.725356 0.101446 0.331532 0.255073
H33   H     H_    0.666497 0.069856 0.199774 0.248411
H34   H     H_    0.726818 0.187984 0.227570 0.248424
H35   H     H_    0.590923 0.228135 0.264876 0.217025
H36   H     H_    0.650105 0.262634 0.392957 0.198646
H37   H     H_    0.618572 0.981505 0.343498 0.145904
H38   H     H_    0.382885 0.018489 0.658744 0.131987

loop_
_geom_bond_atom_site_label_1
_geom_bond_atom_site_label_2
_ccdc_geom_bond_type
C21   O5    A    
C44   H32   S    
C27   C29   A    
C19   C20   A    
C17   N2    A    
C18   N1    A    
C22   O6    A    
C37   H14   S    
C38   H13   S    
C6    C8    A    
C14   H22   S    
C24   C26   A    
C43   H35   S    
C4    C7    A    
C41   H30   S    
C7    C43   S    
C28   H3    S    
C18   C20   A    
C38   H12   S    
C2    O2    A    
Cu1   O8    S    
C26   H10   S    
C39   H20   S    
Cu2   O7    S    
C35   C36   D    
C6    H38   S    
C8    C41   S    
C31   C33   A    
Cu1   N1    S    
Cu2   N2    S    
C34   H23   S    
Cu1   O5    S    
C39   C40   S    
C37   C38   S    
C25   H9    S    
C15   N2    A    
C42   H29   S    
C10   C12   A    
C16   N1    A    
C31   H25   S    
C40   H16   S    
C17   H8    S    
C5    C12   A    
C42   H28   S    
C3    C8    A    
C6    C11   A    
C5    C7    A    
Cu1   O4    S    
C43   C44   S    
C22   O8    A    
Cu2   O3    S    
C23   C33   A    
C15   C39   S    
C24   C34   A    
C38   H11   S    
C40   H17   S    
C16   C37   S    
C32   C34   A    
Cu1   Cu2   S    
Cu1   O1    S    
C33   H24   S    
C39   H19   S    
Cu2   O6    S    
C13   C15   A    
C1    O3    A    
C2    O4    A    
C13   H21   S    
C9    C11   A    
C14   C16   A    
C18   H7    S    
C41   H31   S    
C21   O7    A    
C9    H6    S    
C13   C20   A    
C10   H5    S    
C14   C19   A    
C36   H1    S    
C42   H27   S    
C5    H37   S    
C11   C12   A    
Cu2   O2    S    
C25   C27   A    
C29   C35   S    
C26   C28   A    
C30   C36   S    
C1    C4    S    
C40   H18   S    
C21   C23   S    
C2    C3    S    
C29   C31   A    
C3    C10   A    
C43   H36   S    
C37   H15   S    
C30   C32   A    
C27   H4    S    
C28   C30   A    
C17   C19   A    
C35   H2    S    
C22   C24   S    
C23   C25   A    
C32   H26   S    
C41   C42   S    
C44   H34   S    
C44   H33   S    
C4    C9    A    
C1    O1    A    
