data_mof_unit_1996.cif
_audit_creation_date              2012-12-10T19:07:38-0500
_audit_creation_method            fapswitch 2.2
_symmetry_space_group_name_H-M    P1
_symmetry_Int_Tables_number       1
_space_group_crystal_system       triclinic
_cell_length_a                    10.839542
_cell_length_b                    10.845848
_cell_length_c                    9.545877
_cell_angle_alpha                 90.901027
_cell_angle_beta                  89.972777
_cell_angle_gamma                 90.496476
_cell_volume                      1122.07076505

loop_
_atom_site_label
_atom_site_type_symbol
_atom_type_description
_atom_site_fract_x
_atom_site_fract_y
_atom_site_fract_z
_atom_type_partial_charge
C1    C     C_R   0.495808 0.262515 0.498937 0.794915
C2    C     C_R   0.935612 0.446028 0.612025 0.032376
C3    C     C_3   0.928582 0.481102 0.763469 -0.484656
C4    C     C_3   0.068715 0.473175 0.765664 0.292554
C5    C     C_R   0.460782 0.066819 0.620574 0.110518
C6    C     C_R   0.479751 0.129928 0.496428 -0.096069
C7    C     C_R   0.479091 0.062687 0.369507 -0.219075
C8    C     C_R   0.479903 0.934029 0.371079 -0.214428
C9    C     C_R   0.482226 0.871445 0.499457 -0.097139
C10   C     C_R   0.461945 0.939887 0.622515 0.123022
C11   C     C_3   0.526287 0.940721 0.760809 -0.492562
C12   C     C_R   0.262318 0.496565 0.499735 0.790390
C13   C     C_3   0.523980 0.080241 0.758407 -0.449022
C14   C     C_R   0.599766 0.543850 0.074739 0.264051
C15   C     C_R   0.408925 0.442469 0.073305 -0.077959
C16   C     C_R   0.409617 0.441862 0.924419 -0.082384
C17   C     C_R   0.599595 0.544230 0.927209 0.262777
C18   C     C_3   0.648711 0.672583 0.926086 -0.521690
C19   C     C_3   0.651921 0.670869 0.084481 -0.497984
C20   C     C_R   0.496797 0.738003 0.500624 0.799236
C21   C     C_R   0.737673 0.498560 0.499610 0.804388
C22   C     C_R   0.062581 0.441355 0.611333 -0.016683
C23   C     C_R   0.129154 0.484216 0.496295 -0.125448
C24   C     C_R   0.064653 0.508581 0.371908 -0.187180
C25   C     C_R   0.936039 0.509632 0.371732 -0.208646
C26   C     C_R   0.870661 0.487552 0.496251 -0.073426
Cu1   Cu    Cu3+1 0.499990 0.499980 0.640670 0.938992
Cu2   Cu    Cu3+1 0.500010 0.500020 0.359330 0.938588
H1    H     H_    0.112909 0.533826 0.277038 0.169354
H2    H     H_    0.621414 0.903594 0.753466 0.199249
H3    H     H_    0.462992 0.121552 0.839878 0.197580
H4    H     H_    0.617297 0.122990 0.750203 0.201923
H5    H     H_    0.334030 0.397549 0.127971 0.150623
H6    H     H_    0.337052 0.395398 0.867311 0.186560
H7    H     H_    0.741117 0.680891 0.877716 0.188846
H8    H     H_    0.578754 0.735590 0.885881 0.216181
H9    H     H_    0.747011 0.672351 0.127958 0.188689
H10   H     H_    0.587703 0.737880 0.133404 0.212556
H11   H     H_    0.888730 0.534771 0.276590 0.157141
H12   H     H_    0.895857 0.576750 0.779431 0.156291
H13   H     H_    0.880571 0.409952 0.826527 0.205952
H14   H     H_    0.114174 0.563885 0.786828 0.118628
H15   H     H_    0.485220 0.108678 0.269806 0.164887
H16   H     H_    0.485258 0.884706 0.272028 0.157581
H17   H     H_    0.466469 0.903177 0.844870 0.197247
N1    N     N_R   0.500790 0.500930 0.147930 -0.189882
N2    N     N_R   0.500790 0.500890 0.852020 -0.193327
O1    O     O_R   0.500000 0.319640 0.618810 -0.585693
O2    O     O_R   0.500010 0.319680 0.381230 -0.586321
O3    O     O_R   0.319650 0.499970 0.618810 -0.588244
O4    O     O_R   0.319660 0.500010 0.381230 -0.586815
O5    O     O_R   0.499990 0.680320 0.618770 -0.576187
O6    O     O_R   0.500000 0.680360 0.381190 -0.585988
O7    O     O_R   0.680340 0.499990 0.618770 -0.577248
O8    O     O_R   0.680350 0.500030 0.381190 -0.585610
O9    O     O_3   0.110367 0.381580 0.860140 -0.615415
C27   C     C_3   0.114971 0.260796 0.801994 0.073179
H18   H     H_    0.184753 0.256462 0.716461 0.144454
H19   H     H_    0.022830 0.231813 0.761190 0.151762
C28   C     C_3   0.153207 0.171465 0.915994 -0.344288
H20   H     H_    0.245696 0.198287 0.957007 0.202655
H21   H     H_    0.086079 0.176412 0.003889 0.229058
C29   C     C_3   0.158122 0.039096 0.859739 -0.936633
H22   H     H_    0.065306 0.008431 0.823392 0.255208
H23   H     H_    0.188943 0.977068 0.944071 0.257122
H24   H     H_    0.224249 0.032034 0.771196 0.261467

loop_
_geom_bond_atom_site_label_1
_geom_bond_atom_site_label_2
_ccdc_geom_bond_type
Cu1   O1    S    
C2    C22   A    
C12   O3    A    
C23   C24   A    
C29   H23   S    
C1    O1    A    
C6    C7    A    
C19   H10   S    
C7    H15   S    
C4    C22   S    
Cu2   O2    S    
C9    C20   S    
C5    C13   S    
C14   C17   A    
Cu1   O3    S    
C21   C26   S    
C17   C18   S    
C29   H24   S    
C5    C10   A    
C2    C26   A    
C25   H11   S    
Cu2   O6    S    
C11   C13   S    
C12   C23   S    
Cu2   N1    S    
C27   H18   S    
C5    C6    A    
C4    H14   S    
C28   H20   S    
C28   C29   S    
C4    O9    S    
C15   C16   A    
C16   N2    A    
Cu2   O8    S    
C13   H3    S    
C3    H12   S    
C2    C3    S    
C10   C11   S    
C22   C23   A    
C21   O7    A    
Cu2   O4    S    
C27   H19   S    
C11   H17   S    
O9    C27   S    
C29   H22   S    
C9    C10   A    
C17   N2    A    
Cu1   O7    S    
C12   O4    A    
C24   C25   A    
Cu1   O5    S    
C28   H21   S    
C18   C19   S    
C18   H7    S    
Cu1   N2    S    
Cu1   Cu2   S    
C21   O8    A    
C7    C8    A    
C20   O5    A    
C20   O6    A    
C27   C28   S    
C19   H9    S    
C15   N1    A    
C16   H6    S    
C25   C26   A    
C24   H1    S    
C13   H4    S    
C18   H8    S    
C14   C19   S    
C15   H5    S    
C3    H13   S    
C3    C4    S    
C1    C6    S    
C11   H2    S    
C8    C9    A    
C14   N1    A    
C8    H16   S    
C1    O2    A    
