data_mof_unit_4270.cif
_audit_creation_date              2013-03-05T15:50:49-0500
_audit_creation_method            fapswitch 2.2
_symmetry_space_group_name_H-M    P1
_symmetry_Int_Tables_number       1
_space_group_crystal_system       triclinic
_cell_length_a                    14.262624
_cell_length_b                    14.77114
_cell_length_c                    33.225746
_cell_angle_alpha                 97.68595
_cell_angle_beta                  90.494153
_cell_angle_gamma                 118.513946
_cell_volume                      6074.36389373

loop_
_atom_site_label
_atom_site_type_symbol
_atom_site_description
_atom_site_fract_x
_atom_site_fract_y
_atom_site_fract_z
_atom_type_partial_charge
O1    O     O_R   0.318160 0.824460 0.443680 -0.411555
O2    O     O_R   0.525040 0.857250 0.449830 -0.455268
C1    C     C_R   0.617795 0.909929 0.437077 0.590796
O3    O     O_R   0.684760 0.998800 0.456360 -0.413351
O4    O     O_R   0.647540 0.166310 0.470260 -0.471499
C2    C     C_R   0.594914 0.207079 0.456977 0.584901
O5    O     O_R   0.500960 0.181750 0.467450 -0.418405
O6    O     O_R   0.331100 0.981120 0.457080 -0.475558
C3    C     C_R   0.293116 0.891786 0.435011 0.599628
O7    O     O_R   0.315560 0.821140 0.532010 -0.435537
O8    O     O_R   0.522630 0.854180 0.531710 -0.471616
C4    C     C_R   0.615214 0.904021 0.551172 0.571368
O9    O     O_R   0.682160 0.995480 0.544690 -0.434469
O10   O     O_R   0.645130 0.163230 0.552140 -0.441285
C5    C     C_R   0.590175 0.200414 0.570932 0.597722
O11   O     O_R   0.498360 0.178430 0.555780 -0.400927
O12   O     O_R   0.328690 0.978040 0.538950 -0.429686
C6    C     C_R   0.288859 0.887120 0.548517 0.600946
Cr1   Cr    Cr6+3 0.424820 0.846020 0.489780 1.240396
Cr2   Cr    Cr6+3 0.657880 0.078580 0.505700 1.253731
Cr3   Cr    Cr6+3 0.417280 0.075360 0.504550 1.252952
O13   O     O_3   0.499990 0.999990 0.500010 -0.367477
C7    C     C_R   0.737551 0.449290 0.105811 -0.056932
C8    C     C_R   0.663775 0.454052 0.132878 0.330298
C9    C     C_R   0.669377 0.436911 0.172691 -0.071145
C10   C     C_R   0.748452 0.415533 0.186571 -0.034543
C11   C     C_R   0.819101 0.405676 0.159460 0.508098
C12   C     C_R   0.812608 0.420819 0.119084 0.422710
C13   C     C_R   0.739373 0.310478 0.241516 0.227434
C14   C     C_R   0.734846 0.300864 0.282881 0.411965
C15   C     C_R   0.742064 0.382221 0.312225 -0.024117
C16   C     C_R   0.763299 0.478615 0.300941 0.217638
C17   C     C_R   0.771194 0.489261 0.259574 0.389205
C18   C     C_R   0.755512 0.404937 0.229780 -0.023001
C19   C     C_R   0.606143 0.331229 0.363573 0.208087
C20   C     C_R   0.571331 0.289558 0.399427 0.376003
C21   C     C_R   0.748816 0.313281 0.417131 0.130659
C22   C     C_R   0.783006 0.351376 0.380374 0.211143
C23   C     C_R   0.710941 0.357619 0.353175 -0.022192
C24   C     C_R   0.639925 0.274687 0.425237 -0.049687
H1    H     H_    0.613271 0.442961 0.193219 0.234126
C25   C     C_R   0.229866 0.871179 0.396125 -0.097347
C26   C     C_R   0.164318 0.917817 0.391073 0.150753
C27   C     C_R   0.120559 0.909904 0.351711 0.379851
C28   C     C_R   0.139900 0.854836 0.318147 -0.054556
C29   C     C_R   0.200010 0.804865 0.323564 0.401368
C30   C     C_R   0.244824 0.812994 0.362073 0.391909
C31   C     C_R   0.041495 0.728785 0.177718 0.424468
C32   C     C_R   0.029359 0.708589 0.135432 0.399435
C33   C     C_R   0.032913 0.873710 0.133836 -0.169782
C34   C     C_R   0.046750 0.895947 0.176772 0.121094
C35   C     C_R   0.050938 0.821821 0.198634 -0.045120
C36   C     C_1   0.075738 0.841125 0.241983 0.200845
C37   C     C_1   0.101697 0.850321 0.277441 0.224103
C38   C     C_R   0.024666 0.780596 0.112857 -0.101944
H2    H     H_    0.028124 0.928986 0.116743 0.247435
C39   C     C_R   0.641240 0.878688 0.395506 -0.082606
C40   C     C_R   0.569952 0.781814 0.371283 0.138494
C41   C     C_R   0.576614 0.769193 0.328546 0.146782
C42   C     C_R   0.657178 0.850423 0.311022 -0.072810
C43   C     C_R   0.734541 0.939959 0.335615 0.449359
C44   C     C_R   0.727323 0.954242 0.377345 0.408729
C45   C     C_R   0.766394 0.920840 0.174193 0.399137
C46   C     C_R   0.784251 0.909355 0.132961 0.348817
C47   C     C_R   0.613142 0.750021 0.120260 0.385682
C48   C     C_R   0.596100 0.761759 0.161412 0.397871
C49   C     C_R   0.674716 0.844432 0.188647 -0.093276
C50   C     C_1   0.665468 0.845562 0.231593 0.216828
C51   C     C_1   0.660086 0.845793 0.267653 0.201956
C52   C     C_R   0.710678 0.820176 0.105997 -0.103694
C53   C     C_R   0.624074 0.252900 0.613930 -0.041718
C54   C     C_R   0.550512 0.267190 0.638390 0.383133
C55   C     C_R   0.568229 0.287248 0.680931 0.192479
C56   C     C_R   0.662948 0.297285 0.699374 -0.106637
C57   C     C_R   0.743371 0.296164 0.675092 0.182726
C58   C     C_R   0.723191 0.274143 0.632417 0.358478
C59   C     C_R   0.758838 0.324450 0.847371 0.427934
C60   C     C_R   0.763009 0.346560 0.890140 0.136773
C61   C     C_R   0.600729 0.361521 0.883008 0.368194
C62   C     C_R   0.597623 0.338832 0.840893 -0.083587
C63   C     C_R   0.679035 0.325509 0.823035 -0.054969
C64   C     C_1   0.680447 0.316097 0.779586 0.199388
C65   C     C_1   0.676141 0.309019 0.743079 0.189154
C66   C     C_R   0.687582 0.373359 0.908111 -0.048864
H3    H     H_    0.533758 0.336282 0.822038 0.244858
C67   C     C_R   0.059166 0.747179 0.906817 -0.072811
C68   C     C_R   0.100624 0.845463 0.894603 0.436308
C69   C     C_R   0.115209 0.854750 0.853746 0.486827
C70   C     C_R   0.086571 0.765736 0.824651 0.015621
C71   C     C_R   0.047337 0.666759 0.836785 0.163079
C72   C     C_R   0.036481 0.659129 0.878052 -0.166300
C73   C     C_R   0.175824 0.757736 0.760818 0.198256
C74   C     C_R   0.183374 0.766983 0.719497 0.418388
C75   C     C_R   0.118154 0.797292 0.699596 -0.008079
C76   C     C_R   0.043116 0.816279 0.720482 0.442853
C77   C     C_R   0.034390 0.806835 0.761483 0.475982
C78   C     C_R   0.100521 0.778123 0.781821 -0.048722
C79   C     C_R   0.189590 0.923852 0.650536 0.179466
C80   C     C_R   0.229377 0.944424 0.612599 0.331263
C81   C     C_R   0.161786 0.759072 0.589689 0.394731
C82   C     C_R   0.119993 0.737829 0.626997 0.467420
C83   C     C_R   0.138507 0.819850 0.658126 -0.038198
C84   C     C_R   0.222142 0.862907 0.583093 -0.070779
H4    H     H_    0.001942 0.582626 0.887174 0.207186
C85   C     C_R   0.661483 0.743016 0.911136 -0.053380
C86   C     C_R   0.579152 0.651182 0.888663 -0.155584
C87   C     C_R   0.548222 0.647554 0.847941 0.192819
C88   C     C_R   0.604101 0.737471 0.829156 0.001162
C89   C     C_R   0.681300 0.832278 0.852668 0.228528
C90   C     C_R   0.707272 0.834819 0.893613 0.415087
C91   C     C_R   0.550041 0.792548 0.769760 0.468971
C92   C     C_R   0.557253 0.807194 0.729235 0.474680
C93   C     C_R   0.604955 0.762078 0.702767 0.006809
C94   C     C_R   0.638973 0.694825 0.716335 0.212872
C95   C     C_R   0.631098 0.679756 0.757575 0.200192
C96   C     C_R   0.590468 0.732530 0.784578 -0.031458
C97   C     C_R   0.558501 0.720786 0.627672 0.400930
C98   C     C_R   0.566253 0.753277 0.589423 0.164146
C99   C     C_R   0.710809 0.925566 0.619177 0.148323
C100  C     C_R   0.701325 0.891297 0.657055 0.417532
C101  C     C_R   0.622376 0.791023 0.661664 0.028746
C102  C     C_R   0.636264 0.859417 0.585753 -0.119699
H5    H     H_    0.541430 0.580966 0.902412 0.231951
O14   O     O_R   0.828710 0.851830 0.052170 -0.441128
O15   O     O_R   0.005980 0.823990 0.047210 -0.480022
C103  C     C_R   0.001891 0.753201 0.068000 0.557688
O16   O     O_R   0.031900 0.688850 0.050170 -0.381553
O17   O     O_R   0.830940 0.518420 0.048680 -0.444577
C104  C     C_R   0.744030 0.486680 0.066320 0.584599
O18   O     O_R   0.668160 0.499860 0.053480 -0.411084
O19   O     O_R   0.689170 0.693840 0.050110 -0.440486
C105  C     C_R   0.742134 0.789323 0.066282 0.578138
O20   O     O_R   0.803860 0.812940 0.962540 -0.406901
O21   O     O_R   0.982950 0.787950 0.964120 -0.434063
C106  C     C_R   0.020858 0.731388 0.947258 0.586527
O22   O     O_R   0.007050 0.649970 0.960540 -0.492218
O23   O     O_R   0.807910 0.482370 0.965590 -0.484059
C107  C     C_R   0.711739 0.436131 0.949451 0.583841
O24   O     O_R   0.643310 0.460980 0.963840 -0.418899
O25   O     O_R   0.666140 0.657800 0.967020 -0.502756
C108  C     C_R   0.710547 0.739542 0.949952 0.571274
Cr4   Cr    Cr6+3 0.903360 0.812540 0.006510 1.210338
Cr5   Cr    Cr6+3 0.914630 0.587050 0.006280 1.213274
Cr6   Cr    Cr6+3 0.673560 0.582680 0.008540 1.204521
O26   O     O_3   0.830520 0.660760 0.007110 -0.377443
F1    F     F_    0.589290 0.480480 0.121801 -0.503602
F2    F     F_    0.467406 0.255835 0.407156 -0.509544
F3    F     F_    0.895973 0.384373 0.172386 -0.441619
N1    N     N_R   0.825393 0.317741 0.446824 0.122695
O27   O     O_R   0.885569 0.275548 0.437087 -0.124281
O28   O     O_R   0.833333 0.362319 0.484164 -0.219361
F4    F     F_    0.022535 0.618012 0.116709 -0.487848
F5    F     F_    0.046403 0.657630 0.198477 -0.480531
F6    F     F_    0.218552 0.750848 0.291091 -0.473432
F7    F     F_    0.308486 0.768965 0.365489 -0.510332
N2    N     N_R   0.140217 0.971100 0.425477 0.142206
O29   O     O_R   0.132016 0.053893 0.422192 -0.107440
O30   O     O_R   0.116343 0.931507 0.459058 -0.260562
N3    N     N_R   0.057369 0.993352 0.197164 0.141423
O31   O     O_R   0.083459 0.071158 0.177295 -0.136898
O32   O     O_R   0.035316 0.003589 0.234875 -0.174556
F8    F     F_    0.881279 0.410024 0.093339 -0.455200
F9    F     F_    0.058294 0.954523 0.346120 -0.479293
F10   F     F_    0.876431 0.981819 0.120210 -0.505213
F11   F     F_    0.841205 0.003468 0.200398 -0.443492
F12   F     F_    0.814695 0.016760 0.318814 -0.439370
F13   F     F_    0.802167 0.045608 0.399406 -0.468865
N4    N     N_R   0.496187 0.695547 0.390202 0.140335
O33   O     O_R   0.529064 0.673264 0.422237 -0.213663
O34   O     O_R   0.398426 0.635064 0.374388 -0.109851
F14   F     F_    0.505498 0.688994 0.175066 -0.463447
F15   F     F_    0.536610 0.666285 0.094960 -0.472488
N5    N     N_R   0.502446 0.674465 0.302978 0.142431
O35   O     O_R   0.536814 0.615614 0.283072 -0.192257
O36   O     O_R   0.406604 0.658439 0.293253 -0.107325
N6    N     N_R   0.843578 0.342164 0.914856 0.130790
O37   O     O_R   0.938787 0.370962 0.902657 -0.161986
O38   O     O_R   0.819120 0.300593 0.947993 -0.218918
N7    N     N_R   0.890998 0.383711 0.370502 0.137824
O39   O     O_R   0.954281 0.480571 0.366851 -0.213504
O40   O     O_R   0.919762 0.313876 0.358294 -0.101033
F16   F     F_    0.832291 0.302300 0.829444 -0.461532
N8    N     N_R   0.844493 0.314930 0.693185 0.161175
O41   O     O_R   0.849125 0.276221 0.725640 -0.161563
O42   O     O_R   0.932209 0.366080 0.675857 -0.082175
F17   F     F_    0.798217 0.267620 0.609128 -0.484680
F18   F     F_    0.456951 0.253715 0.621305 -0.452515
F19   F     F_    0.522703 0.379888 0.898658 -0.530865
N9    N     N_R   0.487553 0.293835 0.705003 0.159079
O43   O     O_R   0.438682 0.343002 0.694112 -0.085632
O44   O     O_R   0.455203 0.242515 0.735486 -0.245485
F20   F     F_    0.124460 0.931866 0.922030 -0.497113
F21   F     F_    0.067778 0.637419 0.633880 -0.464317
F22   F     F_    0.712205 0.207960 0.294293 -0.527945
F23   F     F_    0.259183 0.753348 0.699195 -0.495268
N10   N     N_R   0.245896 0.730075 0.781165 0.159148
O45   O     O_R   0.287960 0.774683 0.818095 -0.239776
O46   O     O_R   0.273020 0.664426 0.761979 -0.121566
F24   F     F_    0.155697 0.950473 0.842302 -0.469383
F25   F     F_    0.980983 0.846942 0.701395 -0.480650
F26   F     F_    0.961769 0.826211 0.781562 -0.474878
N11   N     N_R   0.209597 0.009678 0.681899 0.162918
O47   O     O_R   0.197266 0.086871 0.673206 -0.073515
O48   O     O_R   0.252209 0.017270 0.717823 -0.239462
F27   F     F_    0.285330 0.045252 0.606499 -0.491050
N12   N     N_R   0.014507 0.573398 0.807731 0.111268
O49   O     O_R   0.963196 0.559954 0.772978 -0.273006
O50   O     O_R   0.025473 0.496556 0.817742 -0.147649
F28   F     F_    0.148066 0.678333 0.560892 -0.473275
N13   N     N_R   0.720026 0.221761 0.211837 0.154285
O51   O     O_R   0.759865 0.161869 0.218869 -0.100356
O52   O     O_R   0.653534 0.193982 0.179826 -0.285940
F29   F     F_    0.783952 0.925932 0.915281 -0.495596
F30   F     F_    0.769084 0.955842 0.689743 -0.469911
F31   F     F_    0.521698 0.869493 0.716035 -0.507665
F32   F     F_    0.509802 0.842515 0.795377 -0.493333
N14   N     N_R   0.462500 0.552032 0.825974 0.134925
O53   O     O_R   0.435320 0.463421 0.838309 -0.197978
O54   O     O_R   0.404063 0.553803 0.796112 -0.189558
N15   N     N_R   0.687846 0.648027 0.689356 0.149131
O55   O     O_R   0.760740 0.703308 0.666514 -0.218600
O56   O     O_R   0.658985 0.549520 0.687132 -0.216437
N16   N     N_R   0.673209 0.618913 0.772813 0.119193
O57   O     O_R   0.758243 0.664053 0.798296 -0.270784
O58   O     O_R   0.617617 0.517646 0.766280 -0.256416
F33   F     F_    0.487713 0.621178 0.632022 -0.483496
N17   N     N_R   0.503245 0.678229 0.554507 0.139619
O59   O     O_R   0.406073 0.605801 0.557671 -0.118667
O60   O     O_R   0.545870 0.677198 0.520087 -0.228934
N18   N     N_R   0.739217 0.925168 0.834661 0.147871
O61   O     O_R   0.752879 0.014360 0.853348 -0.114777
O62   O     O_R   0.789160 0.923252 0.802230 -0.183563
N19   N     N_R   0.795744 0.027334 0.615277 0.153953
O63   O     O_R   0.861915 0.037323 0.587334 -0.179463
O64   O     O_R   0.819245 0.106044 0.643832 -0.134347
N20   N     N_R   0.773104 0.563899 0.330741 0.132578
O65   O     O_R   0.811464 0.576856 0.367991 -0.263813
O66   O     O_R   0.747248 0.631619 0.320497 -0.188736
F34   F     F_    0.793024 0.581713 0.247932 -0.564074
N21   N     N_R   0.532410 0.341284 0.337070 0.132912
O67   O     O_R   0.471023 0.377578 0.352297 -0.112216
O68   O     O_R   0.519018 0.305591 0.298285 -0.284694

loop_
_geom_bond_atom_site_label_1
_geom_bond_atom_site_label_2
_geom_bond_distance
_ccdc_geom_bond_type
C80   C84   1.409078 A    
C85   C90   1.405881 A    
C82   C83   1.400711 A    
C55   C56   1.411635 A    
C76   C77   1.388520 A    
C81   C82   1.388710 A    
C39   C44   1.414825 A    
C72   H4    1.083606 S    
C46   F10   1.356858 S    
C57   N8    1.441229 S    
O17   C104  1.277122 A    
N15   O56   1.300379 A    
C94   C95   1.414236 A    
C39   C40   1.420529 A    
C12   F8    1.357744 S    
C106  O22   1.263804 A    
C54   F18   1.358563 S    
O4    Cr2   1.917082 S    
C14   F22   1.359929 S    
C36   C37   1.202146 T    
C27   C28   1.399382 A    
C94   N15   1.439549 S    
O14   C105  1.278420 A    
C3    C25   1.479282 S    
C62   H3    1.083823 S    
N11   O48   1.301247 A    
C80   F27   1.358244 S    
C69   F24   1.358426 S    
C95   N16   1.434104 S    
N2    O29   1.301252 A    
C21   C22   1.406436 A    
C91   C92   1.389065 A    
C104  O18   1.267381 A    
O22   Cr5   2.038048 S    
C67   C72   1.403600 A    
N1    O28   1.301345 A    
C85   C108  1.480563 S    
C14   C15   1.404306 A    
C62   C63   1.392070 A    
N12   O50   1.301147 A    
C41   N5    1.432453 S    
C86   C87   1.405636 A    
C100  F30   1.359330 S    
C95   C96   1.414787 A    
C81   F28   1.358235 S    
N10   O45   1.301290 A    
C88   C89   1.415667 A    
C7    C104  1.477291 S    
C61   F19   1.357553 S    
C43   F12   1.359292 S    
C98   C102  1.424271 A    
C92   F31   1.358644 S    
C34   N3    1.442743 S    
N9    O44   1.301093 A    
N17   O59   1.301308 A    
C97   C101  1.395825 A    
C92   C93   1.402441 A    
C87   N14   1.442388 S    
N1    O27   1.300488 A    
N2    O30   1.301473 A    
C10   C18   1.472543 S    
N16   O57   1.300607 A    
C15   C23   1.472723 S    
C76   F25   1.357576 S    
C86   H5    1.082636 S    
C7    C8    1.411032 A    
N3    O32   1.301262 A    
C91   C96   1.400256 A    
C27   F9    1.358767 S    
C46   C52   1.409740 A    
O18   Cr6   2.032899 S    
N19   O63   1.301254 A    
C56   C65   1.439086 S    
C43   C44   1.386551 A    
O9    Cr2   2.031828 S    
C25   C30   1.408322 A    
C69   C70   1.403774 A    
N4    O34   1.300340 A    
C44   F13   1.358165 S    
O23   Cr5   1.921914 S    
O23   C107  1.276850 A    
C66   C107  1.487020 S    
C41   C42   1.407524 A    
C45   C46   1.398415 A    
C71   N12   1.439634 S    
Cr3   O13   1.966172 S    
C60   N6    1.438176 S    
C61   C66   1.413194 A    
Cr4   O26   1.973488 S    
O14   Cr4   2.038204 S    
C74   F23   1.359698 S    
C52   C105  1.481461 S    
N15   O55   1.300973 A    
C82   F21   1.358620 S    
C73   C78   1.413040 A    
C63   C64   1.432926 S    
N5    O36   1.300759 A    
C22   C23   1.406562 A    
C29   F6    1.358975 S    
C45   C49   1.400362 A    
C97   F33   1.358748 S    
O1    Cr1   2.031881 S    
C56   C57   1.413292 A    
C47   F15   1.358313 S    
C34   C35   1.415805 A    
O10   Cr2   1.919177 S    
C48   F14   1.358450 S    
C20   C24   1.407794 A    
C90   F29   1.359292 S    
C17   C18   1.407765 A    
O25   C108  1.280564 A    
N10   O46   1.301312 A    
N20   O65   1.301045 A    
N11   O47   1.301201 A    
C9    H1    1.083940 S    
C67   C68   1.401468 A    
O6    C3    1.274452 A    
C58   F17   1.358642 S    
C77   F26   1.357818 S    
C33   C34   1.410649 A    
C9    C10   1.397996 A    
C59   C60   1.409027 A    
C91   F32   1.357700 S    
C81   C84   1.405027 A    
O12   Cr3   1.923438 S    
C1    O3    1.270194 A    
C49   C50   1.432731 S    
C70   C78   1.462160 S    
C42   C43   1.391559 A    
C19   C20   1.399684 A    
C19   C23   1.412115 A    
C57   C58   1.406869 A    
N8    O41   1.301500 A    
C79   N11   1.438969 S    
C13   C14   1.399379 A    
C17   F34   1.359755 S    
C79   C83   1.411601 A    
O21   Cr4   1.920578 S    
C99   N19   1.435330 S    
O24   Cr6   2.039062 S    
C20   F2    1.359037 S    
N3    O31   1.301552 A    
O10   C5    1.278137 A    
C38   C103  1.481687 S    
C59   C63   1.397874 A    
O7    Cr1   2.039874 S    
C87   C88   1.417201 A    
O8    Cr1   1.913774 S    
C77   C78   1.404888 A    
Cr1   O13   1.973933 S    
N21   O68   1.301132 A    
O12   C6    1.271328 A    
O20   Cr4   2.030482 S    
O1    C3    1.270258 A    
C74   C75   1.403271 A    
O16   Cr5   2.038467 S    
C7    C12   1.410187 A    
C8    C9    1.388312 A    
N18   O62   1.301390 A    
N19   O64   1.300621 A    
O21   C106  1.271037 A    
C1    C39   1.489067 S    
N6    O37   1.301283 A    
N17   O60   1.301506 A    
C31   F5    1.359647 S    
C13   N13   1.438844 S    
C28   C37   1.434922 S    
C64   C65   1.201957 T    
N13   O52   1.301274 A    
C26   C27   1.410326 A    
C10   C11   1.403068 A    
O15   C103  1.307512 A    
C98   N17   1.438480 S    
C2    C24   1.484195 S    
C28   C29   1.396166 A    
O15   Cr4   1.915161 S    
N14   O54   1.301272 A    
C25   C26   1.421218 A    
Cr2   O13   1.972964 S    
O19   C105  1.273450 A    
C53   C58   1.408613 A    
C40   N4    1.439263 S    
C35   C36   1.437341 S    
C93   C94   1.414796 A    
C16   N20   1.443140 S    
C99   C102  1.419826 A    
N9    O43   1.301339 A    
Cr5   O26   1.965929 S    
C26   N2    1.438303 S    
N4    O33   1.301374 A    
C22   N7    1.433997 S    
C32   F4    1.355924 S    
C59   F16   1.358397 S    
O2    Cr1   1.922981 S    
N12   O49   1.301419 A    
C50   C51   1.200910 T    
C15   C16   1.411640 A    
C19   N21   1.439277 S    
O25   Cr6   1.914309 S    
C21   N1    1.437309 S    
C54   C55   1.399950 A    
C73   N10   1.440442 S    
O6    Cr3   1.918830 S    
C99   C100  1.402282 A    
N16   O58   1.300425 A    
O11   Cr3   2.035797 S    
C2    O5    1.273173 A    
N7    O39   1.300679 A    
C21   C24   1.418643 A    
C93   C101  1.473164 S    
C5    C53   1.486518 S    
C85   C86   1.403447 A    
O20   C108  1.270085 A    
C33   C38   1.406812 A    
Cr6   O26   1.973690 S    
C16   C17   1.403579 A    
C88   C96   1.479686 S    
N8    O42   1.301451 A    
O2    C1    1.284604 A    
C40   C41   1.417210 A    
C11   F3    1.357564 S    
N18   O61   1.301226 A    
C47   C48   1.393271 A    
C32   C38   1.406723 A    
C97   C98   1.404447 A    
O5    Cr3   2.041166 S    
C89   N18   1.438386 S    
C71   C72   1.394630 A    
O4    C2    1.271904 A    
C30   F7    1.357236 S    
C42   C51   1.435294 S    
O7    C6    1.269119 A    
C103  O16   1.296092 A    
C31   C32   1.388276 A    
C5    O11   1.269897 A    
C13   C18   1.411464 A    
N14   O53   1.301227 A    
N6    O38   1.301488 A    
C73   C74   1.397785 A    
N20   O66   1.301364 A    
C48   C49   1.395352 A    
C6    C84   1.468661 S    
N13   O51   1.301171 A    
C75   C76   1.397476 A    
O17   Cr5   1.921670 S    
C33   H2    1.081860 S    
C29   C30   1.389796 A    
C107  O24   1.272381 A    
C45   F11   1.357406 S    
N5    O35   1.300782 A    
C61   C62   1.389842 A    
O3    Cr2   2.036819 S    
C60   C66   1.423028 A    
C67   C106  1.460556 S    
C31   C35   1.398527 A    
C4    C102  1.493244 S    
C4    O9    1.277886 A    
C75   C83   1.459841 S    
C68   C69   1.390080 A    
C79   C80   1.397610 A    
C11   C12   1.398657 A    
N21   O67   1.301233 A    
C100  C101  1.398752 A    
C8    F1    1.357958 S    
C53   C54   1.409275 A    
C70   C71   1.411960 A    
C89   C90   1.397761 A    
C55   N9    1.440522 S    
O19   Cr6   1.921549 S    
C47   C52   1.414228 A    
O8    C4    1.278131 A    
C68   F20   1.358022 S    
N7    O40   1.300725 A    
