data_mof_unit_4122.cif
_audit_creation_date              2013-03-05T15:56:52-0500
_audit_creation_method            fapswitch 2.2
_symmetry_space_group_name_H-M    P1
_symmetry_Int_Tables_number       1
_space_group_crystal_system       triclinic
_cell_length_a                    21.299757
_cell_length_b                    21.365477
_cell_length_c                    13.696397
_cell_angle_alpha                 89.780654
_cell_angle_beta                  89.821886
_cell_angle_gamma                 90.176687
_cell_volume                      6232.84340636

loop_
_atom_site_label
_atom_site_type_symbol
_atom_site_description
_atom_site_fract_x
_atom_site_fract_y
_atom_site_fract_z
_atom_type_partial_charge
O1    O     O_R   0.064880 0.435140 0.582280 -0.604139
O2    O     O_R   0.935120 0.564860 0.417720 -0.562022
O3    O     O_R   0.935120 0.564860 0.582280 -0.597660
O4    O     O_R   0.064880 0.435140 0.417720 -0.555535
O5    O     O_R   0.935120 0.435140 0.417720 -0.580997
O6    O     O_R   0.064880 0.564860 0.582280 -0.585173
O7    O     O_R   0.064880 0.564860 0.417720 -0.577997
O8    O     O_R   0.935120 0.435140 0.582280 -0.595121
O9    O     O_R   0.564880 0.935140 0.582280 -0.559999
O10   O     O_R   0.435120 0.064860 0.417720 -0.605664
O11   O     O_R   0.435120 0.064860 0.582280 -0.554764
O12   O     O_R   0.564880 0.935140 0.417720 -0.599078
O13   O     O_R   0.435120 0.935140 0.417720 -0.582901
O14   O     O_R   0.564880 0.064860 0.582280 -0.583109
O15   O     O_R   0.564880 0.064860 0.417720 -0.579320
O16   O     O_R   0.435120 0.935140 0.582280 -0.594593
C1    C     C_R   0.084704 0.413325 0.499814 0.839979
C2    C     C_R   0.915262 0.586670 0.499663 0.831028
C3    C     C_R   0.915409 0.413335 0.500321 0.814271
C4    C     C_R   0.083875 0.587258 0.499757 0.803850
C5    C     C_R   0.584692 0.913299 0.500334 0.838911
C6    C     C_R   0.415292 0.086670 0.500188 0.831735
C7    C     C_R   0.415404 0.913341 0.500331 0.811240
C8    C     C_R   0.583848 0.087273 0.499767 0.807376
Cu1   Cu    Cu3+1 1.000000 0.500000 0.597420 0.931890
Cu2   Cu    Cu3+1 1.000000 0.500000 0.402580 0.964551
Cu3   Cu    Cu3+1 0.500000 0.000000 0.597420 0.952894
Cu4   Cu    Cu3+1 0.500000 1.000000 0.402580 0.941315
C9    C     C_R   0.124204 0.690777 0.437520 0.109869
C10   C     C_R   0.872326 0.312206 0.565048 0.086363
C11   C     C_R   0.860802 0.675799 0.416207 0.091624
C12   C     C_R   0.136317 0.321630 0.419953 0.096227
C13   C     C_R   0.623921 0.191006 0.438114 0.109701
C14   C     C_R   0.372137 0.812395 0.565471 0.083095
C15   C     C_R   0.363683 0.178361 0.580071 0.091910
C16   C     C_R   0.638955 0.824033 0.583685 0.094980
C17   C     C_R   0.129935 0.637691 0.499393 -0.094970
C18   C     C_R   0.868114 0.364016 0.500867 -0.103487
C19   C     C_R   0.868029 0.636249 0.498417 -0.073133
C20   C     C_R   0.131835 0.363691 0.498988 -0.073166
C21   C     C_R   0.629893 0.137701 0.499444 -0.094217
C22   C     C_R   0.368099 0.864036 0.500920 -0.104810
C23   C     C_R   0.368173 0.136312 0.501018 -0.073903
C24   C     C_R   0.631850 0.863669 0.501557 -0.074634
C25   C     C_R   0.181162 0.631520 0.562141 -0.277136
C26   C     C_R   0.818261 0.369083 0.435261 -0.274335
C27   C     C_R   0.829296 0.643158 0.580227 -0.301649
C28   C     C_R   0.173122 0.359234 0.577826 -0.305551
C29   C     C_R   0.681337 0.131314 0.561707 -0.278098
C30   C     C_R   0.318425 0.868930 0.434963 -0.275111
C31   C     C_R   0.326901 0.140786 0.422167 -0.305510
C32   C     C_R   0.670609 0.856782 0.419786 -0.302148
C33   C     C_R   0.228555 0.676280 0.562825 0.112958
C34   C     C_R   0.770851 0.324219 0.434323 0.113026
C35   C     C_R   0.782343 0.688128 0.581227 0.110034
C36   C     C_R   0.220143 0.314272 0.578576 0.112594
C37   C     C_R   0.728738 0.176069 0.562373 0.112298
C38   C     C_R   0.271051 0.824038 0.433966 0.113359
C39   C     C_R   0.279882 0.185748 0.421420 0.111416
C40   C     C_R   0.717505 0.811767 0.418759 0.110701
C41   C     C_R   0.225412 0.727776 0.498483 0.027588
C42   C     C_R   0.773831 0.272722 0.498753 0.022780
C43   C     C_R   0.773853 0.727326 0.499340 0.045819
C44   C     C_R   0.226022 0.272599 0.499533 0.046159
C45   C     C_R   0.725383 0.227776 0.498481 0.027852
C46   C     C_R   0.273834 0.772740 0.498811 0.023083
C47   C     C_R   0.274001 0.227417 0.500468 0.046144
C48   C     C_R   0.725965 0.772547 0.500630 0.045552
C49   C     C_R   0.173711 0.734755 0.434611 0.096082
C50   C     C_R   0.824997 0.266249 0.563728 0.117013
C51   C     C_R   0.813136 0.721437 0.416330 0.064604
C52   C     C_R   0.184016 0.275967 0.419749 0.063004
C53   C     C_R   0.673438 0.234989 0.435138 0.094859
C54   C     C_R   0.324792 0.766467 0.564215 0.118207
C55   C     C_R   0.315999 0.224039 0.580262 0.062604
C56   C     C_R   0.686645 0.778410 0.583608 0.064784
C57   C     C_R   0.279385 0.669823 0.626484 -0.222342
C58   C     C_R   0.720245 0.330478 0.370285 -0.212361
C59   C     C_R   0.743452 0.694012 0.663030 -0.192886
C60   C     C_R   0.261701 0.310850 0.657193 -0.192731
C61   C     C_R   0.779781 0.169399 0.625566 -0.222348
C62   C     C_R   0.220688 0.830061 0.369421 -0.212436
C63   C     C_R   0.238323 0.189167 0.342806 -0.192609
C64   C     C_R   0.756371 0.805868 0.336940 -0.192639
C65   C     C_R   0.827399 0.214099 0.626524 -0.181746
C66   C     C_R   0.172453 0.786014 0.369742 -0.195302
C67   C     C_R   0.190846 0.233684 0.341867 -0.221829
C68   C     C_R   0.803708 0.761259 0.335583 -0.223966
C69   C     C_R   0.327000 0.714521 0.627443 -0.182713
C70   C     C_R   0.671963 0.286471 0.370719 -0.196075
C71   C     C_R   0.696065 0.738581 0.664346 -0.222381
C72   C     C_R   0.309169 0.266323 0.658142 -0.223766
H1    H     H_    0.184452 0.591001 0.609909 0.153492
H2    H     H_    0.815778 0.408988 0.386151 0.154383
H3    H     H_    0.835018 0.612592 0.643004 0.166155
H4    H     H_    0.169346 0.391758 0.638208 0.162593
H5    H     H_    0.684782 0.090633 0.609106 0.154763
H6    H     H_    0.316072 0.908697 0.385562 0.152982
H7    H     H_    0.330681 0.108268 0.361779 0.162786
H8    H     H_    0.664945 0.887394 0.357049 0.165943
H9    H     H_    0.282193 0.630234 0.675991 0.146260
H10   H     H_    0.717769 0.369754 0.320129 0.145739
H11   H     H_    0.749644 0.663989 0.726236 0.142478
H12   H     H_    0.257543 0.342784 0.718175 0.142089
H13   H     H_    0.782750 0.129646 0.674727 0.147602
H14   H     H_    0.218377 0.869172 0.318928 0.145518
H15   H     H_    0.242481 0.157235 0.281823 0.143205
H16   H     H_    0.750191 0.835902 0.273743 0.142572
H17   H     H_    0.865910 0.207596 0.676936 0.179306
H18   H     H_    0.134446 0.792367 0.318416 0.169140
H19   H     H_    0.159878 0.234536 0.279460 0.143653
H20   H     H_    0.832514 0.758425 0.270605 0.143412
H21   H     H_    0.365349 0.708183 0.678204 0.177694
H22   H     H_    0.633750 0.293020 0.319823 0.169787
H23   H     H_    0.667229 0.741399 0.729295 0.143096
H24   H     H_    0.340132 0.265463 0.720556 0.143329
C73   C     C_R   0.055506 0.496680 0.792777 0.046055
C74   C     C_R   0.944501 0.503443 0.207224 0.055430
C75   C     C_R   0.944488 0.503265 0.793275 0.036480
C76   C     C_R   0.055499 0.496599 0.206721 0.062882
C77   C     C_R   0.555465 0.996654 0.792799 0.061751
C78   C     C_R   0.444477 0.003206 0.207262 0.044643
C79   C     C_R   0.444451 0.003244 0.793122 0.017772
C80   C     C_R   0.555500 0.996775 0.206687 0.056058
N1    N     N_R   1.000000 0.500000 0.743810 -0.209783
N2    N     N_R   1.000000 0.500000 0.256190 -0.208703
N3    N     N_R   0.500000 0.000000 0.743810 -0.195293
N4    N     N_R   0.500000 0.000000 0.256190 -0.207537
C81   C     C_R   0.942836 0.503531 0.896561 -0.004704
C82   C     C_R   0.057154 0.496398 0.103436 -0.009918
C83   C     C_R   0.057155 0.496429 0.896044 -0.004419
C84   C     C_R   0.942845 0.503636 0.103956 -0.008683
C85   C     C_R   0.442635 0.003440 0.896476 -0.060524
C86   C     C_R   0.557121 0.996504 0.103395 -0.005903
C87   C     C_R   0.557066 0.996434 0.896021 -0.008673
C88   C     C_R   0.442826 0.003412 0.104028 -0.028245
C89   C     C_R   0.999996 0.499983 0.948230 -0.022313
C90   C     C_R   0.999998 0.500004 0.051770 -0.023871
C91   C     C_R   0.499874 0.999939 0.948160 0.000259
C92   C     C_R   0.499943 0.999953 0.051749 -0.023103
C93   C     C_R   0.885631 0.507300 0.948651 0.105439
C94   C     C_R   0.114362 0.492683 0.051340 0.104486
C95   C     C_R   0.114365 0.492724 0.947608 0.106063
C96   C     C_R   0.885638 0.507363 0.052385 0.103861
C97   C     C_R   0.385385 0.007051 0.949272 0.105728
C98   C     C_R   0.614317 0.992850 0.051294 0.105777
C99   C     C_R   0.614289 0.992814 0.947578 0.099332
C100  C     C_R   0.385655 0.006995 0.052519 0.156933
H25   H     H_    0.098483 0.494230 0.750678 0.159698
H26   H     H_    0.901534 0.506009 0.249322 0.164127
H27   H     H_    0.901515 0.505690 0.751561 0.164066
H28   H     H_    0.098465 0.494055 0.248430 0.168879
H29   H     H_    0.598448 0.994181 0.750724 0.162301
H30   H     H_    0.401488 0.005599 0.249345 0.156919
H31   H     H_    0.401740 0.005662 0.750933 0.135080
H32   H     H_    0.598487 0.994394 0.248375 0.163268
N5    N     N_3   0.068294 0.702352 0.380816 -0.587490
H33   H     H_    0.049910 0.745231 0.403606 0.199248
H34   H     H_    0.032580 0.670489 0.396549 0.242195
N6    N     N_3   0.924961 0.304753 0.629420 -0.608183
H35   H     H_    0.923802 0.340020 0.681998 0.247783
H36   H     H_    0.966502 0.308507 0.588883 0.223859
N7    N     N_3   0.902745 0.669889 0.334392 -0.578956
H37   H     H_    0.925998 0.712503 0.323329 0.212306
H38   H     H_    0.876638 0.658781 0.272272 0.223092
N8    N     N_3   0.091403 0.325001 0.342045 -0.572475
H39   H     H_    0.067750 0.282177 0.337320 0.213570
H40   H     H_    0.115171 0.333888 0.276519 0.220415
N9    N     N_3   0.567762 0.202811 0.382090 -0.585065
H41   H     H_    0.549425 0.245535 0.405683 0.202830
H42   H     H_    0.532108 0.170782 0.397501 0.231862
N10   N     N_3   0.424719 0.804975 0.629939 -0.611982
H43   H     H_    0.423661 0.840360 0.682325 0.249159
H44   H     H_    0.466221 0.808546 0.589310 0.229764
N11   N     N_3   0.408566 0.174952 0.658018 -0.573327
H45   H     H_    0.384769 0.166054 0.723517 0.215492
H46   H     H_    0.432238 0.217763 0.662789 0.212817
N12   N     N_3   0.596840 0.829832 0.665318 -0.580115
H47   H     H_    0.622817 0.840911 0.727582 0.221050
H48   H     H_    0.573612 0.787187 0.676201 0.214019
N13   N     N_3   0.827690 0.511171 0.895731 -0.631006
H49   H     H_    0.799230 0.473246 0.915545 0.223426
H50   H     H_    0.804921 0.552647 0.914762 0.216939
N14   N     N_3   0.172305 0.488818 0.104248 -0.622323
H51   H     H_    0.195121 0.447396 0.085074 0.219321
H52   H     H_    0.200716 0.526801 0.084542 0.225674
N15   N     N_3   0.172309 0.488952 0.894153 -0.636094
H53   H     H_    0.195209 0.447569 0.913565 0.217207
H54   H     H_    0.200659 0.526991 0.913085 0.221619
N16   N     N_3   0.827703 0.511257 0.105831 -0.630833
H55   H     H_    0.799300 0.473244 0.086970 0.220961
H56   H     H_    0.804869 0.552656 0.086321 0.219587
N17   N     N_3   0.326185 0.010908 0.899907 -0.611680
H57   H     H_    0.326310 0.050849 0.855559 0.215125
H58   H     H_    0.320831 0.971293 0.856108 0.217082
N18   N     N_3   0.672277 0.989096 0.104187 -0.628417
H59   H     H_    0.695147 0.947686 0.085103 0.215916
H60   H     H_    0.700639 0.027102 0.084414 0.225983
N19   N     N_3   0.672233 0.989072 0.894120 -0.630445
H61   H     H_    0.695174 0.947725 0.913598 0.219414
H62   H     H_    0.700544 0.027154 0.912990 0.222093
N20   N     N_3   0.327530 0.010669 0.105427 -0.625902
H63   H     H_    0.299370 0.972721 0.085248 0.240418
H64   H     H_    0.304694 0.051897 0.084876 0.237204

loop_
_geom_bond_atom_site_label_1
_geom_bond_atom_site_label_2
_geom_bond_distance
_ccdc_geom_bond_type
C84   C96   1.412625 A    
C94   N14   1.435565 S    
N16   H55   1.044944 S    
O8    Cu1   1.966023 S    
C17   C25   1.397280 A    
C12   N8    1.437074 S    
C58   H10   1.083960 S    
N9    H42   1.041285 S    
N9    H41   1.045884 S    
C99   N19   1.435663 S    
N7    H37   1.045433 S    
C14   C22   1.414202 A    
C88   C92   1.411994 A    
C44   C52   1.416215 A    
C13   N9    1.445442 S    
C97   C100  1.414131 A    
N12   H47   1.045515 S    
C47   C55   1.416218 A    
C100  N20   1.435100 S    
C12   C52   1.410729 A    
C79   H31   1.080508 S    
N13   H49   1.044969 S    
C58   C70   1.391259 A    
C87   C91   1.412477 A    
O13   C7    1.290459 A    
N5    H33   1.045797 S    
C7    C22   1.455470 S    
C77   H29   1.081803 S    
C79   C85   1.416007 A    
C76   C82   1.414978 A    
C13   C53   1.410824 A    
C54   C69   1.406107 A    
C27   C35   1.389044 A    
O2    C2    1.287608 A    
C66   H18   1.082327 S    
C39   C63   1.397851 A    
C53   C70   1.407935 A    
C77   N3    1.362389 A    
C65   H17   1.082766 S    
C38   C62   1.398090 A    
C86   C92   1.412287 A    
N14   H52   1.044941 S    
N15   H54   1.044967 S    
C76   N2    1.362969 A    
O6    Cu1   1.963993 S    
C67   H19   1.081433 S    
C84   C90   1.412242 A    
C46   C54   1.415815 A    
C29   C37   1.388496 A    
N14   H51   1.044963 S    
C42   C50   1.415915 A    
O3    C2    1.294849 A    
C20   C28   1.397859 A    
Cu2   N2    2.005016 S    
O14   C8    1.289012 A    
C74   H26   1.081801 S    
Cu1   N1    2.005016 S    
C16   C56   1.409992 A    
C39   C47   1.409858 A    
Cu3   N3    2.005016 S    
C41   C46   1.407341 A    
C38   C46   1.409538 A    
N11   H45   1.045524 S    
C62   H14   1.083972 S    
C71   H23   1.081403 S    
N17   H58   1.045449 S    
C35   C43   1.409598 A    
C36   C44   1.409860 A    
O13   Cu4   1.963996 S    
O14   Cu3   1.963993 S    
C95   N15   1.435690 S    
C15   C23   1.412754 A    
C59   C71   1.389873 A    
N17   H57   1.045545 S    
C80   N4    1.362994 A    
C24   C32   1.397789 A    
O16   Cu3   1.966023 S    
C12   C20   1.412746 A    
C25   C33   1.388459 A    
N19   H61   1.045002 S    
N5    H34   1.040773 S    
O1    Cu1   1.971116 S    
C8    C21   1.454699 S    
C78   H30   1.081896 S    
C59   H11   1.084104 S    
C33   C41   1.408898 A    
C73   C83   1.414918 A    
C21   C29   1.397271 A    
C10   C50   1.405305 A    
N10   H44   1.045532 S    
C9    C49   1.410581 A    
N13   H50   1.044999 S    
C31   H7    1.085168 S    
C86   C98   1.412469 A    
C11   N7    1.437112 S    
O4    Cu2   1.970904 S    
C30   H6    1.085488 S    
O8    C3    1.288075 A    
C76   H28   1.081729 S    
N20   H63   1.045583 S    
C30   C38   1.390164 A    
C44   C47   1.408003 A    
O3    Cu1   1.970904 S    
N8    H40   1.045509 S    
C16   N12   1.437234 S    
C13   C21   1.418823 A    
N11   H46   1.045446 S    
C45   C53   1.416543 A    
C9    N5    1.445208 S    
C34   C42   1.409490 A    
Cu1   Cu2   2.668605 S    
C62   C66   1.391112 A    
O12   C5    1.294724 A    
C32   H8    1.085116 S    
O10   C6    1.293676 A    
O5    Cu2   1.963996 S    
C1    C20   1.462555 S    
N6    H36   1.045807 S    
C60   C72   1.390467 A    
C10   N6    1.437280 S    
C2    C19   1.463217 S    
C83   C89   1.412257 A    
C3    C18   1.455531 S    
C75   C81   1.415000 A    
C5    C24   1.462913 S    
C35   C59   1.397591 A    
C85   C97   1.418225 A    
C79   N3    1.362642 A    
C6    C23   1.462497 S    
C26   H2    1.085467 S    
C69   H21   1.082769 S    
O11   Cu3   1.970904 S    
C15   C55   1.410737 A    
C26   C34   1.390305 A    
C81   C89   1.412213 A    
O2    Cu2   1.971116 S    
C74   C84   1.414934 A    
C77   C87   1.414282 A    
O7    Cu2   1.966020 S    
C78   C88   1.414469 A    
C88   C100  1.411365 A    
N20   H64   1.045601 S    
C55   C72   1.407952 A    
C22   C30   1.397271 A    
O5    C3    1.290353 A    
O4    C1    1.288389 A    
C75   N1    1.363005 A    
N18   H60   1.044956 S    
O15   C8    1.288837 A    
C14   C54   1.405099 A    
C25   H1    1.085689 S    
C85   C91   1.413729 A    
O16   C7    1.287941 A    
C87   C99   1.412698 A    
C80   H32   1.081793 S    
N8    H39   1.045447 S    
C37   C61   1.399041 A    
C93   C96   1.420795 A    
C31   C39   1.389906 A    
C98   N18   1.435656 S    
C82   C90   1.412197 A    
C52   C67   1.407951 A    
C83   C95   1.412601 A    
N10   H43   1.044528 S    
O9    Cu3   1.971116 S    
C19   C27   1.397929 A    
C98   C99   1.420532 A    
O10   Cu4   1.971116 S    
C28   C36   1.389943 A    
C61   H13   1.083958 S    
C43   C48   1.407235 A    
N16   H56   1.044964 S    
C28   H4    1.085170 S    
C42   C45   1.407483 A    
N7    H38   1.045519 S    
C97   N17   1.435064 S    
C64   C68   1.389694 A    
C37   C45   1.408848 A    
N18   H59   1.044998 S    
C36   C60   1.397867 A    
C63   C67   1.390445 A    
N12   H48   1.045408 S    
C91   C92   1.418804 A    
C57   C69   1.391045 A    
C48   C56   1.415823 A    
O6    C4    1.289194 A    
C89   C90   1.418131 A    
O11   C6    1.288353 A    
O1    C1    1.293651 A    
C72   H24   1.081434 S    
C80   C86   1.415070 A    
C41   C49   1.416416 A    
N6    H35   1.044579 S    
C15   N11   1.437074 S    
N15   H53   1.045007 S    
C14   N10   1.437110 S    
C4    C17   1.454979 S    
C40   C64   1.397486 A    
O9    C5    1.287563 A    
O15   Cu4   1.966020 S    
C96   N16   1.435621 S    
C23   C31   1.397825 A    
C11   C51   1.409848 A    
C64   H16   1.084112 S    
C11   C19   1.414276 A    
C57   H9    1.083962 S    
C93   N13   1.435626 S    
C70   H22   1.082347 S    
C78   N4    1.362887 A    
C82   C94   1.412735 A    
C18   C26   1.397342 A    
C75   H27   1.081783 S    
C16   C24   1.414175 A    
C56   C71   1.408014 A    
C29   H5    1.085672 S    
C51   C68   1.408030 A    
C68   H20   1.081393 S    
C63   H15   1.084074 S    
C81   C93   1.412719 A    
C40   C48   1.409618 A    
C32   C40   1.388841 A    
O7    C4    1.288778 A    
C9    C17   1.419015 A    
Cu3   Cu4   2.668605 S    
N19   H62   1.044983 S    
C27   H3    1.085105 S    
C94   C95   1.420760 A    
C60   H12   1.084077 S    
C73   H25   1.081841 S    
C74   N2    1.362968 A    
C10   C18   1.414122 A    
O12   Cu4   1.970904 S    
C33   C57   1.399034 A    
C50   C65   1.406089 A    
C73   N1    1.362964 A    
C43   C51   1.415763 A    
C61   C65   1.391095 A    
C49   C66   1.407980 A    
Cu4   N4    2.005016 S    
C34   C58   1.398173 A    
