data_mof_unit_617.cif
_audit_creation_date              2012-12-11T15:41:07-0500
_audit_creation_method            fapswitch 2.2
_symmetry_space_group_name_H-M    P1
_symmetry_Int_Tables_number       1
_space_group_crystal_system       triclinic
_cell_length_a                    8.676847
_cell_length_b                    18.824386
_cell_length_c                    19.14102
_cell_angle_alpha                 96.681958
_cell_angle_beta                  95.045651
_cell_angle_gamma                 94.072847
_cell_volume                      3082.70375302

loop_
_atom_site_label
_atom_site_type_symbol
_atom_type_description
_atom_site_fract_x
_atom_site_fract_y
_atom_site_fract_z
_atom_type_partial_charge
Ba1   Ba    Ba6+2 0.154050 0.534420 0.467300 1.706403
Ba2   Ba    Ba6+2 0.656120 0.465570 0.532650 1.707665
C1    C     C_3   0.271688 0.745739 0.223214 -0.175689
C2    C     C_3   0.311069 0.708552 0.289042 0.329697
C3    C     C_3   0.583754 0.685122 0.720199 0.239349
C4    C     C_3   0.558753 0.731340 0.791127 -0.307665
C5    C     C_3   0.855057 0.273318 0.722932 0.314380
C6    C     C_3   0.817107 0.216355 0.773581 -0.088918
C7    C     C_3   0.401987 0.250154 0.707927 0.292133
C8    C     C_3   0.357666 0.174239 0.730997 -0.142449
C9    C     C_2   0.713030 0.704816 0.471698 -0.152591
C10   C     C_3   0.611615 0.755332 0.435740 -0.048435
C11   C     C_2   0.649881 0.833586 0.461283 -0.135670
C12   C     C_3   0.844261 0.719899 0.306828 0.329523
C13   C     C_2   0.785586 0.856031 0.500016 -0.084866
C14   C     C_2   0.885814 0.799924 0.527689 -0.093175
C15   C     C_1   0.842023 0.728208 0.515106 0.006100
C16   C     C_R   0.932887 0.079299 0.525044 0.529792
C17   C     C_R   0.836976 0.935664 0.511479 0.466400
C18   C     C_R   0.892748 0.209910 0.506197 -0.093135
C19   C     C_R   0.955319 0.280512 0.500544 0.089361
C20   C     C_R   0.203923 0.250795 0.554042 -0.016995
C21   C     C_R   0.146757 0.178907 0.550517 -0.152290
C22   C     C_R   0.988952 0.157482 0.529374 -0.020272
C23   C     C_3   0.876705 0.798584 0.295973 -0.202878
C24   C     C_R   0.104362 0.302137 0.534063 -0.249776
C25   C     C_R   0.605597 0.524216 0.294443 -0.219855
C26   C     C_R   0.454614 0.494408 0.273000 0.138648
C27   C     C_R   0.403774 0.486658 0.199085 -0.025279
C28   C     C_R   0.509708 0.505699 0.149642 0.065836
C29   C     C_R   0.665987 0.530698 0.174080 0.067229
C30   C     C_R   0.709851 0.543820 0.247350 0.037911
C31   C     C_R   0.440008 0.557674 0.033511 -0.034000
C32   C     C_R   0.384494 0.544673 0.961410 -0.111249
C33   C     C_R   0.348376 0.474990 0.926527 0.057801
C34   C     C_3   0.768187 0.270358 0.298608 0.089915
C35   C     C_R   0.370198 0.416573 0.964043 -0.018558
C36   C     C_R   0.426835 0.427928 0.035543 -0.080598
C37   C     C_R   0.457071 0.497806 0.072039 -0.025585
C38   C     C_R   0.152785 0.438981 0.822129 -0.146684
C39   C     C_R   0.103417 0.439449 0.750521 0.033295
C40   C     C_R   0.354090 0.495021 0.730936 -0.033666
C41   C     C_R   0.408502 0.491014 0.802615 -0.120204
C42   C     C_R   0.304820 0.464897 0.848815 -0.044908
C43   C     C_R   0.203915 0.466822 0.705529 -0.248708
C44   C     C_3   0.689976 0.200742 0.325590 -0.234563
C45   C     C_3   0.091868 0.671417 0.694132 0.303959
C46   C     C_3   0.051218 0.649274 0.767262 -0.144504
C47   C     C_3   0.227229 0.312102 0.319527 0.314292
C48   C     C_3   0.234473 0.238256 0.276447 -0.302780
H1    H     H_    0.228364 0.661036 0.289540 0.118401
H2    H     H_    0.616377 0.219043 0.367623 0.068775
H3    H     H_    0.158233 0.628875 0.668727 0.000645
H4    H     H_    0.982741 0.596451 0.754721 0.144585
H5    H     H_    0.122075 0.336685 0.300932 0.094534
H6    H     H_    0.134878 0.201696 0.284851 0.120924
H7    H     H_    0.338923 0.214534 0.297270 0.043329
H8    H     H_    0.429823 0.690023 0.286239 -0.052522
H9    H     H_    0.379164 0.774851 0.209986 0.098680
H10   H     H_    0.681365 0.651733 0.729428 0.050873
H11   H     H_    0.593857 0.701879 0.836217 0.125808
H12   H     H_    0.433896 0.737541 0.793331 0.098597
H13   H     H_    0.187757 0.786463 0.233903 0.138360
H14   H     H_    0.784945 0.257678 0.671434 0.121427
H15   H     H_    0.690517 0.206921 0.770837 0.066306
H16   H     H_    0.293419 0.270428 0.689914 -0.019401
H17   H     H_    0.243957 0.154235 0.701863 0.049088
H18   H     H_    0.881307 0.716840 0.363231 0.028924
H19   H     H_    0.576829 0.871888 0.439770 0.116738
H20   H     H_    0.772607 0.194534 0.487729 0.107082
H21   H     H_    0.225788 0.139968 0.565067 0.128850
H22   H     H_    0.149605 0.357542 0.536942 0.064840
H23   H     H_    0.373730 0.589296 0.930993 0.110272
H24   H     H_    0.717734 0.703962 0.295367 -0.033011
H25   H     H_    0.347847 0.362297 0.937512 0.075325
H26   H     H_    0.446276 0.381703 0.063028 0.134823
H27   H     H_    0.071239 0.421141 0.857461 0.085416
H28   H     H_    0.160782 0.471008 0.651459 0.055675
H29   H     H_    0.651198 0.520965 0.347630 0.041225
H30   H     H_    0.814770 0.832631 0.333849 0.080616
H31   H     H_    0.002600 0.814619 0.308159 0.141626
N1    N     N_R   0.779212 0.056640 0.520284 -0.168333
N2    N     N_R   0.732433 0.986556 0.513388 -0.198481
N3    N     N_R   0.990045 0.958635 0.516594 -0.210918
N4    N     N_R   0.036732 0.028407 0.523420 -0.227516
O1    O     O_2   0.126770 0.670950 0.539180 -0.414637
O2    O     O_3   0.360187 0.354443 0.311978 -0.591344
O3    O     O_3   0.930188 0.675601 0.263365 -0.610583
O4    O     O_2   0.683530 0.329010 0.460790 -0.484243
O5    O     O_3   0.935970 0.416420 0.461920 -0.476857
O6    O     O_3   0.450050 0.370950 0.587830 -0.478471
O7    O     O_3   0.877638 0.315493 0.348507 -0.697060
O8    O     O_3   0.375780 0.535040 0.584090 -0.450374
O9    O     O_3   0.866950 0.405950 0.623880 -0.479665
O10   O     O_2   0.812126 0.478121 0.745764 -0.453179
O11   O     O_3   0.813589 0.341399 0.752571 -0.589741
O12   O     O_3   0.874330 0.583580 0.538020 -0.498239
O13   O     O_3   0.434510 0.464950 0.415850 -0.489209
O14   O     O_2   0.630930 0.532620 0.670490 -0.441076
O15   O     O_3   0.443003 0.643641 0.697285 -0.640250
O16   O     O_2   0.506292 0.247012 0.517147 -0.467777
O17   O     O_3   0.500880 0.245698 0.652992 -0.571659
O18   O     O_3   0.360240 0.629040 0.412110 -0.496579
O19   O     O_2   0.312697 0.752965 0.485829 -0.363422
O20   O     O_3   0.950844 0.674572 0.652657 -0.656815
O21   O     O_3   0.300949 0.756721 0.350212 -0.610550
O22   O     O_2   0.179370 0.467330 0.329490 -0.488927
O23   O     O_3   0.943350 0.594040 0.376060 -0.495891
O24   O     O_2   0.037290 0.550109 0.252496 -0.505632
P1    P     P_3+3 0.954930 0.659850 0.559700 1.032091
P2    P     P_3+3 0.352180 0.446150 0.339620 1.027403
P3    P     P_3+3 0.903170 0.587839 0.284609 0.933736
P4    P     P_3+3 0.855360 0.340140 0.440240 0.962522
P5    P     P_3+3 0.899695 0.414923 0.716666 0.977997
P6    P     P_3+3 0.396821 0.723511 0.422400 1.015999
P7    P     P_3+3 0.456209 0.551254 0.673267 1.008868
P8    P     P_3+3 0.413529 0.277634 0.577406 0.993689
C49   C     C_3   0.583738 0.150632 0.267428 -0.430207
H32   H     H_    0.523205 0.178448 0.227363 0.176051
H33   H     H_    0.649364 0.110442 0.237849 0.194602
H34   H     H_    0.493497 0.119723 0.291826 0.107146
C50   C     C_2   0.803457 0.152086 0.355974 0.914041
O25   O     O_2   0.942737 0.164623 0.355594 -0.607527
O26   O     O_R   0.749979 0.089666 0.382266 -0.724895
H35   H     H_    0.634431 0.086058 0.386754 0.286847
C51   C     C_2   0.184563 0.743516 0.702059 0.907085
O27   O     O_2   0.272627 0.756105 0.658135 -0.556148
O28   O     O_R   0.168808 0.796597 0.757866 -0.737213
H36   H     H_    0.237496 0.842145 0.756155 0.348908
C52   C     C_3   0.949541 0.700567 0.807572 -0.248893
H37   H     H_    0.018195 0.740825 0.847527 0.186536
H38   H     H_    0.885485 0.731495 0.771174 0.174947
H39   H     H_    0.867478 0.669693 0.836303 0.134223
C53   C     C_3   0.191615 0.638142 0.817815 -0.470720
H40   H     H_    0.153490 0.602459 0.856383 0.137192
H41   H     H_    0.282369 0.613897 0.789389 0.126910
H42   H     H_    0.243941 0.689257 0.848010 0.167660
C54   C     C_3   0.230473 0.301942 0.396299 -0.309468
H43   H     H_    0.144431 0.258154 0.403273 0.102381
H44   H     H_    0.346783 0.287727 0.416011 0.128660
H45   H     H_    0.206385 0.353247 0.425966 0.078751
C55   C     C_3   0.202876 0.692732 0.159445 -0.417544
H46   H     H_    0.224265 0.715504 0.109858 0.160288
H47   H     H_    0.075659 0.683073 0.159888 0.161567
H48   H     H_    0.253731 0.640263 0.159304 0.143252
C56   C     C_2   0.236090 0.238453 0.197623 1.054868
O29   O     O_2   0.238698 0.294506 0.171557 -0.538672
O30   O     O_R   0.234366 0.173954 0.153214 -0.684244
H49   H     H_    0.231762 0.130549 0.179993 0.277290
C57   C     C_2   0.620956 0.730224 0.662790 0.875040
O31   O     O_2   0.735049 0.773191 0.671057 -0.601202
O32   O     O_R   0.524538 0.723285 0.599859 -0.690930
H50   H     H_    0.546863 0.765050 0.572547 0.310038
C58   C     C_2   0.635925 0.806796 0.804911 0.916447
O33   O     O_2   0.740824 0.822456 0.852461 -0.572365
O34   O     O_R   0.580765 0.859760 0.765791 -0.708827
H51   H     H_    0.640610 0.908388 0.780030 0.340779
C59   C     C_3   0.823601 0.813052 0.221229 -0.358517
H52   H     H_    0.695016 0.806634 0.212591 0.113017
H53   H     H_    0.862435 0.869117 0.214474 0.146592
H54   H     H_    0.873549 0.776154 0.181250 0.157086
C60   C     C_3   0.024084 0.272341 0.708570 -0.423518
H55   H     H_    0.052089 0.307170 0.668215 0.065044
H56   H     H_    0.046771 0.218285 0.685163 0.091382
H57   H     H_    0.099841 0.289334 0.758143 0.089764
C61   C     C_2   0.872073 0.143290 0.750406 0.862887
O35   O     O_2   0.956221 0.113650 0.790585 -0.586018
O36   O     O_R   0.825720 0.109743 0.682162 -0.747235
H58   H     H_    0.868420 0.061201 0.672757 0.326086
C62   C     C_3   0.873515 0.243221 0.851456 -0.346220
H59   H     H_    0.836477 0.202969 0.885987 0.162149
H60   H     H_    0.001565 0.252777 0.859191 0.121029
H61   H     H_    0.822380 0.293739 0.869233 0.152267
C63   C     C_3   0.466991 0.309547 0.767372 -0.293236
H62   H     H_    0.373475 0.326074 0.800122 0.055851
H63   H     H_    0.560005 0.293399 0.803534 0.130757
H64   H     H_    0.511345 0.357354 0.744077 0.148848
C64   C     C_3   0.332336 0.176218 0.809754 -0.379171
H65   H     H_    0.283948 0.122806 0.820551 0.205229
H66   H     H_    0.248278 0.215533 0.824665 0.116426
H67   H     H_    0.443228 0.190387 0.843686 0.140194
C65   C     C_2   0.462970 0.116494 0.708855 0.946273
O37   O     O_2   0.480038 0.101341 0.646328 -0.546289
O38   O     O_R   0.532554 0.077068 0.758914 -0.749822
H68   H     H_    0.592091 0.037259 0.736829 0.337459
C66   C     C_2   0.015323 0.829055 0.580766 0.909689
O39   O     O_2   0.989132 0.848311 0.641406 -0.544457
O40   O     O_R   0.161824 0.844843 0.559113 -0.683042
H69   H     H_    0.237017 0.871872 0.598439 0.345356
C67   C     C_3   0.662101 0.627743 0.448302 -0.233378
H70   H     H_    0.584165 0.606481 0.485393 0.158008
H71   H     H_    0.609730 0.625040 0.393695 0.001181
H72   H     H_    0.749050 0.591368 0.439506 0.142602
C68   C     C_2   0.570856 0.513550 0.831291 0.904365
O41   O     O_2   0.630894 0.571994 0.822711 -0.654126
O42   O     O_R   0.653227 0.468541 0.871407 -0.745167
H73   H     H_    0.761541 0.490229 0.889902 0.310114
C69   C     C_2   0.484407 0.633912 0.064401 0.836050
O43   O     O_2   0.477243 0.681899 0.026495 -0.602110
O44   O     O_R   0.535150 0.651905 0.135916 -0.796749
H74   H     H_    0.564998 0.705043 0.148757 0.307279
C70   C     C_3   0.239578 0.458674 0.170608 -0.291957
H75   H     H_    0.168746 0.437947 0.209578 0.166277
H76   H     H_    0.180458 0.501816 0.146968 0.097953
H77   H     H_    0.239044 0.413009 0.128946 0.156853
C71   C     C_3   0.786782 0.542937 0.123185 -0.334080
H78   H     H_    0.742622 0.528860 0.066889 0.108339
H79   H     H_    0.832352 0.600153 0.130668 0.134794
H80   H     H_    0.883385 0.508707 0.132857 0.115632
C72   C     C_2   0.649879 0.317046 0.269680 0.844316
O45   O     O_2   0.567902 0.297061 0.214788 -0.578989
O46   O     O_R   0.654615 0.388470 0.296117 -0.760452
H81   H     H_    0.682318 0.399218 0.348950 0.280454
C73   C     C_2   0.858154 0.249886 0.234459 0.899098
O47   O     O_2   0.873816 0.187323 0.213258 -0.568229
O48   O     O_R   0.920256 0.302870 0.196667 -0.715017
H82   H     H_    0.907647 0.353747 0.217999 0.272997

loop_
_geom_bond_atom_site_label_1
_geom_bond_atom_site_label_2
_ccdc_geom_bond_type
C20   P8    S    
C59   H53   S    
C19   C24   A    
C13   C17   S    
C67   H70   S    
C23   H30   S    
C24   H22   S    
C47   O2    S    
O18   P6    S    
O15   P7    S    
C39   P5    S    
O20   P1    S    
O11   P5    S    
O28   H36   S    
C53   H42   S    
C64   H65   S    
O9    P5    S    
C5    C6    S    
C36   H26   S    
C8    H17   S    
C69   O43   D    
C46   H4    S    
C5    O11   S    
C31   C37   A    
C70   H76   S    
C41   C68   S    
C16   C22   S    
C12   H24   S    
C4    H11   S    
C46   C53   S    
C26   C27   A    
O1    P1    D    
C35   C36   A    
C32   C33   A    
C25   H29   S    
C3    C4    S    
Ba2   P4    S    
C73   O48   S    
O2    P2    S    
C62   H59   S    
O10   P5    D    
C65   O38   S    
C13   C14   S    
O19   P6    D    
C44   H2    S    
O38   H68   S    
C44   C49   S    
C29   C30   A    
Ba1   Ba2   S    
O5    P4    S    
Ba2   O5    S    
C49   H32   S    
C23   H31   S    
C59   H54   S    
C34   C73   S    
C63   H62   S    
O36   H58   S    
C9    C15   D    
C18   C22   A    
Ba2   O12   S    
O44   H74   S    
C45   O20   S    
C70   H77   S    
C67   H71   S    
C21   C22   A    
O6    P8    S    
C34   C44   S    
C43   H28   S    
C27   C70   S    
C7    C8    S    
Ba1   O18   S    
C58   O34   S    
C67   H72   S    
C45   H3    S    
C10   P6    S    
C48   C56   S    
C68   O41   D    
C35   H25   S    
C6    H15   S    
O46   H81   S    
C47   C54   S    
C15   P1    S    
C61   O36   S    
C55   H48   S    
C46   C52   S    
C61   O35   D    
C1    C55   S    
C17   N2    A    
C6    C62   S    
C56   O30   S    
C26   P2    S    
C5    C60   S    
O4    P4    D    
C38   H27   S    
C16   N4    A    
C70   H75   S    
C2    H1    S    
C8    C64   S    
C21   H21   S    
Ba2   O9    S    
N3    N4    A    
C29   C71   S    
C19   P4    S    
O24   P3    D    
Ba1   O12   S    
O14   P7    D    
C71   H78   S    
C14   C15   D    
C53   H41   S    
C32   H23   S    
C47   H5    S    
C2    O21   S    
C48   H6    S    
C3    C57   S    
O23   P3    S    
O40   H69   S    
C49   H34   S    
Ba2   O4    S    
C52   H38   S    
C41   C42   A    
C27   C28   A    
Ba1   P1    S    
C60   H57   S    
C45   C46   S    
C3    O15   S    
C28   C29   A    
C31   C32   A    
C1    C2    S    
C7    C63   S    
C4    C58   S    
C39   C43   A    
O48   H82   S    
C33   C42   S    
C63   H64   S    
C58   O33   D    
C7    O17   S    
O17   P8    S    
C6    C61   S    
Ba1   O22   S    
C40   P7    S    
C38   C39   A    
Ba2   O14   S    
C47   C48   S    
C72   O46   S    
C11   C13   D    
C59   H52   S    
C8    C65   S    
C57   O32   S    
C52   H39   S    
C40   C41   A    
C50   O26   S    
C17   N3    A    
Ba1   O5    S    
C68   O42   S    
C23   C59   S    
C18   H20   S    
C45   C51   S    
C56   O29   D    
O7    P4    S    
Ba1   O1    S    
O34   H51   S    
C51   O28   S    
O13   P2    S    
C30   P3    S    
C3    H10   S    
C33   C35   A    
C25   C30   A    
C73   O47   D    
C48   H7    S    
O22   P2    D    
Ba2   O8    S    
O42   H73   S    
C54   H45   S    
Ba1   O13   S    
C64   H66   S    
C9    C10   S    
C53   H40   S    
C54   H44   S    
C1    H13   S    
C60   H55   S    
C57   O31   D    
O21   P6    S    
C9    C67   S    
O16   P8    D    
C4    H12   S    
C52   H37   S    
C50   O25   D    
C12   O3    S    
C60   H56   S    
C14   C66   S    
C7    H16   S    
O12   P1    S    
C71   H80   S    
C34   O7    S    
C36   C37   A    
C11   H19   S    
C31   C69   S    
C51   O27   D    
C16   N1    A    
C63   H63   S    
C28   C37   S    
C55   H47   S    
O30   H49   S    
C72   O45   D    
C12   C23   S    
Ba2   O6    S    
C49   H33   S    
C5    H14   S    
C64   H67   S    
C54   H43   S    
C40   C43   A    
Ba1   O23   S    
O3    P3    S    
C38   C42   A    
C18   C19   A    
Ba2   O13   S    
Ba1   O8    S    
N1    N2    A    
C20   C24   A    
C2    H8    S    
C25   C26   A    
C55   H46   S    
C12   H18   S    
C20   C21   A    
C44   C50   S    
C69   O44   S    
O32   H50   S    
C62   H60   S    
C10   C11   S    
C66   O39   D    
C71   H79   S    
C66   O40   S    
O8    P7    S    
Ba1   P2    S    
C65   O37   D    
C34   C72   S    
O26   H35   S    
C62   H61   S    
C1    H9    S    
