data_mof_unit_4767.cif
_audit_creation_date              2013-03-05T15:58:06-0500
_audit_creation_method            fapswitch 2.2
_symmetry_space_group_name_H-M    P1
_symmetry_Int_Tables_number       1
_space_group_crystal_system       triclinic
_cell_length_a                    15.034358
_cell_length_b                    14.917443
_cell_length_c                    15.233502
_cell_angle_alpha                 109.304106
_cell_angle_beta                  109.288402
_cell_angle_gamma                 110.017504
_cell_volume                      2623.51187001

loop_
_atom_site_label
_atom_site_type_symbol
_atom_site_description
_atom_site_fract_x
_atom_site_fract_y
_atom_site_fract_z
_atom_type_partial_charge
C1    C     C_R   0.978649 0.255859 0.067558 -0.080839
H1    H     H_    0.945292 0.244421 0.117704 0.093320
N1    N     N_R   0.947080 0.293830 0.002870 -0.055798
C2    C     C_R   0.315439 0.759015 0.225371 -0.125952
H2    H     H_    0.381353 0.775128 0.208611 0.165162
N2    N     N_R   0.208950 0.706170 0.152110 -0.040384
C3    C     C_R   0.208242 0.412672 0.901438 -0.187419
H3    H     H_    0.176839 0.327930 0.845163 0.138061
N3    N     N_R   0.153670 0.443180 0.946090 -0.064817
C4    C     C_R   0.994288 0.585964 0.297084 -0.080331
H4    H     H_    0.022952 0.669465 0.355111 0.087351
N4    N     N_R   0.002360 0.556820 0.208890 -0.041151
C5    C     C_R   0.298780 0.595619 0.994086 0.317765
N5    N     N_R   0.210070 0.556820 0.002870 -0.082205
C6    C     C_R   0.910848 0.403048 0.207015 -0.088516
H5    H     H_    0.860865 0.316840 0.178508 0.106814
N6    N     N_R   0.945960 0.443180 0.152110 -0.044554
C7    C     C_R   0.220387 0.751077 0.312036 -0.069621
H6    H     H_    0.195793 0.752701 0.370910 0.113047
N7    N     N_R   0.151710 0.706170 0.208890 -0.055705
C8    C     C_R   0.071220 0.256943 0.978769 -0.085001
H7    H     H_    0.125403 0.250231 0.949075 0.115876
N8    N     N_R   0.004320 0.293830 0.946090 -0.049301
C9    C     C_R   0.058603 0.233868 0.057003 0.082500
C10   C     C_R   0.324600 0.789437 0.326420 0.037305
C11   C     C_R   0.298640 0.506377 0.927038 -0.106231
C12   C     C_R   0.942489 0.490672 0.299471 0.074668
C13   C     C_R   0.685805 0.407070 0.933206 0.367038
N9    N     N_R   0.789930 0.443180 0.997130 -0.088857
C14   C     C_R   0.040068 0.596798 0.782709 -0.007666
H8    H     H_    0.074004 0.682936 0.807664 0.122905
N10   N     N_R   0.054040 0.556820 0.847890 -0.040495
C15   C     C_R   0.793752 0.195919 0.702676 -0.147585
H9    H     H_    0.823599 0.175862 0.648402 0.117016
N11   N     N_R   0.848290 0.293830 0.791110 -0.052090
C16   C     C_R   0.995791 0.799171 0.090687 -0.142433
H10   H     H_    0.974694 0.821455 0.151516 0.125181
N12   N     N_R   0.995680 0.706170 0.053910 -0.046820
C17   C     C_R   0.086816 0.804158 0.001379 -0.089687
H11   H     H_    0.144611 0.834802 0.976592 0.115729
N13   N     N_R   0.052920 0.706170 0.997130 -0.044578
C18   C     C_R   0.711589 0.189377 0.798342 0.043892
H12   H     H_    0.672804 0.155127 0.836612 0.148396
N14   N     N_R   0.791050 0.293830 0.847890 -0.059133
C19   C     C_R   0.776090 0.590735 0.023689 -0.179333
H13   H     H_    0.796131 0.675497 0.060697 0.136675
N15   N     N_R   0.846330 0.556820 0.053910 -0.064666
C20   C     C_R   0.953330 0.411586 0.687226 -0.081417
H14   H     H_    0.911229 0.327759 0.622257 0.103104
N16   N     N_R   0.997640 0.443180 0.791110 -0.050184
Ni1   Ni    Ni4+2 0.869690 0.369690 0.000000 0.252540
Ni2   Ni    Ni4+2 0.130310 0.630310 0.000000 0.298287
Ni3   Ni    Ni4+2 0.000970 0.369690 0.869780 0.221120
Ni4   Ni    Ni4+2 0.999030 0.630310 0.130220 0.212474
C21   C     C_R   0.672569 0.498033 0.947005 -0.143400
C22   C     C_R   0.980382 0.508008 0.681433 0.026684
C23   C     C_R   0.708121 0.126734 0.706183 -0.006196
C24   C     C_R   0.051546 0.864249 0.059873 0.058853
H15   H     H_    0.536516 0.011891 0.069636 0.140688
C25   C     C_R   0.606253 0.186532 0.129857 -0.084528
H16   H     H_    0.542021 0.175973 0.061766 0.156131
C26   C     C_R   0.691072 0.292320 0.214092 -0.123801
H17   H     H_    0.691719 0.364105 0.211302 0.120752
C27   C     C_R   0.775099 0.304399 0.301223 0.107884
C28   C     C_R   0.772542 0.209604 0.302720 -0.176944
H18   H     H_    0.836530 0.217170 0.369403 0.124881
C29   C     C_R   0.686877 0.104727 0.219480 -0.090377
H19   H     H_    0.684752 0.032495 0.222263 0.128542
C30   C     C_R   0.603494 0.093219 0.133311 -0.088810
C31   C     C_R   0.872845 0.431847 0.493024 -0.209872
H20   H     H_    0.806210 0.375354 0.495363 0.135032
C32   C     C_R   0.969594 0.514630 0.587597 0.178394
C33   C     C_R   0.061220 0.584134 0.587245 0.064070
C34   C     C_R   0.054927 0.562608 0.488757 -0.106890
C35   C     C_R   0.952655 0.487010 0.394577 0.053863
C36   C     C_R   0.864134 0.413674 0.395173 0.014713
C37   C     C_R   0.184159 0.784139 0.732907 -0.077601
C38   C     C_R   0.290805 0.873396 0.807058 -0.202881
H21   H     H_    0.305955 0.956749 0.843298 0.107344
C39   C     C_R   0.379728 0.857411 0.831704 0.018008
H22   H     H_    0.461812 0.927616 0.884167 0.101908
C40   C     C_R   0.363725 0.751644 0.787591 -0.157907
H23   H     H_    0.434907 0.742466 0.806797 0.103883
C41   C     C_R   0.258045 0.659404 0.717728 -0.012664
C42   C     C_R   0.166830 0.675175 0.686409 0.029277
H24   H     H_    0.123870 0.040085 0.509599 0.107593
C43   C     C_R   0.254987 0.055570 0.476378 -0.143518
H25   H     H_    0.251759 0.112944 0.448494 0.116312
C44   C     C_R   0.330757 0.021752 0.476890 -0.073617
H26   H     H_    0.384686 0.052224 0.447977 0.114566
C45   C     C_R   0.339024 0.951359 0.517505 0.127553
C46   C     C_R   0.271926 0.916612 0.558983 -0.228584
H27   H     H_    0.281222 0.867095 0.595429 0.122161
C47   C     C_R   0.190706 0.943889 0.550815 -0.058705
H28   H     H_    0.134847 0.911681 0.577069 0.154331
C48   C     C_R   0.183636 0.015148 0.511570 -0.042509
C49   C     C_R   0.519222 0.986558 0.620622 -0.170805
H29   H     H_    0.514760 0.034730 0.688220 0.169755
C50   C     C_R   0.619251 0.013507 0.624032 0.077526
C51   C     C_R   0.622420 0.946508 0.535616 0.096256
C52   C     C_R   0.523634 0.866120 0.440024 -0.172366
H30   H     H_    0.524958 0.815879 0.370859 0.144045
C53   C     C_R   0.424866 0.858185 0.431241 0.049189
C54   C     C_R   0.424171 0.921836 0.523146 -0.003512
C55   C     C_R   0.751278 0.002916 0.471005 -0.152262
H31   H     H_    0.689426 0.003278 0.409475 0.122444
C56   C     C_R   0.857684 0.048894 0.488563 -0.111945
H32   H     H_    0.876545 0.081904 0.439448 0.120524
C57   C     C_R   0.940165 0.054796 0.570873 -0.132583
H33   H     H_    0.022759 0.091768 0.585066 0.157086
C58   C     C_R   0.916553 0.013942 0.635534 -0.170291
H34   H     H_    0.981588 0.018276 0.698201 0.186652
C59   C     C_R   0.810406 0.969376 0.620795 0.362151
C60   C     C_R   0.727250 0.966444 0.538870 -0.021431
C61   C     C_3   0.464949 0.392025 0.837930 -0.340245
H35   H     H_    0.455488 0.324466 0.855116 0.190799
H36   H     H_    0.466481 0.370654 0.761428 0.196569
C62   C     C_3   0.363802 0.400992 0.825672 -0.418163
H37   H     H_    0.325155 0.402822 0.750598 0.188847
H38   H     H_    0.304245 0.325079 0.816481 0.177112
H39   H     H_    0.584983 0.462648 0.063497 0.157522
H40   H     H_    0.416027 0.439839 0.031782 0.191445
C63   C     C_3   0.571156 0.521196 0.039307 -0.377114
C64   C     C_3   0.566387 0.593894 0.910779 -0.417930
C65   C     C_3   0.570738 0.500475 0.932437 0.359083
H41   H     H_    0.643660 0.673385 0.968227 0.163965
H42   H     H_    0.554348 0.574374 0.829179 0.183379
C66   C     C_3   0.396656 0.507163 0.924252 0.371113
C67   C     C_3   0.464414 0.513339 0.029788 -0.408960
C68   C     C_3   0.470909 0.605880 0.919507 -0.381230
H43   H     H_    0.422785 0.610679 0.850787 0.148774
H44   H     H_    0.507876 0.683968 0.993306 0.202687
H45   H     H_    0.640049 0.604649 0.105141 0.183962
H46   H     H_    0.483493 0.586371 0.100758 0.172413
H47   H     H_    0.480684 0.281031 0.988235 0.177829
C69   C     C_R   0.309136 0.177665 0.923123 0.072161
C70   C     C_R   0.226950 0.144225 0.948342 -0.154939
H48   H     H_    0.145049 0.077376 0.885512 0.159711
C71   C     C_R   0.249725 0.194222 0.054849 -0.043232
C72   C     C_R   0.356823 0.279258 0.138094 -0.021247
C73   C     C_R   0.439514 0.309255 0.112068 -0.092706
H49   H     H_    0.522815 0.372792 0.173810 0.164317
C74   C     C_R   0.415794 0.257265 0.005863 -0.323514
C75   C     C_R   0.158891 0.041579 0.077256 -0.215838
H50   H     H_    0.208310 0.011809 0.054036 0.130276
C76   C     C_R   0.081576 0.980314 0.096445 0.074093
C77   C     C_R   0.032351 0.031573 0.144067 0.029323
C78   C     C_R   0.051663 0.133658 0.155900 -0.223585
H51   H     H_    0.013454 0.170694 0.192174 0.135078
C79   C     C_R   0.101813 0.176358 0.105159 0.056412
C80   C     C_R   0.168145 0.138135 0.079159 0.031912
C81   C     C_R   0.838593 0.933262 0.100166 -0.101227
H52   H     H_    0.812073 0.933692 0.025054 0.147201
C82   C     C_R   0.760881 0.885939 0.126376 -0.295000
H53   H     H_    0.675357 0.851710 0.071597 0.139080
C83   C     C_R   0.793262 0.879719 0.220716 0.053111
C84   C     C_R   0.905181 0.930765 0.293316 -0.111272
H54   H     H_    0.932327 0.928492 0.367334 0.155165
C85   C     C_R   0.982967 0.985397 0.270713 -0.239826
H55   H     H_    0.068598 0.025805 0.327406 0.126564
C86   C     C_R   0.950085 0.980081 0.170910 0.116678
C87   C     C_2   0.157716 0.609727 0.484098 0.480746
H56   H     H_    0.225914 0.691013 0.546122 -0.001607
O1    O     O_2   0.168923 0.554928 0.413262 -0.564072
C88   C     C_2   0.095122 0.810402 0.705537 0.436902
H57   H     H_    0.114846 0.895409 0.744231 0.064895
O2    O     O_2   0.999588 0.739315 0.641199 -0.561919
C89   C     C_2   0.247243 0.549101 0.671131 0.476565
H58   H     H_    0.316282 0.542242 0.669415 0.012896
O3    O     O_2   0.162670 0.465156 0.636108 -0.594734
N17   N     N_R   0.789214 0.930319 0.690529 0.232571
O4    O     O_R   0.693011 0.850705 0.656555 -0.375363
O5    O     O_R   0.868584 0.967332 0.785230 -0.421985
N18   N     N_R   0.347163 0.702870 0.005600 0.210272
O6    O     O_R   0.444803 0.779244 0.085190 -0.518779
O7    O     O_R   0.284808 0.732085 0.954983 -0.439962
C90   C     C_2   0.283902 0.129565 0.810778 0.350394
H59   H     H_    0.348014 0.133458 0.791562 0.113671
O8    O     O_2   0.191034 0.087794 0.738335 -0.645077
C91   C     C_2   0.384008 0.333088 0.251956 0.511863
H60   H     H_    0.321095 0.310312 0.273444 0.025527
O9    O     O_2   0.477464 0.404190 0.323615 -0.554766
C92   C     C_2   0.709777 0.818865 0.241682 0.402147
H61   H     H_    0.624834 0.791624 0.192232 0.070816
O10   O     O_2   0.734411 0.796051 0.312790 -0.560144
N19   N     N_R   0.602755 0.294280 0.878327 0.181708
O11   O     O_R   0.600176 0.240248 0.930051 -0.523338
O12   O     O_R   0.541426 0.241171 0.774247 -0.478287

loop_
_geom_bond_atom_site_label_1
_geom_bond_atom_site_label_2
_geom_bond_distance
_ccdc_geom_bond_type
C4    C12   1.386911 A    
N17   O4    1.301300 A    
C35   C36   1.409206 A    
C52   H30   1.083616 S    
N11   Ni3   1.869088 S    
C33   C34   1.389209 A    
C46   H27   1.078869 S    
N1    N8    1.407296 A    
C77   C78   1.384593 A    
C45   C54   1.475938 S    
C43   H25   1.081890 S    
C66   C67   1.544909 S    
N6    Ni1   1.894847 S    
C49   H29   1.081987 S    
C3    H3    1.078580 S    
C17   N13   1.343966 A    
C37   C38   1.402531 A    
C55   C56   1.394988 A    
C88   H57   1.084583 S    
C3    C11   1.393540 A    
C62   C66   1.552229 S    
N9    N15   1.379429 A    
C25   C26   1.401959 A    
C13   N9    1.325839 A    
C78   C79   1.397648 A    
C7    H6    1.073542 S    
C75   C80   1.388308 A    
C16   C24   1.367320 A    
C92   O10   1.221206 D    
C14   H8    1.075173 S    
C38   C39   1.389590 A    
C63   C65   1.550858 S    
C37   C88   1.489134 S    
C6    H5    1.077340 S    
C23   C50   1.468674 S    
C20   C22   1.396144 A    
C1    H1    1.069972 S    
C71   C80   1.464203 S    
C62   H37   1.113004 S    
N10   Ni2   1.894850 S    
C63   H45   1.110815 S    
C26   C27   1.402995 A    
C15   N11   1.330364 A    
N18   O6    1.299544 A    
C73   H49   1.082214 S    
C13   C21   1.396054 A    
C84   H54   1.081588 S    
N5    Ni2   1.881152 S    
C21   C65   1.487774 S    
C61   H36   1.112413 S    
N4    N6    1.379428 A    
C16   H10   1.064174 S    
C56   H32   1.082060 S    
C85   C86   1.399671 A    
C31   H20   1.086535 S    
C44   C45   1.403227 A    
N13   Ni2   1.880634 S    
C82   C83   1.402789 A    
C81   C86   1.402270 A    
C20   N16   1.328804 A    
C70   H48   1.084620 S    
C37   C42   1.427822 A    
C52   C53   1.405286 A    
C5    N5    1.331278 A    
C63   C67   1.521969 S    
C56   C57   1.393812 A    
C7    C10   1.380856 A    
C18   N14   1.333075 A    
C12   C35   1.427272 S    
C4    N4    1.329058 A    
C18   C23   1.377615 A    
C49   C50   1.395212 A    
C83   C92   1.475788 S    
C91   O9    1.221353 D    
N8    Ni3   1.872050 S    
C87   O1    1.221577 D    
C19   N15   1.334783 A    
C8    N8    1.338454 A    
C5    N18   1.432840 S    
N16   Ni3   1.872734 S    
C34   C35   1.407161 A    
C76   C77   1.426184 A    
C29   H19   1.082310 S    
C55   C60   1.406904 A    
C51   C60   1.480729 S    
C41   C42   1.423526 A    
N12   N13   1.407295 A    
C59   C60   1.420608 A    
C77   C86   1.475915 S    
C45   C46   1.401866 A    
C34   C87   1.499679 S    
N1    Ni1   1.880635 S    
C38   H21   1.082554 S    
C39   H22   1.081063 S    
C28   C29   1.394373 A    
C19   H13   1.078446 S    
C17   C24   1.410043 A    
C14   C22   1.363975 A    
C69   C90   1.469858 S    
H47   C74   1.071809 S    
C25   H16   1.076737 S    
C1    N1    1.327128 A    
C73   C74   1.395028 A    
C83   C84   1.403859 A    
C84   C85   1.396224 A    
C68   H44   1.099025 S    
N3    N5    1.379428 A    
C92   H61   1.081789 S    
C26   H17   1.082528 S    
C41   C89   1.485391 S    
C13   N19   1.425129 S    
C75   C76   1.394867 A    
C70   C71   1.401419 A    
C6    C12   1.353895 A    
C85   H55   1.075464 S    
N12   Ni4   1.872052 S    
C9    C79   1.476152 S    
C61   C62   1.527548 S    
C33   C42   1.493368 S    
C43   C48   1.397347 A    
C46   C47   1.394763 A    
C15   H9    1.071400 S    
C27   C36   1.481680 S    
C64   C68   1.547982 S    
C58   C59   1.406188 A    
N18   O7    1.299095 A    
C11   C66   1.484337 S    
C72   C73   1.401794 A    
C47   C48   1.397930 A    
N11   N14   1.407296 A    
N10   N16   1.379431 A    
C82   H53   1.081807 S    
H24   C48   1.079374 S    
H15   C30   1.080290 S    
N15   Ni4   1.869469 S    
N14   Ni1   1.894239 S    
N7    Ni4   1.869089 S    
C89   H58   1.085083 S    
C81   C82   1.397382 A    
C90   H59   1.085103 S    
C40   C41   1.402983 A    
C40   H23   1.081456 S    
C64   H42   1.112962 S    
C31   C36   1.375537 A    
C5    C11   1.383156 A    
C2    N2    1.343124 A    
C59   N17   1.440540 S    
C18   H12   1.076335 S    
N19   O12   1.302022 A    
C16   N12   1.312431 A    
C2    C10   1.396325 A    
C17   H11   1.079567 S    
C91   H60   1.084109 S    
C64   H41   1.104867 S    
C87   H56   1.079671 S    
N9    Ni1   1.881153 S    
C3    N3    1.327640 A    
C20   H14   1.081608 S    
C15   C23   1.377561 A    
H40   C67   1.105819 S    
C58   H34   1.082025 S    
C22   C32   1.424968 S    
C10   C53   1.463740 S    
C32   C33   1.415416 A    
C66   C68   1.555073 S    
C71   C72   1.413856 A    
C24   C76   1.474060 S    
C6    N6    1.320227 A    
C69   C74   1.393413 A    
N2    N7    1.407296 A    
C55   H31   1.083638 S    
C61   C65   1.550915 S    
C50   C51   1.414303 A    
C75   H50   1.081670 S    
N2    Ni2   1.894236 S    
C27   C28   1.409375 A    
C57   C58   1.395534 A    
C68   H43   1.099589 S    
C44   H26   1.083494 S    
C57   H33   1.080643 S    
C14   N10   1.313461 A    
C25   C30   1.397311 A    
C89   O3    1.220459 D    
C51   C52   1.400597 A    
C72   C91   1.485426 S    
C39   C40   1.389659 A    
C90   O8    1.219564 D    
C7    N7    1.320022 A    
C78   H51   1.079692 S    
C47   H28   1.081096 S    
C62   H38   1.105394 S    
H39   C63   1.108287 S    
C49   C54   1.372914 A    
C4    H4    1.082354 S    
C67   H46   1.113747 S    
N17   O5    1.301915 A    
C2    H2    1.072211 S    
N3    Ni3   1.869471 S    
C81   H52   1.083273 S    
C19   C21   1.398778 A    
C1    C9    1.393271 A    
C88   O2    1.219892 D    
C28   H18   1.083687 S    
C8    C9    1.396664 A    
C53   C54   1.413959 A    
C43   C44   1.393689 A    
C79   C80   1.406202 A    
C69   C70   1.393391 A    
C31   C32   1.387758 A    
C29   C30   1.393057 A    
N19   O11   1.300268 A    
C8    H7    1.071238 S    
N4    Ni4   1.872732 S    
C61   H35   1.097873 S    
C64   C65   1.551558 S    
