data_mof_unit_4315.cif
_audit_creation_date              2012-10-26T20:22:06-0400
_audit_creation_method            fapswitch 2.2
_symmetry_space_group_name_H-M    P1
_symmetry_Int_Tables_number       1
_space_group_crystal_system       triclinic
_cell_length_a                    10.831352
_cell_length_b                    9.669912
_cell_length_c                    10.650068
_cell_angle_alpha                 89.888098
_cell_angle_beta                  92.910909
_cell_angle_gamma                 89.751691
_cell_volume                      1114.01679045

loop_
_atom_site_label
_atom_site_type_symbol
_atom_type_description
_atom_site_fract_x
_atom_site_fract_y
_atom_site_fract_z
_atom_type_partial_charge
C1    C     C_R   0.871479 0.499594 0.497804 0.013259
C2    C     C_3   0.385749 0.519778 0.037181 -0.022282
C3    C     C_3   0.456086 0.624094 0.956990 -0.080523
C4    C     C_3   0.543918 0.375908 0.043010 -0.080535
C5    C     C_3   0.497989 0.501250 0.876569 0.048130
C6    C     C_3   0.502014 0.498752 0.123431 0.048124
C7    C     C_R   0.431544 0.074832 0.410800 0.132007
C8    C     C_R   0.568459 0.925168 0.589197 0.132022
C9    C     C_R   0.568041 0.073022 0.589685 0.125620
C10   C     C_R   0.431957 0.926978 0.410316 0.125621
C11   C     C_R   0.064987 0.375261 0.511781 -0.134762
C12   C     C_R   0.128521 0.500404 0.502196 0.013262
C13   C     C_R   0.935013 0.624736 0.488217 -0.134780
C14   C     C_R   0.937192 0.374709 0.507974 -0.124380
C15   C     C_R   0.062808 0.625289 0.492029 -0.124390
C16   C     C_2   0.353246 0.147784 0.314249 0.639132
C17   C     C_2   0.646778 0.852217 0.685732 0.639127
C18   C     C_2   0.641312 0.142508 0.691440 0.622332
C19   C     C_2   0.358668 0.857490 0.308575 0.622342
C20   C     C_3   0.661332 0.712174 0.095979 -0.346701
C21   C     C_3   0.338668 0.287831 0.904023 -0.346716
C22   C     C_3   0.745401 0.464765 0.919300 -0.397481
C23   C     C_R   0.262567 0.500211 0.501042 0.547589
C24   C     C_3   0.254603 0.535254 0.080699 -0.397489
C25   C     C_R   0.737433 0.499788 0.498958 0.547593
C26   C     C_R   0.501324 0.499834 0.260028 0.550855
C27   C     C_R   0.498677 0.500166 0.739972 0.550873
C28   C     C_3   0.573077 0.601207 0.044357 0.015019
C29   C     C_3   0.426926 0.398796 0.955643 0.015009
C30   C     C_3   0.614255 0.480225 0.962819 -0.022283
Cu1   Cu    Cu3+1 0.500000 0.640660 0.500000 1.019510
Cu2   Cu    Cu3+1 0.500000 0.359340 0.500000 1.019521
H1    H     H_    0.419370 0.724666 0.920848 0.166983
H2    H     H_    0.331329 0.834064 0.120818 0.325945
H3    H     H_    0.704621 0.765804 0.017442 0.175457
H4    H     H_    0.611412 0.789047 0.151291 0.205895
H5    H     H_    0.734923 0.663348 0.157652 0.113443
H6    H     H_    0.295400 0.234180 0.982562 0.175459
H7    H     H_    0.265062 0.336663 0.842372 0.113448
H8    H     H_    0.388582 0.210972 0.848689 0.205896
H9    H     H_    0.809660 0.441758 0.001207 0.125632
H10   H     H_    0.750098 0.380656 0.849695 0.176938
H11   H     H_    0.773882 0.562270 0.874236 0.144102
H12   H     H_    0.580635 0.275337 0.079152 0.166980
H13   H     H_    0.190370 0.558486 0.998812 0.125640
H14   H     H_    0.226039 0.437664 0.125586 0.144037
H15   H     H_    0.249966 0.619227 0.150462 0.176987
H16   H     H_    0.113560 0.277658 0.522729 0.186930
H17   H     H_    0.886440 0.722338 0.477264 0.186937
H18   H     H_    0.890511 0.276457 0.513025 0.191345
H19   H     H_    0.109488 0.723541 0.486982 0.191358
H20   H     H_    0.185836 0.227454 0.263786 0.320187
H21   H     H_    0.814222 0.772623 0.736179 0.320196
H22   H     H_    0.668630 0.165894 0.879205 0.325938
N1    N     N_R   0.500000 0.852070 0.500000 -0.312568
N2    N     N_R   0.500000 0.147930 0.500000 -0.312566
O1    O     O_R   0.319640 0.618740 0.499990 -0.480315
O2    O     O_R   0.231750 0.182727 0.338705 -0.708759
O3    O     O_2   0.609023 0.835377 0.790793 -0.522760
O4    O     O_R   0.768289 0.817343 0.661270 -0.708797
O5    O     O_2   0.740447 0.194699 0.670495 -0.541072
O6    O     O_R   0.604160 0.131398 0.814746 -0.699567
O7    O     O_2   0.259528 0.805330 0.329531 -0.541110
O8    O     O_R   0.395811 0.868562 0.185265 -0.699549
O9    O     O_R   0.680360 0.381260 0.500010 -0.480298
O10   O     O_R   0.680360 0.618740 0.500010 -0.490949
O11   O     O_R   0.319640 0.381260 0.499990 -0.490920
O12   O     O_R   0.499970 0.618770 0.316850 -0.498326
O13   O     O_R   0.500030 0.381230 0.683150 -0.498322
O14   O     O_R   0.500030 0.618770 0.683150 -0.485850
O15   O     O_R   0.499970 0.381230 0.316850 -0.485858
O16   O     O_2   0.391006 0.164576 0.209185 -0.522773

loop_
_geom_bond_atom_site_label_1
_geom_bond_atom_site_label_2
_ccdc_geom_bond_type
C8    C9    A    
C7    C10   A    
C11   C12   A    
C18   O5    D    
C21   C29   S    
Cu2   O13   S    
C26   O15   A    
C22   C30   S    
C15   H19   S    
Cu1   O10   S    
C20   C28   S    
C27   O13   A    
C19   O8    S    
C2    C24   S    
C4    C29   S    
C21   H7    S    
C12   C15   A    
C10   C19   S    
C24   H14   S    
Cu1   O1    S    
C28   C30   S    
C2    C3    S    
C6    C26   S    
C26   O12   A    
C9    N2    A    
C22   H10   S    
C8    C17   S    
C1    C25   S    
C20   H5    S    
C27   O14   A    
C12   C23   S    
C11   H16   S    
C14   H18   S    
C21   H8    S    
H20   O2    S    
C7    N2    A    
C17   O3    D    
C2    C29   S    
C13   H17   S    
C24   H13   S    
C8    N1    A    
H2    O8    S    
C7    C16   S    
H21   O4    S    
C5    C30   S    
Cu2   O15   S    
C5    C29   S    
Cu2   O11   S    
C13   C15   A    
C10   N1    A    
Cu1   O12   S    
C11   C14   A    
C4    C30   S    
C22   H9    S    
C1    C13   A    
C3    H1    S    
C17   O4    S    
C24   H15   S    
C25   O10   A    
C20   H4    S    
C9    C18   S    
C25   O9    A    
C18   O6    S    
Cu1   Cu2   S    
C4    C6    S    
C23   O11   A    
C23   O1    A    
C3    C28   S    
C16   O2    S    
C1    C14   A    
C4    H12   S    
Cu1   N1    S    
C5    C27   S    
C20   H3    S    
H22   O6    S    
Cu2   N2    S    
Cu1   O14   S    
C6    C28   S    
C21   H6    S    
C2    C6    S    
C19   O7    D    
Cu2   O9    S    
C3    C5    S    
C22   H11   S    
C16   O16   D    
