data_mof_unit_92.cif
_audit_creation_date              2012-12-10T17:48:49-0500
_audit_creation_method            fapswitch 2.2
_symmetry_space_group_name_H-M    P1
_symmetry_Int_Tables_number       1
_space_group_crystal_system       triclinic
_cell_length_a                    10.734594
_cell_length_b                    14.747601
_cell_length_c                    14.49827
_cell_angle_alpha                 64.803496
_cell_angle_beta                  104.504557
_cell_angle_gamma                 103.301086
_cell_volume                      1990.5755191

loop_
_atom_site_label
_atom_site_type_symbol
_atom_type_description
_atom_site_fract_x
_atom_site_fract_y
_atom_site_fract_z
_atom_type_partial_charge
C1    C     C_R   0.477428 0.119826 0.309966 0.812031
C2    C     C_3   0.877243 0.000066 0.497300 -0.001413
C3    C     C_3   0.960093 0.988649 0.605210 -0.587797
C4    C     C_3   0.932506 0.102849 0.416118 0.295048
C5    C     C_R   0.454464 0.187761 0.197423 -0.117975
C6    C     C_R   0.539092 0.813056 0.799557 -0.210343
C7    C     C_R   0.364711 0.226322 0.012881 0.072429
C8    C     C_R   0.401814 0.153536 0.114870 0.073293
C9    C     C_R   0.480871 0.291750 0.174603 -0.276059
C10   C     C_R   0.444639 0.364619 0.075946 0.054870
C11   C     C_R   0.394483 0.331591 0.993277 0.119485
C12   C     C_R   0.259870 0.000173 0.499464 0.780986
C13   C     C_R   0.467526 0.470687 0.055934 -0.043826
C14   C     C_R   0.455434 0.541775 0.951781 0.048605
C15   C     C_R   0.420830 0.506711 0.871654 -0.186649
C16   C     C_R   0.385417 0.404913 0.891412 -0.234014
C17   C     C_R   0.508335 0.510217 0.134873 0.377904
C18   C     C_R   0.573690 0.608835 0.111055 -0.179626
C19   C     C_R   0.573373 0.677243 0.007568 -0.082082
C20   C     C_R   0.492159 0.646625 0.929730 0.033317
C21   C     C_R   0.649786 0.774772 0.979339 0.085836
C22   C     C_R   0.644213 0.835419 0.871944 0.367682
C23   C     C_R   0.523305 0.880404 0.688823 0.786496
C24   C     C_R   0.452870 0.722501 0.832457 0.002513
C25   C     C_R   0.752112 0.315470 0.620942 -0.271772
C26   C     C_R   0.705406 0.221272 0.617210 0.583220
C27   C     C_R   0.506407 0.278666 0.514998 0.003912
C28   C     C_R   0.544600 0.373925 0.525492 0.018882
C29   C     C_R   0.674457 0.392115 0.573935 0.053435
C30   C     C_R   0.464124 0.453497 0.486600 0.095586
C31   C     C_R   0.521233 0.549498 0.493404 0.024330
C32   C     C_R   0.655969 0.566262 0.527209 -0.200023
C33   C     C_R   0.729349 0.487974 0.571553 -0.183305
C34   C     C_R   0.739911 0.000079 0.499366 0.850348
C35   C     C_R   0.329839 0.441833 0.443253 0.353771
C36   C     C_R   0.262937 0.526353 0.395716 -0.202209
C37   C     C_R   0.318277 0.619084 0.403417 0.030705
C38   C     C_R   0.443863 0.628433 0.461538 -0.214883
C39   C     C_R   0.246586 0.701046 0.357775 0.320500
C40   C     C_R   0.299322 0.789820 0.375217 -0.163992
C41   C     C_R   0.484641 0.716317 0.486618 0.559746
C42   C     C_3   0.035387 0.909635 0.474874 -0.384309
C43   C     C_3   0.892232 0.907806 0.475906 0.250349
C44   C     C_3   0.104493 0.992590 0.603852 -0.493541
C45   C     C_3   0.075538 0.101098 0.411675 0.192197
C46   C     C_3   0.121534 0.000937 0.497163 0.016752
Cu1   Cu    Cu3+1 0.465900 0.918260 0.475680 0.973841
Cu2   Cu    Cu3+1 0.534100 0.081740 0.524320 0.949845
H1    H     H_    0.067912 0.837394 0.534466 0.135612
H2    H     H_    0.935162 0.162931 0.444197 0.116347
H3    H     H_    0.162029 0.059000 0.619871 0.209310
H4    H     H_    0.950296 0.050090 0.627098 0.239647
H5    H     H_    0.360914 0.385153 0.824757 0.151853
H6    H     H_    0.618264 0.631983 0.174690 0.166462
H7    H     H_    0.536662 0.315467 0.235329 0.223189
H8    H     H_    0.046239 0.913656 0.398741 0.221119
H9    H     H_    0.429124 0.557086 0.792786 0.145491
H10   H     H_    0.831466 0.503413 0.602001 0.140244
H11   H     H_    0.245360 0.853323 0.341338 0.142590
H12   H     H_    0.163231 0.517389 0.357135 0.191623
H13   H     H_    0.850305 0.328605 0.660691 0.160587
H14   H     H_    0.419161 0.263938 0.465052 0.217097
H15   H     H_    0.707485 0.640549 0.519341 0.176568
H16   H     H_    0.860468 0.836787 0.540453 0.123987
H17   H     H_    0.141860 0.923893 0.666706 0.192105
H18   H     H_    0.925611 0.915636 0.665611 0.189846
H19   H     H_    0.137003 0.166667 0.427851 0.106180
N1    N     N_R   0.585360 0.204570 0.560800 -0.252824
N2    N     N_R   0.414550 0.795430 0.439160 -0.189006
O1    O     O_R   0.455060 0.022100 0.338110 -0.580717
O2    O     O_R   0.512640 0.160150 0.379180 -0.575079
O3    O     O_R   0.288900 0.930980 0.479450 -0.594484
O4    O     O_R   0.346480 0.069030 0.520520 -0.600719
O5    O     O_R   0.487360 0.839850 0.620820 -0.535481
O6    O     O_R   0.544940 0.977900 0.661890 -0.592616
O7    O     O_R   0.653520 0.930970 0.479480 -0.500459
O8    O     O_R   0.711100 0.069020 0.520550 -0.588934
C47   C     C_3   0.313309 0.714678 0.772709 -0.360282
C48   C     C_3   0.210850 0.679855 0.842982 -0.343080
C49   C     C_3   0.073042 0.673625 0.781813 -0.861813
H20   H     H_    0.053679 0.748996 0.721716 0.243067
H21   H     H_    0.059177 0.619416 0.744210 0.253458
H22   H     H_    0.001802 0.647014 0.834990 0.254925
H23   H     H_    0.223360 0.603822 0.904687 0.236097
H24   H     H_    0.222216 0.733989 0.880361 0.222402
H25   H     H_    0.292673 0.789895 0.712551 0.189041
H26   H     H_    0.298084 0.664961 0.730258 0.197313
O9    O     O_3   0.743270 0.912747 0.838680 -0.761245
H27   H     H_    0.758724 0.914917 0.773143 0.307763
C50   C     C_3   0.287637 0.192931 0.925658 -0.415802
C51   C     C_3   0.377495 0.176780 0.867929 -0.351762
C52   C     C_3   0.299998 0.150631 0.776588 -0.817522
H28   H     H_    0.230746 0.080010 0.803910 0.253988
H29   H     H_    0.245314 0.213298 0.720039 0.265286
H30   H     H_    0.367391 0.138932 0.736923 0.249443
H31   H     H_    0.447601 0.246364 0.838580 0.221899
H32   H     H_    0.434564 0.114571 0.920905 0.223987
H33   H     H_    0.215951 0.124604 0.954756 0.192435
H34   H     H_    0.222863 0.248982 0.870212 0.198411
C53   C     C_3   0.392657 0.042044 0.133543 -0.402550
C54   C     C_3   0.528033 0.010519 0.157104 -0.289790
C55   C     C_3   0.517364 0.899284 0.175535 -0.817138
H35   H     H_    0.450762 0.851135 0.230663 0.261599
H36   H     H_    0.480848 0.888827 0.101429 0.241403
H37   H     H_    0.613876 0.873671 0.209496 0.245293
H38   H     H_    0.579637 0.057579 0.090757 0.203970
H39   H     H_    0.588992 0.022760 0.225907 0.263507
H40   H     H_    0.334354 0.993322 0.194751 0.208622
H41   H     H_    0.338874 0.023516 0.066985 0.195144
O10   O     O_3   0.481293 0.458278 0.233810 -0.744579
H42   H     H_    0.397985 0.412817 0.229811 0.326107
C56   C     C_3   0.741848 0.805570 0.064362 -0.398334
C57   C     C_3   0.818698 0.913116 0.031818 -0.261787
C58   C     C_3   0.888256 0.938732 0.125271 -0.875676
H43   H     H_    0.817165 0.942988 0.166538 0.277077
H44   H     H_    0.951200 0.881007 0.179542 0.245812
H45   H     H_    0.950032 0.013506 0.098913 0.259527
H46   H     H_    0.894642 0.918793 0.989027 0.263647
H47   H     H_    0.751850 0.969821 0.982327 0.252903
H48   H     H_    0.682028 0.799081 0.119660 0.186755
H49   H     H_    0.812316 0.750366 0.106469 0.205651
O11   O     O_3   0.584600 0.720217 0.566160 -0.724286
H50   H     H_    0.581209 0.651842 0.622617 0.297247
O12   O     O_3   0.787374 0.149361 0.667160 -0.748060
H51   H     H_    0.733555 0.083150 0.682183 0.374962
O13   O     O_3   0.814954 0.907271 0.382101 -0.737914
H52   H     H_    0.807825 0.838108 0.384163 0.318448
O14   O     O_3   0.262563 0.347802 0.450965 -0.794409
H53   H     H_    0.170114 0.353360 0.418524 0.321422
O15   O     O_3   0.125807 0.692716 0.297532 -0.742178
H54   H     H_    0.089263 0.756627 0.272349 0.310185
O16   O     O_3   0.087142 0.110603 0.313192 -0.719360
H55   H     H_    0.178739 0.138865 0.304374 0.311812
O17   O     O_3   0.851418 0.131060 0.318267 -0.708658
H56   H     H_    0.853418 0.084133 0.286359 0.401981

loop_
_geom_bond_atom_site_label_1
_geom_bond_atom_site_label_2
_ccdc_geom_bond_type
C47   H26   S    
C54   H39   S    
O13   H52   S    
C19   C20   A    
O14   H53   S    
C58   H43   S    
C7    C8    A    
C45   C46   S    
C7    C11   A    
C33   H10   S    
C30   C35   A    
C1    C5    S    
C41   N2    A    
C36   C37   A    
C19   C21   A    
Cu1   O7    S    
C34   O8    A    
C48   H23   S    
C15   C16   A    
C6    C22   A    
C29   C33   A    
C55   H37   S    
C18   C19   A    
C42   C46   S    
C20   C24   A    
C16   H5    S    
Cu1   N2    S    
C27   N1    A    
C42   H8    S    
C51   H31   S    
C57   H47   S    
Cu1   Cu2   S    
O16   H55   S    
C45   H19   S    
C9    H7    S    
C22   O9    S    
C9    C10   A    
C51   C52   S    
C57   H46   S    
C47   H25   S    
C12   O3    A    
C53   H41   S    
C40   H11   S    
C21   C22   A    
C17   O10   S    
C15   H9    S    
Cu2   O6    S    
C44   H17   S    
C35   O14   S    
C26   O12   S    
C49   H22   S    
C43   O13   S    
C12   O4    A    
C56   C57   S    
C44   C46   S    
C43   H16   S    
C4    C45   S    
C25   C29   A    
C3    C44   S    
C53   H40   S    
C40   N2    A    
C54   C55   S    
C14   C20   A    
C32   H15   S    
C38   C41   A    
C12   C46   S    
C39   C40   A    
C56   H48   S    
C47   C48   S    
C52   H28   S    
C25   C26   A    
C7    C50   S    
C52   H30   S    
Cu2   N1    S    
O10   H42   S    
C4    H2    S    
C35   C36   A    
C41   O11   S    
C2    C4    S    
Cu1   O1    S    
C5    C9    A    
C37   C38   A    
C27   H14   S    
C11   C16   A    
C31   C32   A    
C2    C43   S    
C6    C24   A    
Cu2   O8    S    
C52   H29   S    
C17   C18   A    
C25   H13   S    
C51   H32   S    
C55   H36   S    
C44   H3    S    
C24   C47   S    
C3    H18   S    
C42   C43   S    
C23   O5    A    
C50   H34   S    
C48   H24   S    
C21   C56   S    
C4    O17   S    
C57   C58   S    
C54   H38   S    
C28   C29   A    
Cu2   O4    S    
Cu1   O5    S    
C23   O6    A    
C49   H20   S    
C36   H12   S    
C10   C13   A    
C5    C8    A    
C58   H44   S    
C3    H4    S    
O17   H56   S    
C39   O15   S    
C1    O1    A    
C31   C38   A    
C13   C17   A    
C26   N1    A    
C32   C33   A    
C28   C30   A    
O15   H54   S    
C8    C53   S    
C56   H49   S    
C37   C39   A    
C2    C34   S    
C50   C51   S    
C30   C31   A    
C1    O2    A    
C6    C23   S    
C53   C54   S    
C49   H21   S    
C2    C3    S    
C55   H35   S    
Cu1   O3    S    
C58   H45   S    
C10   C11   A    
C18   H6    S    
C42   H1    S    
C48   C49   S    
O9    H27   S    
C45   O16   S    
C27   C28   A    
C14   C15   A    
Cu2   O2    S    
O11   H50   S    
C13   C14   A    
C50   H33   S    
C34   O7    A    
O12   H51   S    
