data_mof_unit_1395.cif
_audit_creation_date              2012-12-10T20:36:36-0500
_audit_creation_method            fapswitch 2.2
_symmetry_space_group_name_H-M    P1
_symmetry_Int_Tables_number       1
_space_group_crystal_system       triclinic
_cell_length_a                    10.519462
_cell_length_b                    10.668128
_cell_length_c                    9.885862
_cell_angle_alpha                 89.724063
_cell_angle_beta                  89.087168
_cell_angle_gamma                 89.795793
_cell_volume                      1109.2603576

loop_
_atom_site_label
_atom_site_type_symbol
_atom_type_description
_atom_site_fract_x
_atom_site_fract_y
_atom_site_fract_z
_atom_type_partial_charge
C1    C     C_R   0.494641 0.259983 0.500446 0.882963
C2    C     C_3   0.962632 0.491461 0.369292 -0.215395
C3    C     C_3   0.044794 0.395669 0.445508 0.621013
C4    C     C_3   0.122630 0.502708 0.502130 -0.104911
C5    C     C_R   0.463612 0.063141 0.623699 0.094018
C6    C     C_R   0.470810 0.128827 0.501458 -0.113381
C7    C     C_R   0.451490 0.065682 0.379194 -0.160270
C8    C     C_R   0.452466 0.936047 0.378498 -0.194800
C9    C     C_R   0.473040 0.871340 0.499976 -0.113890
C10   C     C_R   0.466384 0.935074 0.622302 0.152150
C11   C     C_3   0.549590 0.926472 0.743169 -0.493613
C12   C     C_R   0.257446 0.501532 0.500887 0.938645
C13   C     C_3   0.545569 0.068889 0.746114 -0.233510
C14   C     C_R   0.400695 0.449495 0.073248 0.027899
C15   C     C_R   0.602896 0.539767 0.069904 -0.080425
C16   C     C_R   0.602856 0.539894 0.926152 -0.080513
C17   C     C_R   0.400786 0.449436 0.930876 0.030364
C18   C     C_3   0.265495 0.490950 0.927668 0.404259
C19   C     C_3   0.265378 0.491405 0.081109 0.410874
C20   C     C_R   0.495565 0.740028 0.499746 0.875467
C21   C     C_R   0.742493 0.499300 0.498895 0.894385
C22   C     C_3   0.037168 0.510652 0.628880 -0.223327
C23   C     C_3   0.958368 0.403269 0.570684 -0.090099
C24   C     C_3   0.877303 0.499198 0.496596 -0.110998
C25   C     C_3   0.954507 0.607845 0.553402 -0.155998
C26   C     C_3   0.042576 0.600029 0.426742 -0.181054
H1    H     H_    0.645645 0.888462 0.717959 0.191108
H2    H     H_    0.638940 0.114380 0.727148 0.178774
H3    H     H_    0.684802 0.574948 0.122255 0.137378
H4    H     H_    0.684716 0.575334 0.870797 0.140199
H5    H     H_    0.202120 0.419209 0.883931 -0.001654
H6    H     H_    0.201151 0.420851 0.128806 0.059576
H7    H     H_    0.067002 0.519900 0.735037 0.209135
H8    H     H_    0.913041 0.694832 0.597106 0.158896
H9    H     H_    0.081736 0.680879 0.368739 0.204957
H10   H     H_    0.929186 0.482631 0.263813 0.165940
H11   H     H_    0.445723 0.115206 0.283516 0.189771
H12   H     H_    0.446993 0.887838 0.282563 0.200600
H13   H     H_    0.500706 0.879114 0.829964 0.237094
N1    N     N_R   0.499140 0.499140 0.142800 -0.070269
N2    N     N_R   0.499140 0.499180 0.857150 -0.069793
O1    O     O_R   0.500020 0.316790 0.614690 -0.629715
O2    O     O_R   0.500000 0.316760 0.385350 -0.620744
O3    O     O_R   0.313960 0.499990 0.614650 -0.593577
O4    O     O_R   0.313940 0.499950 0.385310 -0.575818
O5    O     O_R   0.500000 0.683240 0.614650 -0.596011
O6    O     O_R   0.499980 0.683210 0.385310 -0.606099
O7    O     O_R   0.686060 0.500050 0.614690 -0.634681
O8    O     O_R   0.686040 0.500010 0.385350 -0.634381
Zn1   Zn    Zn3+2 0.500010 0.500020 0.653130 1.000558
Zn2   Zn    Zn3+2 0.499990 0.499980 0.346870 1.009229
C27   C     C_1   0.912072 0.294803 0.648475 0.218448
N3    N     N_1   0.876110 0.209195 0.710077 -0.215175
C28   C     C_1   0.475857 0.117568 0.864962 0.270717
N4    N     N_1   0.420926 0.154789 0.958893 -0.236102
F1    F     F_    0.252811 0.609967 0.872553 -0.596543
F2    F     F_    0.252840 0.610789 0.134467 -0.598528
F3    F     F_    0.095872 0.286878 0.391462 -0.673145

loop_
_geom_bond_atom_site_label_1
_geom_bond_atom_site_label_2
_ccdc_geom_bond_type
C4    C26   S    
C23   C24   S    
C13   H2    S    
C6    C7    A    
C12   O4    A    
C18   F1    S    
C4    C12   S    
N1    Zn2   S    
C4    C22   S    
C9    C10   A    
O5    Zn1   S    
C9    C20   S    
C5    C13   S    
C11   H1    S    
C25   H8    S    
C21   O7    A    
C21   O8    A    
C17   C18   S    
C7    H11   S    
C24   C25   S    
C7    C8    A    
C2    C26   S    
C19   F2    S    
C11   H13   S    
C11   C13   S    
C14   C17   A    
O2    Zn2   S    
C23   C27   S    
C8    H12   S    
O1    Zn1   S    
C19   H6    S    
C14   C19   S    
O7    Zn1   S    
C14   N1    A    
C15   H3    S    
C2    C3    S    
C2    C24   S    
C5    C6    A    
C17   N2    A    
C15   N1    A    
C20   O6    A    
C10   C11   S    
O4    Zn2   S    
C16   H4    S    
C15   C16   A    
C3    F3    S    
C20   O5    A    
N2    Zn1   S    
C5    C10   A    
C1    O1    A    
C27   N3    T    
C12   O3    A    
C13   C28   S    
C21   C24   S    
C2    H10   S    
C26   H9    S    
C22   H7    S    
C22   C23   S    
C18   C19   S    
O3    Zn1   S    
C18   H5    S    
C25   C26   S    
C28   N4    T    
C3    C23   S    
C16   N2    A    
C1    O2    A    
O6    Zn2   S    
C3    C4    S    
C1    C6    S    
C8    C9    A    
O8    Zn2   S    
C22   C25   S    
