data_mof_unit_2458.cif
_audit_creation_date              2012-12-10T17:00:04-0500
_audit_creation_method            fapswitch 2.2
_symmetry_space_group_name_H-M    P1
_symmetry_Int_Tables_number       1
_space_group_crystal_system       triclinic
_cell_length_a                    23.503906
_cell_length_b                    10.916651
_cell_length_c                    9.719159
_cell_angle_alpha                 90.123034
_cell_angle_beta                  90.769723
_cell_angle_gamma                 90.678481
_cell_volume                      2493.37360364

loop_
_atom_site_label
_atom_site_type_symbol
_atom_type_description
_atom_site_fract_x
_atom_site_fract_y
_atom_site_fract_z
_atom_type_partial_charge
C1    C     C_R   0.499244 0.265393 0.499939 0.860394
C2    C     C_R   0.969443 0.301296 0.398347 -0.125325
C3    C     C_R   0.028512 0.302986 0.394871 -0.110883
C4    C     C_R   0.059376 0.406772 0.439556 0.007512
C5    C     C_R   0.030343 0.511612 0.485428 -0.067067
C6    C     C_R   0.061365 0.616422 0.530327 -0.219773
C7    C     C_R   0.031490 0.726288 0.559686 0.407164
C8    C     C_R   0.971435 0.723375 0.563957 0.330848
C9    C     C_R   0.118884 0.408089 0.438825 0.565470
C10   C     C_R   0.121179 0.605618 0.544218 0.631422
C11   C     C_R   0.239961 0.600285 0.428576 -0.137508
C12   C     C_R   0.391317 0.503422 0.499188 0.905396
C13   C     C_R   0.299489 0.604210 0.432385 0.402705
C14   C     C_R   0.329165 0.507649 0.497035 -0.138466
C15   C     C_R   0.298906 0.413091 0.561782 -0.223654
C16   C     C_R   0.239641 0.412195 0.560424 -0.051243
C17   C     C_R   0.209818 0.505191 0.492724 0.237349
C18   C     C_R   0.760597 0.500822 0.376993 -0.106525
C19   C     C_R   0.701346 0.500871 0.376878 -0.208202
C20   C     C_R   0.671754 0.499018 0.501640 -0.034836
C21   C     C_R   0.702653 0.496464 0.626494 -0.212272
C22   C     C_R   0.762042 0.496293 0.626292 -0.086596
C23   C     C_R   0.501180 0.734599 0.500207 0.891389
C24   C     C_R   0.791176 0.498733 0.501500 0.342590
C25   C     C_2   0.499113 0.932733 0.386960 -0.120077
C26   C     C_2   0.504391 0.866786 0.502457 -0.255109
C27   C     C_2   0.501584 0.066827 0.386886 -0.108383
C28   C     C_2   0.496119 0.133251 0.501867 -0.277927
C29   C     C_2   0.479102 0.412506 0.921792 -0.125810
C30   C     C_2   0.467019 0.429845 0.071788 0.480730
C31   C     C_R   0.609058 0.499781 0.500691 0.777136
C32   C     C_R   0.880672 0.604829 0.543712 0.577116
C33   C     C_R   0.880440 0.402036 0.451466 0.546220
C34   C     C_R   0.939902 0.403789 0.445323 0.012830
C35   C     C_R   0.970258 0.510306 0.487187 -0.057926
C36   C     C_R   0.940586 0.614002 0.532679 -0.180206
Cu1   Cu    Cu3+1 0.500010 0.500020 0.638630 0.985697
Cu2   Cu    Cu3+1 0.499990 0.499980 0.361370 1.036947
H1    H     H_    0.947045 0.218985 0.364846 0.202894
H2    H     H_    0.678802 0.502867 0.279018 0.160296
H3    H     H_    0.681026 0.494787 0.724159 0.162351
H4    H     H_    0.785463 0.494557 0.722959 0.151274
H5    H     H_    0.493685 0.887624 0.287847 0.163449
H6    H     H_    0.512236 0.908386 0.602148 0.139600
H7    H     H_    0.507222 0.111518 0.288148 0.181567
H8    H     H_    0.488052 0.092031 0.600949 0.154300
H9    H     H_    0.464265 0.329390 0.871110 0.213601
H10   H     H_    0.508560 0.580769 0.895137 0.197131
H11   H     H_    0.049919 0.221872 0.358866 0.216067
H12   H     H_    0.535952 0.533124 0.109801 0.150436
H13   H     H_    0.216480 0.672762 0.378545 0.205687
H14   H     H_    0.321300 0.339599 0.613137 0.185806
H15   H     H_    0.216878 0.339326 0.612326 0.178666
H16   H     H_    0.782879 0.503274 0.280213 0.145929
N1    N     N_R   0.852220 0.501350 0.500406 -0.470639
N2    N     N_R   0.148569 0.505908 0.492184 -0.465342
N3    N     N_2   0.499380 0.498660 0.846910 -0.308299
N4    N     N_2   0.499370 0.498630 0.153040 -0.335967
O1    O     O_R   0.500010 0.321960 0.617040 -0.593049
O2    O     O_2   0.850938 0.301295 0.410388 -0.524174
O3    O     O_2   0.146925 0.312189 0.385503 -0.496375
O4    O     O_2   0.151836 0.690304 0.614893 -0.430130
O5    O     O_R   0.499990 0.321920 0.382900 -0.545638
O6    O     O_R   0.417890 0.499980 0.617100 -0.565193
O7    O     O_R   0.417870 0.499940 0.382950 -0.466164
O8    O     O_R   0.500010 0.678080 0.617100 -0.577390
O9    O     O_R   0.499990 0.678040 0.382960 -0.574778
O10   O     O_R   0.582130 0.500060 0.617050 -0.581471
O11   O     O_R   0.582110 0.500020 0.382900 -0.600142
O12   O     O_2   0.850800 0.697595 0.597784 -0.500173
S1    S     S_3+6 0.401591 0.360406 0.122576 0.053137
O13   O     O_2   0.408109 0.280846 0.247180 -0.280274
O14   O     O_2   0.359016 0.458601 0.150467 -0.225127
O15   O     O_3   0.375509 0.272405 0.993498 -0.558382
H17   H     H_    0.337504 0.244761 0.024554 0.394720
S2    S     S_3+6 0.067113 0.871942 0.572714 0.098261
O16   O     O_2   0.113898 0.879235 0.468870 -0.240998
O17   O     O_2   0.027272 0.976323 0.546475 -0.248223
O18   O     O_3   0.095061 0.887268 0.732108 -0.448149
H18   H     H_    0.117993 0.963924 0.729311 0.386706
O19   O     O_3   0.943608 0.829452 0.596849 -0.604949
H19   H     H_    0.917277 0.846731 0.518859 0.359652
S3    S     S_3+6 0.334824 0.737353 0.371093 0.046841
O20   O     O_2   0.292385 0.831089 0.324571 -0.233102
O21   O     O_2   0.370754 0.790648 0.485895 -0.313958
O22   O     O_3   0.376780 0.702206 0.238417 -0.476094
H20   H     H_    0.397154 0.779467 0.216317 0.364681

loop_
_geom_bond_atom_site_label_1
_geom_bond_atom_site_label_2
_ccdc_geom_bond_type
C33   N1    A    
C19   C20   A    
S2    O18   S    
C25   H5    S    
C30   S1    S    
C3    H11   S    
C26   H6    S    
C7    C8    A    
C24   N1    S    
C28   H8    S    
C29   C30   S    
C29   H9    S    
C18   C24   A    
C32   C36   A    
C23   O8    A    
S2    O17   D    
C18   C19   A    
C1    O1    A    
C5    C6    A    
C12   O6    A    
C15   C16   A    
Cu1   O10   S    
C5    C35   A    
C34   C35   A    
C8    C36   A    
C23   C26   S    
C23   O9    A    
C16   H15   S    
Cu2   N4    S    
C2    H1    S    
C35   C36   A    
C16   C17   A    
C1    C28   S    
C10   N2    A    
C32   N1    A    
C27   H7    S    
Cu2   O11   S    
C21   C22   A    
C10   O4    S    
C1    O5    A    
O19   H19   S    
C31   O10   A    
O15   H17   S    
C8    O19   S    
H12   N4    S    
H10   N3    S    
S2    O16   D    
S1    O14   D    
O22   H20   S    
C32   O12   S    
C25   C26   D    
Cu1   Cu2   S    
C9    O3    S    
S3    O20   D    
Cu2   O7    S    
Cu1   O8    S    
C33   C34   A    
C9    N2    A    
C15   H14   S    
C20   C21   A    
C17   N2    S    
Cu1   O1    S    
C21   H3    S    
S3    O21   D    
C29   N3    D    
C33   O2    S    
C22   C24   A    
C3    C4    A    
Cu1   O6    S    
Cu2   O5    S    
C11   C17   A    
C12   C14   S    
C4    C5    A    
C6    C10   A    
S1    O15   S    
C6    C7    A    
C25   C27   S    
C12   O7    A    
C13   S3    S    
C2    C3    A    
S1    O13   D    
C11   C13   A    
C2    C34   A    
C22   H4    S    
C30   N4    D    
C11   H13   S    
C19   H2    S    
C18   H16   S    
O18   H18   S    
C31   O11   A    
S3    O22   S    
Cu2   O9    S    
C27   C28   D    
C14   C15   A    
C4    C9    A    
C13   C14   A    
Cu1   N3    S    
C20   C31   S    
C7    S2    S    
