data_mof_unit_2596.cif
_audit_creation_date              2012-12-10T18:32:01-0500
_audit_creation_method            fapswitch 2.2
_symmetry_space_group_name_H-M    P1
_symmetry_Int_Tables_number       1
_space_group_crystal_system       triclinic
_cell_length_a                    10.726791
_cell_length_b                    14.940503
_cell_length_c                    15.318112
_cell_angle_alpha                 81.151578
_cell_angle_beta                  90.784558
_cell_angle_gamma                 103.93429
_cell_volume                      2353.63909508

loop_
_atom_site_label
_atom_site_type_symbol
_atom_type_description
_atom_site_fract_x
_atom_site_fract_y
_atom_site_fract_z
_atom_type_partial_charge
C1    C     C_R   0.480055 0.440968 0.663234 0.945767
C2    C     C_R   0.565844 0.441649 0.901701 0.097416
C3    C     C_R   0.519424 0.346745 0.939322 0.043171
C4    C     C_R   0.741681 0.499863 0.501142 0.861503
C5    C     C_R   0.616745 0.509440 0.956539 0.074768
C6    C     C_R   0.607821 0.481553 0.048943 -0.002791
C7    C     C_R   0.591709 0.385353 0.083658 -0.151068
C8    C     C_R   0.541074 0.317554 0.029299 -0.106579
C9    C     C_R   0.668132 0.605273 0.923414 -0.175782
C10   C     C_R   0.690754 0.672121 0.979258 -0.179489
C11   C     C_R   0.653790 0.646409 0.068015 0.143360
C12   C     C_3   0.121651 0.500252 0.499261 -0.049039
C13   C     C_R   0.609488 0.551040 0.103013 0.130817
C14   C     C_R   0.652956 0.715095 0.120517 -0.254375
C15   C     C_R   0.602695 0.690756 0.207205 -0.027670
C16   C     C_R   0.520452 0.559058 0.336687 0.891581
C17   C     C_R   0.553757 0.527682 0.187783 -0.203921
C18   C     C_R   0.718364 0.845616 0.621059 -0.238559
C19   C     C_R   0.669081 0.753491 0.610179 0.048741
C20   C     C_R   0.522110 0.796831 0.504957 -0.008537
C21   C     C_R   0.566214 0.891721 0.513404 -0.017764
C22   C     C_R   0.667070 0.916331 0.573513 0.084344
C23   C     C_3   0.096072 0.580526 0.426989 -0.258408
C24   C     C_R   0.512143 0.962012 0.465421 0.074636
C25   C     C_R   0.549212 0.053579 0.486013 0.091390
C26   C     C_R   0.661209 0.078284 0.534534 -0.249344
C27   C     C_R   0.717749 0.011183 0.580934 -0.020175
C28   C     C_R   0.258286 0.500184 0.498454 0.848141
C29   C     C_R   0.424055 0.945047 0.396855 -0.247380
C30   C     C_R   0.368823 0.014781 0.354460 -0.120922
C31   C     C_R   0.392179 0.101195 0.383441 0.158474
C32   C     C_R   0.476910 0.119473 0.453553 -0.061160
C33   C     C_R   0.330436 0.169119 0.344209 -0.189082
C34   C     C_3   0.079220 0.512504 0.593419 -0.244435
C35   C     C_R   0.352670 0.254038 0.375386 0.034188
C36   C     C_R   0.481403 0.201532 0.490559 0.020988
C37   C     C_3   0.897605 0.407306 0.474761 -0.357243
C38   C     C_3   0.039608 0.407038 0.474306 -0.379744
C39   C     C_3   0.954100 0.585190 0.433477 -0.237777
C40   C     C_3   0.932636 0.505521 0.596121 -0.267199
C41   C     C_3   0.878484 0.500589 0.500702 -0.047641
C42   C     C_2   0.181953 0.677347 0.427059 0.931636
C43   C     C_2   0.514065 0.216585 0.065076 0.957430
C44   C     C_2   0.598962 0.767803 0.256211 0.966930
C45   C     C_R   0.481662 0.404647 0.758585 -0.153487
C46   C     C_2   0.328607 0.244481 0.753282 0.980358
C47   C     C_2   0.649052 0.358061 0.170066 0.919544
C48   C     C_2   0.827050 0.043807 0.638034 0.926958
C49   C     C_2   0.520322 0.206446 0.583057 0.929568
C50   C     C_2   0.898204 0.596193 0.342141 0.883133
C51   C     C_2   0.904691 0.581066 0.643158 0.926357
C52   C     C_2   0.116079 0.445815 0.668779 0.924481
C53   C     C_R   0.554558 0.594961 0.242277 -0.134396
C54   C     C_R   0.448957 0.283335 0.886755 -0.160364
C55   C     C_R   0.423642 0.311824 0.798028 -0.102982
C56   C     C_R   0.549665 0.467459 0.811411 -0.159639
H1    H     H_    0.132076 0.583023 0.605029 0.222203
H2    H     H_    0.710084 0.699241 0.644900 0.147155
H3    H     H_    0.054773 0.345650 0.520331 0.257595
H4    H     H_    0.705962 0.150821 0.536944 0.171014
H5    H     H_    0.399488 0.879644 0.372237 0.219654
H6    H     H_    0.267782 0.157410 0.288874 0.178491
H7    H     H_    0.114508 0.560609 0.361892 0.160308
H8    H     H_    0.857170 0.395498 0.409216 0.236367
H9    H     H_    0.234631 0.790660 0.488548 0.339822
H10   H     H_    0.555042 0.092614 0.060383 0.356772
H11   H     H_    0.505621 0.455904 0.211241 0.167196
H12   H     H_    0.948741 0.649423 0.459670 0.220607
H13   H     H_    0.692270 0.890886 0.290900 0.345804
H14   H     H_    0.727320 0.744925 0.951383 0.165793
H15   H     H_    0.234915 0.110238 0.751305 0.371415
H16   H     H_    0.845889 0.346653 0.522944 0.231796
H17   H     H_    0.633996 0.271456 0.286344 0.342730
H18   H     H_    0.905592 0.031707 0.758389 0.361619
H19   H     H_    0.642992 0.269132 0.668634 0.345170
H20   H     H_    0.448076 0.772422 0.460550 0.178758
H21   H     H_    0.068405 0.397919 0.407250 0.191439
H22   H     H_    0.848854 0.684566 0.242779 0.361523
H23   H     H_    0.406108 0.212140 0.916466 0.197282
H24   H     H_    0.830667 0.611246 0.751594 0.326122
H25   H     H_    0.882894 0.438572 0.637440 0.180056
H26   H     H_    0.220413 0.430980 0.778228 0.348019
H27   H     H_    0.586854 0.538298 0.780711 0.166797
H28   H     H_    0.690622 0.631689 0.854733 0.132124
H29   H     H_    0.687048 0.788219 0.092696 0.181060
H30   H     H_    0.310530 0.308785 0.342695 0.141537
H31   H     H_    0.304009 0.999841 0.300788 0.178604
H32   H     H_    0.798102 0.860150 0.664679 0.193706
N1    N     N_R   0.573860 0.731700 0.552730 -0.107926
N2    N     N_R   0.426060 0.268290 0.447230 -0.136772
O1    O     O_R   0.462770 0.383110 0.605620 -0.565015
O2    O     O_R   0.179530 0.724502 0.498879 -0.768255
O3    O     O_2   0.429013 0.182355 0.121210 -0.595886
O4    O     O_R   0.582959 0.160378 0.031767 -0.771693
O5    O     O_2   0.499546 0.768954 0.293250 -0.611029
O6    O     O_R   0.707223 0.841925 0.255863 -0.772131
O7    O     O_2   0.267178 0.271890 0.691496 -0.574315
O8    O     O_R   0.303507 0.148875 0.785585 -0.755002
O9    O     O_2   0.753460 0.404361 0.188778 -0.555315
O10   O     O_R   0.584665 0.281290 0.230159 -0.782449
O11   O     O_2   0.914799 0.110234 0.608790 -0.595598
O12   O     O_R   0.510160 0.531900 0.639510 -0.615057
O13   O     O_R   0.826688 0.002192 0.726294 -0.793182
O14   O     O_2   0.466445 0.144508 0.641474 -0.594365
O15   O     O_R   0.624311 0.275775 0.603199 -0.808725
O16   O     O_2   0.883992 0.533934 0.297046 -0.577826
O17   O     O_R   0.870578 0.681130 0.307531 -0.766839
O18   O     O_2   0.946134 0.663704 0.613766 -0.591545
O19   O     O_R   0.835797 0.555214 0.723409 -0.815559
O20   O     O_2   0.064993 0.362305 0.678389 -0.566072
O21   O     O_R   0.206268 0.481211 0.729263 -0.790297
O22   O     O_R   0.661510 0.425600 0.483070 -0.577768
O23   O     O_R   0.708900 0.574390 0.516960 -0.620954
O24   O     O_R   0.489840 0.468100 0.360490 -0.629050
O25   O     O_R   0.537230 0.616890 0.394380 -0.578834
O26   O     O_R   0.291100 0.425610 0.483040 -0.611727
O27   O     O_R   0.338490 0.574400 0.516930 -0.605264
O28   O     O_2   0.248727 0.715955 0.361688 -0.600698
Zn1   Zn    Zn3+2 0.468350 0.400660 0.477370 1.010391
Zn2   Zn    Zn3+2 0.531650 0.599340 0.522630 1.017490

loop_
_geom_bond_atom_site_label_1
_geom_bond_atom_site_label_2
_ccdc_geom_bond_type
C27   C48   S    
H17   O10   S    
H9    O2    S    
C39   H12   S    
C8    C43   S    
H13   O6    S    
C49   O14   D    
C7    C8    A    
C39   C41   S    
C46   O8    S    
C12   C23   S    
C26   C27   A    
C29   C30   A    
C23   C42   S    
C12   C28   S    
C34   C40   S    
C15   C53   A    
C15   C44   S    
C33   H6    S    
C28   O27   A    
C30   C31   A    
C3    C54   A    
C4    C41   S    
C43   O4    S    
C47   O9    D    
C20   H20   S    
C18   C19   A    
C16   C53   S    
C28   O26   A    
C33   C35   A    
C24   C29   A    
C45   C56   A    
C51   O18   D    
H24   O19   S    
C34   H1    S    
C31   C33   A    
C9    C10   A    
O24   Zn1   S    
H10   O4    S    
C25   C32   A    
C23   H7    S    
C4    O22   A    
C1    O1    A    
C21   C22   A    
C37   C41   S    
C19   H2    S    
H15   O8    S    
C29   H5    S    
C17   H11   S    
C4    O23   A    
C24   C25   A    
C3    C8    A    
O27   Zn2   S    
C11   C14   A    
C42   O28   D    
C49   O15   S    
C52   O21   S    
C25   C26   A    
C48   O13   S    
C18   H32   S    
C47   O10   S    
H22   O17   S    
C7    C47   S    
C46   C55   S    
C5    C9    A    
C37   C38   S    
C19   N1    A    
O23   Zn2   S    
C31   C32   A    
N1    Zn2   S    
C52   O20   D    
C10   H14   S    
C40   C41   S    
C46   O7    D    
H19   O15   S    
C22   C27   A    
C50   O17   S    
O1    Zn1   S    
C21   C24   A    
C2    C5    A    
C12   C34   S    
C16   O25   A    
C17   C53   A    
C37   H8    S    
O12   Zn2   S    
C56   H27   S    
C54   H23   S    
C36   N2    A    
C54   C55   A    
C44   O6    S    
C18   C22   A    
C40   H25   S    
C14   H29   S    
C16   O24   A    
O22   Zn1   S    
C32   C36   A    
C6    C7    A    
C38   H21   S    
C40   C51   S    
C20   N1    A    
C34   C52   S    
O26   Zn1   S    
C13   C17   A    
N2    Zn1   S    
C2    C3    A    
C44   O5    D    
C2    C56   A    
H26   O21   S    
C6    C13   A    
C11   C13   A    
C1    C45   S    
C5    C6    A    
C23   C39   S    
C48   O11   D    
C1    O12   A    
C43   O3    D    
C42   O2    S    
C12   C38   S    
C10   C11   A    
C9    H28   S    
C38   H3    S    
C35   N2    A    
C39   C50   S    
C20   C21   A    
C45   C55   A    
C51   O19   S    
O25   Zn2   S    
C37   H16   S    
C50   O16   D    
C14   C15   A    
C30   H31   S    
C26   H4    S    
C35   H30   S    
C36   C49   S    
H18   O13   S    
