data_mof_unit_540.cif
_audit_creation_date              2012-12-10T17:48:48-0500
_audit_creation_method            fapswitch 2.2
_symmetry_space_group_name_H-M    P1
_symmetry_Int_Tables_number       1
_space_group_crystal_system       triclinic
_cell_length_a                    10.723409
_cell_length_b                    14.718398
_cell_length_c                    14.707865
_cell_angle_alpha                 65.154767
_cell_angle_beta                  103.765932
_cell_angle_gamma                 102.878779
_cell_volume                      2026.01315499

loop_
_atom_site_label
_atom_site_type_symbol
_atom_type_description
_atom_site_fract_x
_atom_site_fract_y
_atom_site_fract_z
_atom_type_partial_charge
C1    C     C_R   0.484418 0.119510 0.312080 0.820038
C2    C     C_3   0.878739 0.996040 0.505728 0.159602
C3    C     C_3   0.961268 0.992640 0.609035 -0.385565
C4    C     C_3   0.930981 0.093008 0.420432 -0.369391
C5    C     C_R   0.481127 0.186994 0.203531 -0.124727
C6    C     C_R   0.525673 0.812595 0.795490 -0.063019
C7    C     C_R   0.473137 0.219016 0.025751 -0.043422
C8    C     C_R   0.496422 0.154786 0.129254 -0.044946
C9    C     C_R   0.467867 0.288075 0.175118 -0.259378
C10   C     C_R   0.471848 0.358696 0.075230 0.076704
C11   C     C_R   0.462635 0.321652 0.998733 0.094603
C12   C     C_R   0.260414 0.998286 0.503022 0.748079
C13   C     C_R   0.487068 0.464978 0.049835 0.079481
C14   C     C_R   0.478575 0.532368 0.945998 0.065700
C15   C     C_R   0.456269 0.491389 0.871155 -0.225192
C16   C     C_R   0.450201 0.388916 0.897113 -0.214343
C17   C     C_R   0.520631 0.506205 0.125301 -0.184056
C18   C     C_R   0.546299 0.609964 0.099911 -0.225379
C19   C     C_R   0.538556 0.676646 0.998671 0.153927
C20   C     C_R   0.500431 0.638715 0.920707 0.088318
C21   C     C_R   0.571390 0.781158 0.974425 -0.194146
C22   C     C_R   0.566816 0.848724 0.873411 -0.195689
C23   C     C_R   0.519462 0.880441 0.687819 0.786004
C24   C     C_R   0.489173 0.708900 0.819710 -0.253072
C25   C     C_R   0.754155 0.307877 0.626759 -0.327245
C26   C     C_R   0.708773 0.220212 0.607936 0.056562
C27   C     C_R   0.502482 0.273179 0.533913 0.028685
C28   C     C_R   0.546487 0.368860 0.541262 -0.000001
C29   C     C_R   0.673997 0.382757 0.593122 0.171080
C30   C     C_R   0.468509 0.449171 0.502775 0.028964
C31   C     C_R   0.517310 0.538282 0.525832 0.055720
C32   C     C_R   0.643244 0.545786 0.581190 -0.225012
C33   C     C_R   0.720355 0.470276 0.612609 -0.197290
C34   C     C_R   0.740386 0.997769 0.503187 0.755160
C35   C     C_R   0.345933 0.447026 0.439113 0.086169
C36   C     C_R   0.265401 0.517146 0.419291 -0.199168
C37   C     C_R   0.312282 0.603665 0.440019 0.096280
C38   C     C_R   0.440615 0.619214 0.488087 -0.027194
C39   C     C_R   0.236620 0.681320 0.397533 -0.327551
C40   C     C_R   0.295743 0.780438 0.380704 0.227126
C41   C     C_R   0.485319 0.716416 0.493206 -0.001465
C42   C     C_3   0.037608 0.902082 0.489444 -0.371768
C43   C     C_3   0.895085 0.901630 0.490213 -0.376319
C44   C     C_3   0.105763 0.993672 0.608397 -0.378705
C45   C     C_3   0.073765 0.092680 0.419040 -0.372660
C46   C     C_3   0.122550 0.996613 0.505159 0.152353
Cu1   Cu    Cu3+1 0.465900 0.918260 0.475680 0.936871
Cu2   Cu    Cu3+1 0.534100 0.081740 0.524320 0.925809
H1    H     H_    0.071107 0.831728 0.550619 0.173059
H2    H     H_    0.922028 0.161417 0.431600 0.182191
H3    H     H_    0.164367 0.060920 0.621599 0.166669
H4    H     H_    0.951440 0.058842 0.623618 0.162935
H5    H     H_    0.439788 0.363550 0.836090 0.165330
H6    H     H_    0.450940 0.684909 0.757738 0.154568
H7    H     H_    0.595332 0.928733 0.856441 0.154493
H8    H     H_    0.575120 0.638137 0.160233 0.145322
H9    H     H_    0.455493 0.310613 0.232799 0.191643
H10   H     H_    0.045646 0.901506 0.415761 0.162363
H11   H     H_    0.450651 0.536379 0.791135 0.144355
H12   H     H_    0.535328 0.460171 0.205420 0.168505
H13   H     H_    0.603510 0.810436 0.033688 0.136185
H14   H     H_    0.817352 0.480129 0.653713 0.139662
H15   H     H_    0.576734 0.731431 0.537752 0.124442
H16   H     H_    0.170498 0.511488 0.373666 0.169650
H17   H     H_    0.852165 0.317630 0.666237 0.136461
H18   H     H_    0.772555 0.164034 0.632230 0.125610
H19   H     H_    0.402360 0.250690 0.510188 0.159868
H20   H     H_    0.836240 0.900105 0.417568 0.184931
H21   H     H_    0.685488 0.610031 0.600954 0.128022
H22   H     H_    0.139542 0.668865 0.357261 0.146061
H23   H     H_    0.859978 0.831419 0.552281 0.157890
H24   H     H_    0.141309 0.925277 0.671584 0.150636
H25   H     H_    0.926385 0.923293 0.671937 0.149653
H26   H     H_    0.132872 0.161220 0.428916 0.204330
H27   H     H_    0.084022 0.095970 0.344091 0.148797
H28   H     H_    0.873106 0.097833 0.346139 0.151420
N1    N     N_R   0.585360 0.204570 0.560800 -0.184047
N2    N     N_R   0.414550 0.795430 0.439160 -0.188129
O1    O     O_R   0.455060 0.022100 0.338110 -0.571090
O2    O     O_R   0.512640 0.160150 0.379180 -0.560370
O3    O     O_R   0.288900 0.930980 0.479450 -0.606139
O4    O     O_R   0.346480 0.069030 0.520520 -0.589180
O5    O     O_R   0.487360 0.839850 0.620820 -0.587110
O6    O     O_R   0.544940 0.977900 0.661890 -0.598693
O7    O     O_R   0.653520 0.930970 0.479480 -0.585936
O8    O     O_R   0.711100 0.069020 0.520550 -0.597674
C47   C     C_R   0.466086 0.179586 0.946661 0.096026
C48   C     C_R   0.579299 0.176704 0.916408 -0.129409
C49   C     C_R   0.570928 0.139498 0.841602 -0.130364
C50   C     C_R   0.449777 0.105710 0.796378 -0.117294
C51   C     C_R   0.336852 0.108545 0.826252 -0.152771
C52   C     C_R   0.344821 0.145482 0.901120 -0.158721
H29   H     H_    0.673458 0.202944 0.950882 0.127989
H30   H     H_    0.658332 0.136714 0.818840 0.126416
H31   H     H_    0.443223 0.077271 0.738279 0.157672
H32   H     H_    0.243148 0.082180 0.791420 0.120844
H33   H     H_    0.256819 0.147706 0.923604 0.127096
C53   C     C_R   0.560096 0.064773 0.158467 0.141373
C54   C     C_R   0.694575 0.070844 0.189883 -0.173412
C55   C     C_R   0.758240 0.989217 0.211031 -0.151497
C56   C     C_R   0.687450 0.900868 0.201223 -0.116676
C57   C     C_R   0.553934 0.895862 0.166451 -0.145886
C58   C     C_R   0.491556 0.978784 0.142669 -0.082317
H34   H     H_    0.749910 0.140488 0.193950 0.115938
H35   H     H_    0.862363 0.994652 0.234479 0.127183
H36   H     H_    0.736391 0.837352 0.218260 0.124133
H37   H     H_    0.499289 0.828735 0.155926 0.123624
H38   H     H_    0.391265 0.978443 0.108743 0.156484
C59   C     C_R   0.246112 0.855677 0.277066 0.107092
C60   C     C_R   0.201090 0.945714 0.259076 -0.119485
C61   C     C_R   0.138424 0.003337 0.163199 -0.184706
C62   C     C_R   0.115302 0.971109 0.083454 -0.116616
C63   C     C_R   0.156976 0.881938 0.098841 -0.147052
C64   C     C_R   0.223080 0.825749 0.193747 -0.212541
H39   H     H_    0.209423 0.973153 0.316538 0.156014
H40   H     H_    0.105207 0.072347 0.151402 0.130548
H41   H     H_    0.065167 0.015219 0.009806 0.119380
H42   H     H_    0.139796 0.856886 0.036915 0.137713
H43   H     H_    0.255086 0.757288 0.202498 0.146066
I1    I     I_    0.285683 0.374117 0.333835 -0.526056

loop_
_geom_bond_atom_site_label_1
_geom_bond_atom_site_label_2
_ccdc_geom_bond_type
C47   C48   A    
C56   C57   A    
C61   C62   A    
Cu1   O1    S    
C42   H10   S    
C7    C8    A    
C45   C46   S    
C7    C11   A    
C55   H35   S    
C23   O5    A    
C30   C35   A    
C1    C5    S    
Cu1   O7    S    
C28   C29   A    
C19   C21   A    
C42   C46   S    
C30   C31   A    
C24   H6    S    
C15   C16   A    
C6    C22   A    
C29   C33   A    
C18   C19   A    
C34   O8    A    
C49   H30   S    
C8    C53   S    
C16   H5    S    
C51   H32   S    
C60   C61   A    
C7    C47   S    
C19   C20   A    
C43   H20   S    
C61   H40   S    
Cu1   O5    S    
C9    C10   A    
C21   H13   S    
C64   H43   S    
C18   H8    S    
C2    C34   S    
C54   H34   S    
C21   C22   A    
C35   I1    S    
C62   C63   A    
C44   C46   S    
C52   H33   S    
C4    C45   S    
C25   C29   A    
C3    C44   S    
C26   N1    A    
C23   O6    A    
C26   H18   S    
Cu1   Cu2   S    
C14   C20   A    
C50   H31   S    
C25   H17   S    
C38   C41   A    
C12   C46   S    
C41   N2    A    
C33   H14   S    
Cu2   O8    S    
C17   H12   S    
C25   C26   A    
Cu2   O6    S    
C4    H2    S    
C45   H26   S    
C34   O7    A    
Cu2   N1    S    
C2    C4    S    
C5    C9    A    
C37   C38   A    
C11   C16   A    
C54   C55   A    
C2    C43   S    
C6    C24   A    
C17   C18   A    
C40   C59   S    
C12   O4    A    
C57   H37   S    
C32   H21   S    
C59   C64   A    
C44   H3    S    
C1    O1    A    
C40   N2    A    
C42   C43   S    
C41   H15   S    
C51   C52   A    
C47   C52   A    
C63   C64   A    
C56   H36   S    
C48   H29   S    
C36   C37   A    
C43   H23   S    
C15   H11   S    
C31   C32   A    
C27   N1    A    
C10   C13   A    
C5    C8    A    
C3    H4    S    
C22   H7    S    
C31   C38   A    
C13   C17   A    
C45   H27   S    
C32   C33   A    
Cu2   O2    S    
C28   C30   A    
C2    C3    S    
C37   C39   A    
C36   H16   S    
C59   C60   A    
C50   C51   A    
C62   H41   S    
C6    C23   S    
C55   C56   A    
C39   H22   S    
Cu2   O4    S    
C12   O3    A    
C44   H24   S    
C9    H9    S    
Cu1   O3    S    
C57   C58   A    
C3    H25   S    
C4    H28   S    
C27   H19   S    
C10   C11   A    
C42   H1    S    
C63   H42   S    
C39   C40   A    
C48   C49   A    
C53   C54   A    
C27   C28   A    
C1    O2    A    
C14   C15   A    
C58   H38   S    
C35   C36   A    
Cu1   N2    S    
C49   C50   A    
C13   C14   A    
C60   H39   S    
C20   C24   A    
C53   C58   A    
