data_mof_unit_3712.cif
_audit_creation_date              2012-10-26T18:29:49-0400
_audit_creation_method            fapswitch 2.2
_symmetry_space_group_name_H-M    P1
_symmetry_Int_Tables_number       1
_space_group_crystal_system       triclinic
_cell_length_a                    11.078673
_cell_length_b                    13.144843
_cell_length_c                    11.810422
_cell_angle_alpha                 99.889169
_cell_angle_beta                  93.803869
_cell_angle_gamma                 92.995789
_cell_volume                      1687.08488213

loop_
_atom_site_label
_atom_site_type_symbol
_atom_type_description
_atom_site_fract_x
_atom_site_fract_y
_atom_site_fract_z
_atom_type_partial_charge
Br1   Br    Br    0.873591 0.487160 0.241328 -0.466287
Br2   Br    Br    0.123970 0.653385 0.362635 -0.512860
Br3   Br    Br    0.624070 0.205215 0.701061 -0.587337
Br4   Br    Br    0.137231 0.305449 0.620069 -0.673850
Br5   Br    Br    0.672446 0.711392 0.810520 -0.447092
Br6   Br    Br    0.181520 0.706707 0.614275 -0.483891
Br7   Br    Br    0.911444 0.690795 0.670757 -0.449137
Br8   Br    Br    0.817928 0.298247 0.319777 -0.531950
C1    C     C_R   0.505530 0.299052 0.478134 0.561603
C2    C     C_R   0.498292 0.030926 0.552738 0.056986
C3    C     C_R   0.506801 0.967345 0.445316 0.025708
C4    C     C_R   0.259320 0.491748 0.500202 0.607225
C5    C     C_R   0.477918 0.860200 0.433576 -0.031276
C6    C     C_R   0.456709 0.878497 0.641159 0.043810
C7    C     C_R   0.457802 0.986830 0.645789 0.050239
C8    C     C_R   0.429481 0.372653 0.024246 -0.001674
C9    C     C_R   0.408909 0.400615 0.141298 0.164505
C10   C     C_R   0.546825 0.545970 0.158659 0.072034
C11   C     C_R   0.543687 0.535200 0.036476 -0.032000
C12   C     C_3   0.875613 0.491963 0.502225 0.023857
C13   C     C_R   0.482588 0.448564 0.966810 0.037073
C14   C     C_R   0.468562 0.444813 0.843980 0.113414
C15   C     C_R   0.590400 0.600017 0.861942 0.290034
C16   C     C_R   0.491333 0.700277 0.521727 0.597029
C17   C     C_R   0.599945 0.608969 0.982886 -0.131243
C18   C     C_R   0.739034 0.496366 0.499885 0.590425
C19   C     C_3   0.071831 0.442068 0.614013 0.137975
C20   C     C_3   0.924899 0.430538 0.605476 0.012706
C21   C     C_3   0.079144 0.603391 0.504099 0.270400
C22   C     C_3   0.055992 0.419121 0.389527 -0.115238
C23   C     C_3   0.937791 0.608811 0.520831 0.128375
C24   C     C_3   0.119620 0.488285 0.504107 0.022302
C25   C     C_3   0.122501 0.507529 0.733824 -0.315804
C26   C     C_3   0.874333 0.682639 0.447770 -0.267979
C27   C     C_3   0.423033 0.801963 0.317659 -0.343689
C28   C     C_3   0.427297 0.838575 0.750989 -0.319369
C29   C     C_3   0.605575 0.954102 0.254471 -0.378736
C30   C     C_3   0.400802 0.052804 0.743508 -0.366775
C31   C     C_3   0.511221 0.159663 0.242680 -0.349185
C32   C     C_3   0.377206 0.367349 0.778352 -0.322123
C33   C     C_3   0.415593 0.258808 0.972335 -0.419934
C34   C     C_3   0.914541 0.429043 0.380668 0.263079
C35   C     C_3   0.297092 0.355530 0.182363 -0.351353
C36   C     C_3   0.872978 0.314642 0.578577 -0.307954
C37   C     C_3   0.874923 0.459827 0.729990 -0.309335
C38   C     C_3   0.096898 0.307370 0.357919 -0.368436
C39   C     C_R   0.475959 0.813896 0.533883 0.052456
C40   C     C_R   0.518210 0.184730 0.464495 0.026528
C41   C     C_R   0.540185 0.013535 0.351191 0.013813
C42   C     C_R   0.524678 0.119864 0.355122 -0.001845
C43   C     C_R   0.527826 0.137722 0.563377 0.122194
Cu1   Cu    Cu3+1 0.509350 0.507730 0.615930 1.015362
Cu2   Cu    Cu3+1 0.490650 0.492270 0.384070 0.990163
H1    H     H_    0.650199 0.675456 0.035426 0.137148
H2    H     H_    0.378983 0.854781 0.266080 0.141953
H3    H     H_    0.492590 0.760894 0.267786 0.121511
H4    H     H_    0.349220 0.745758 0.329228 0.222042
H5    H     H_    0.498354 0.869458 0.820850 0.159442
H6    H     H_    0.339405 0.864893 0.779886 0.150406
H7    H     H_    0.414513 0.754742 0.745958 0.209464
H8    H     H_    0.680087 0.004426 0.230797 0.176283
H9    H     H_    0.649803 0.887628 0.282127 0.140098
H10   H     H_    0.542311 0.926348 0.177174 0.123124
H11   H     H_    0.308810 0.020075 0.754023 0.151760
H12   H     H_    0.601927 0.608590 0.212518 0.126871
H13   H     H_    0.458753 0.059350 0.825065 0.151909
H14   H     H_    0.383406 0.129539 0.724031 0.163068
H15   H     H_    0.518671 0.099762 0.165674 0.120813
H16   H     H_    0.418832 0.185811 0.232966 0.121603
H17   H     H_    0.580100 0.222747 0.239324 0.225717
H18   H     H_    0.292646 0.367171 0.823593 0.132710
H19   H     H_    0.353214 0.383596 0.695103 0.241480
H20   H     H_    0.413523 0.291402 0.763121 0.165675
H21   H     H_    0.420896 0.210156 0.039846 0.125263
H22   H     H_    0.326627 0.237679 0.922934 0.138444
H23   H     H_    0.090891 0.452928 0.318296 0.208153
H24   H     H_    0.492395 0.237892 0.919384 0.186733
H25   H     H_    0.233317 0.417481 0.197178 0.166365
H26   H     H_    0.249535 0.292064 0.118301 0.104299
H27   H     H_    0.318002 0.325517 0.261331 0.157153
H28   H     H_    0.885735 0.274097 0.653482 0.204816
H29   H     H_    0.774091 0.309384 0.554619 0.183885
H30   H     H_    0.916065 0.264821 0.512109 0.201693
H31   H     H_    0.886165 0.540220 0.773770 0.204724
H32   H     H_    0.779253 0.432897 0.735255 0.201711
H33   H     H_    0.919948 0.415795 0.791105 0.138598
H34   H     H_    0.106729 0.464658 0.804968 0.139147
H35   H     H_    0.085769 0.281587 0.262983 0.163300
H36   H     H_    0.192765 0.302645 0.387604 0.151543
H37   H     H_    0.045488 0.248443 0.393596 0.213865
H38   H     H_    0.220067 0.526326 0.747861 0.185075
H39   H     H_    0.081367 0.581859 0.754409 0.197804
H40   H     H_    0.915876 0.762977 0.473269 0.206313
H41   H     H_    0.881444 0.667199 0.354814 0.193576
H42   H     H_    0.776361 0.686163 0.461792 0.148575
N1    N     N_R   0.523430 0.519360 0.790130 -0.230962
N2    N     N_R   0.476570 0.480640 0.209880 -0.223975
O1    O     O_R   0.506640 0.354460 0.582000 -0.495964
O2    O     O_R   0.490840 0.341410 0.386200 -0.525619
O3    O     O_R   0.325590 0.506510 0.597900 -0.516715
O4    O     O_R   0.309790 0.493450 0.402100 -0.498843
O5    O     O_R   0.509160 0.658590 0.613800 -0.459566
O6    O     O_R   0.493360 0.645540 0.418000 -0.525620
O7    O     O_R   0.690210 0.506550 0.597900 -0.477394
O8    O     O_R   0.674410 0.493490 0.402100 -0.452403

loop_
_geom_bond_atom_site_label_1
_geom_bond_atom_site_label_2
_ccdc_geom_bond_type
C8    C13   A    
C32   H18   S    
C31   H15   S    
C26   H40   S    
C28   H6    S    
C29   H9    S    
C38   H36   S    
Cu2   O2    S    
C10   H12   S    
Cu1   O5    S    
C1    O1    A    
Br2   C21   S    
C11   C13   A    
Br8   C34   S    
C5    C27   S    
C21   C24   S    
C36   H29   S    
C2    C7    A    
C25   H38   S    
C33   H24   S    
C35   H26   S    
C29   C41   S    
C15   N1    A    
C10   C11   A    
C6    C28   S    
C18   O7    A    
C33   H21   S    
C40   C43   A    
C30   H13   S    
Cu2   O4    S    
C8    C9    A    
C10   N2    A    
C30   H11   S    
C36   H30   S    
C40   C42   A    
C19   C24   S    
C1    O2    A    
C13   C14   A    
C4    C24   S    
C2    C43   A    
C18   O8    A    
C29   H10   S    
C38   H35   S    
C20   C37   S    
Br7   C23   S    
C27   H2    S    
C26   H42   S    
C36   H28   S    
C25   H39   S    
C5    C39   A    
Br3   C43   S    
C12   C20   S    
Cu2   N2    S    
C35   H27   S    
Cu1   O3    S    
C19   C25   S    
C35   H25   S    
C37   H32   S    
C9    C35   S    
C7    C30   S    
C3    C41   A    
C33   H22   S    
C22   H23   S    
C29   H8    S    
Br5   C15   S    
C14   C32   S    
Br6   C21   S    
C31   H16   S    
C23   C26   S    
C17   H1    S    
C37   H31   S    
Br4   C19   S    
Cu1   Cu2   S    
Cu1   O7    S    
C32   H19   S    
C27   H3    S    
C16   C39   S    
C14   N1    A    
C22   C38   S    
C26   H41   S    
C28   H7    S    
C12   C34   S    
C6    C39   A    
C38   H37   S    
C28   H5    S    
C27   H4    S    
C16   O6    A    
C37   H33   S    
C25   H34   S    
C4    O4    A    
C21   C23   S    
C22   C24   S    
C3    C5    A    
C12   C18   S    
Cu2   O6    S    
Cu1   O1    S    
C31   H17   S    
C20   C36   S    
Cu1   N1    S    
C16   O5    A    
C15   C17   A    
C11   C17   A    
C4    O3    A    
C2    C3    A    
Cu2   O8    S    
Br1   C34   S    
C31   C42   S    
C30   H14   S    
C1    C40   S    
C41   C42   A    
C19   C20   S    
C6    C7    A    
C22   C34   S    
C32   H20   S    
C9    N2    A    
C8    C33   S    
C12   C23   S    
