data_mof_unit_3905.cif
_audit_creation_date              2013-03-05T15:47:08-0500
_audit_creation_method            fapswitch 2.2
_symmetry_space_group_name_H-M    P1
_symmetry_Int_Tables_number       1
_space_group_crystal_system       triclinic
_cell_length_a                    10.222763
_cell_length_b                    10.868296
_cell_length_c                    13.629765
_cell_angle_alpha                 92.028581
_cell_angle_beta                  100.730043
_cell_angle_gamma                 96.359775
_cell_volume                      1476.25230312

loop_
_atom_site_label
_atom_site_type_symbol
_atom_site_description
_atom_site_fract_x
_atom_site_fract_y
_atom_site_fract_z
_atom_type_partial_charge
O1    O     O_R   0.935190 0.693030 0.507870 -0.597453
O2    O     O_R   0.064810 0.306970 0.492130 -0.610136
O3    O     O_R   0.142080 0.658430 0.482770 -0.578469
O4    O     O_R   0.857920 0.341570 0.517230 -0.588886
C1    C     C_R   0.054618 0.732217 0.494454 0.868224
C2    C     C_R   0.945227 0.267744 0.505267 0.880613
O5    O     O_R   0.969700 0.527180 0.651960 -0.592099
O6    O     O_R   0.030300 0.472820 0.348040 -0.594940
O7    O     O_R   0.176600 0.492580 0.626860 -0.625686
O8    O     O_R   0.823400 0.507420 0.373140 -0.578043
C3    C     C_R   0.093940 0.513103 0.685736 0.890677
C4    C     C_R   0.906341 0.487650 0.313905 0.878264
Zn1   Zn    Zn3+2 0.861850 0.523100 0.516760 1.029912
Zn2   Zn    Zn3+2 0.138150 0.476900 0.483240 1.021489
C5    C     C_R   0.141080 0.513559 0.793421 -0.064820
C6    C     C_R   0.852251 0.464588 0.206861 -0.073224
C7    C     C_R   0.116618 0.558461 0.963430 -0.176002
C8    C     C_R   0.831241 0.335723 0.055463 -0.177842
C9    C     C_R   0.065256 0.554271 0.861210 -0.163969
C10   C     C_R   0.906091 0.382879 0.147907 -0.185757
C11   C     C_R   0.263402 0.469971 0.828513 -0.182748
C12   C     C_R   0.730201 0.506241 0.168821 -0.178271
C13   C     C_R   0.310665 0.462831 0.930704 0.118036
C14   C     C_R   0.643085 0.442251 0.086955 0.118709
C15   C     C_R   0.241752 0.518000 0.998037 0.130633
C16   C     C_R   0.698359 0.361778 0.025963 0.136417
C17   C     C_R   0.432502 0.414216 0.966577 -0.020717
C18   C     C_R   0.504105 0.456985 0.063357 -0.025123
C19   C     C_R   0.431461 0.509602 0.131798 -0.009265
C20   C     C_R   0.486165 0.326284 0.909313 -0.048693
C21   C     C_R   0.300395 0.535676 0.098373 -0.232118
C22   C     C_R   0.619091 0.303510 0.939148 -0.254170
H1    H     H_    0.245000 0.573634 0.150629 0.185749
H2    H     H_    0.660040 0.236560 0.896118 0.192394
H3    H     H_    0.702141 0.584086 0.208075 0.147019
H4    H     H_    0.324148 0.445418 0.775531 0.151278
H5    H     H_    0.002457 0.351367 0.174874 0.207827
H6    H     H_    0.969270 0.587163 0.835276 0.190174
H7    H     H_    0.060593 0.596439 0.015047 0.153171
H8    H     H_    0.873790 0.272605 0.010298 0.163180
H9    H     H_    0.107025 0.107959 0.549366 0.210983
H10   H     H_    0.892590 0.891509 0.447871 0.209905
C23   C     C_2   0.092951 0.865007 0.499471 -0.210097
C24   C     C_2   0.906363 0.134907 0.499210 -0.223571
C25   C     C_2   0.992090 0.934964 0.482184 -0.172264
C26   C     C_2   0.007206 0.064753 0.515431 -0.153343
H11   H     H_    0.587926 0.393705 0.465041 0.263073
H12   H     H_    0.421080 0.552262 0.583719 0.203352
N1    N     N_2   0.322180 0.446120 0.460900 -0.170076
N2    N     N_2   0.677820 0.553880 0.539100 -0.183478
C27   C     C_2   0.431948 0.491910 0.521587 -0.115486
C28   C     C_2   0.571903 0.475360 0.506363 -0.134771
C29   C     C_2   0.479404 0.526394 0.240672 0.880301
O9    O     O_2   0.536188 0.446115 0.285521 -0.623175
O10   O     O_R   0.458094 0.633960 0.291853 -0.795100
H13   H     H_    0.501180 0.639158 0.365151 0.361834
C30   C     C_2   0.402449 0.242397 0.827251 0.903800
O11   O     O_2   0.285696 0.206402 0.830472 -0.609642
O12   O     O_R   0.458548 0.201501 0.747684 -0.794035
H14   H     H_    0.391856 0.144512 0.696911 0.359715
C31   C     C_2   0.762547 0.085240 0.465605 0.934314
O13   O     O_2   0.689340 0.141394 0.406312 -0.587701
O14   O     O_R   0.709563 0.977447 0.504196 -0.784266
H15   H     H_    0.610748 0.954228 0.475238 0.365640
C32   C     C_2   0.236359 0.915246 0.533254 0.931435
O15   O     O_2   0.308282 0.862440 0.595995 -0.606028
O16   O     O_R   0.290289 0.019746 0.490994 -0.785318
H16   H     H_    0.389297 0.043010 0.519271 0.367099
C33   C     C_2   0.670893 0.665810 0.594696 1.028151
O17   O     O_2   0.763323 0.703761 0.663183 -0.595819
O18   O     O_R   0.565083 0.736731 0.567664 -0.815086
H17   H     H_    0.572883 0.813192 0.614153 0.381029
C34   C     C_2   0.321394 0.348785 0.387918 1.103396
O19   O     O_2   0.245480 0.346680 0.307134 -0.641066
O20   O     O_R   0.397103 0.250445 0.410626 -0.787435
H18   H     H_    0.385514 0.186969 0.352391 0.378394

loop_
_geom_bond_atom_site_label_1
_geom_bond_atom_site_label_2
_geom_bond_distance
_ccdc_geom_bond_type
C15   C21   1.384603 A    
N2    C28   1.299297 D    
O7    Zn2   1.921046 S    
C21   H1    1.085950 S    
O20   H18   1.013939 S    
C16   C22   1.390696 A    
H11   C28   1.078319 S    
C10   H5    1.082451 S    
C9    H6    1.083085 S    
C13   C17   1.416639 A    
C24   C31   1.489489 S    
C19   C29   1.471647 S    
C34   O20   1.398070 S    
C34   O19   1.221168 D    
C8    C16   1.406074 A    
O5    Zn1   1.959617 S    
C23   C32   1.487577 S    
C7    C15   1.402454 A    
O3    C1    1.292562 A    
O10   H13   1.010891 S    
C13   C15   1.411881 A    
C1    C23   1.448719 S    
C33   O18   1.398678 S    
O18   H17   1.013729 S    
C19   C21   1.396077 A    
C11   H4    1.080900 S    
C2    C24   1.449564 S    
C25   C26   1.448914 S    
C17   C20   1.430456 A    
C20   C22   1.396074 A    
C12   H3    1.078507 S    
O7    C3    1.299737 A    
C30   O11   1.223428 D    
O2    C2    1.296033 A    
H9    C26   1.085551 S    
O8    C4    1.303790 A    
O3    Zn2   1.969137 S    
O1    C1    1.295700 A    
C12   C14   1.399878 A    
C6    C10   1.399873 A    
C7    C9    1.391646 A    
N2    C33   1.425787 S    
C24   C26   1.339466 D    
O5    C3    1.295668 A    
C8    C10   1.394328 A    
C33   O17   1.221582 D    
C29   O10   1.398586 S    
C11   C13   1.394572 A    
C31   O13   1.223323 D    
O2    Zn2   1.931465 S    
N1    C34   1.424517 S    
C30   O12   1.398734 S    
Zn2   N1    2.022228 S    
O1    Zn1   1.931465 S    
O12   H14   1.013791 S    
O16   H16   1.013915 S    
C5    C9    1.401435 A    
C20   C30   1.487662 S    
C4    C6    1.462959 S    
C5    C11   1.393359 A    
Zn1   N2    2.022229 S    
C27   C28   1.512378 S    
C14   C18   1.425319 A    
O4    C2    1.292494 A    
C32   O15   1.222849 D    
C7    H7    1.084053 S    
C17   C18   1.418998 A    
C31   O14   1.397009 S    
C8    H8    1.083807 S    
C18   C19   1.436297 A    
C6    C12   1.389722 A    
O6    Zn2   1.959617 S    
N1    C27   1.300983 D    
C29   O9    1.220542 D    
C3    C5    1.456721 S    
C23   C25   1.338882 D    
H10   C25   1.084984 S    
H12   C27   1.082394 S    
O6    C4    1.295866 A    
O4    Zn1   1.969137 S    
C14   C16   1.417114 A    
O14   H15   1.013852 S    
C32   O16   1.396943 S    
O8    Zn1   1.921044 S    
C22   H2    1.085046 S    
