data_mof_unit_2315.cif
_audit_creation_date              2012-12-11T15:59:42-0500
_audit_creation_method            fapswitch 2.2
_symmetry_space_group_name_H-M    P1
_symmetry_Int_Tables_number       1
_space_group_crystal_system       triclinic
_cell_length_a                    10.765862
_cell_length_b                    10.761619
_cell_length_c                    17.001628
_cell_angle_alpha                 99.740913
_cell_angle_beta                  100.093013
_cell_angle_gamma                 60.31089
_cell_volume                      1676.8779548

loop_
_atom_site_label
_atom_site_type_symbol
_atom_type_description
_atom_site_fract_x
_atom_site_fract_y
_atom_site_fract_z
_atom_type_partial_charge
C1    C     C_R   0.355274 0.770476 0.398069 0.560390
C2    C     C_R   0.860175 0.328027 0.334162 0.018035
C3    C     C_R   0.352651 0.808649 0.154889 0.004255
C4    C     C_R   0.368639 0.346054 0.357628 0.561871
C5    C     C_R   0.457469 0.823936 0.211502 0.014927
C6    C     C_R   0.442423 0.840015 0.293920 -0.003964
C7    C     C_R   0.262804 0.759479 0.258147 -0.142972
C8    C     C_R   0.265565 0.762581 0.178281 -0.145608
C9    C     C_R   0.580037 0.815957 0.188285 -0.117675
C10   C     C_R   0.680533 0.832804 0.245923 -0.058084
C11   C     C_R   0.653479 0.874727 0.326165 0.164830
C12   C     C_R   0.840098 0.217656 0.198843 0.003483
C13   C     C_R   0.531871 0.881625 0.349776 -0.047727
C14   C     C_R   0.343845 0.805912 0.317279 0.015531
C15   C     C_R   0.294756 0.287031 0.800118 -0.001089
C16   C     C_R   0.782319 0.373830 0.405720 0.584612
C17   C     C_R   0.404063 0.177401 0.755895 -0.022905
C18   C     C_R   0.470794 0.214158 0.708215 0.076198
C19   C     C_R   0.267926 0.459147 0.715595 -0.162260
C20   C     C_R   0.225623 0.428319 0.779050 -0.133395
C21   C     C_R   0.452468 0.032166 0.761758 -0.137940
C22   C     C_R   0.579885 0.925130 0.733512 -0.072247
C23   C     C_R   0.868653 0.207782 0.282780 -0.014361
C24   C     C_R   0.665252 0.962418 0.701424 0.103207
C25   C     C_R   0.613125 0.109091 0.690757 0.286999
C26   C     C_R   0.388729 0.352658 0.678481 0.015333
C27   C     C_1   0.848679 0.328591 0.705315 0.000036
C28   C     C_R   0.382330 0.713060 0.631294 0.537389
C29   C     C_1   0.895564 0.293120 0.772096 -0.023668
C30   C     C_1   0.360392 0.759085 0.714332 -0.066783
C31   C     C_1   0.327412 0.805238 0.781606 -0.063073
C32   C     C_R   0.892992 0.309866 0.088826 0.598061
C33   C     C_R   0.319820 0.300628 0.119830 0.577869
C34   C     C_R   0.875927 0.432742 0.303520 0.203275
C35   C     C_R   0.298881 0.884400 0.082752 0.544136
C36   C     C_R   0.944270 0.272869 0.854831 0.536996
C37   C     C_R   0.278675 0.256232 0.876990 0.529537
C38   C     C_R   0.282050 0.878342 0.858556 0.525490
C39   C     C_R   0.410080 0.375243 0.600406 0.562555
C40   C     C_R   0.778613 0.378179 0.628789 0.554528
C41   C     C_1   0.342530 0.336749 0.274141 -0.027061
C42   C     C_1   0.332052 0.327085 0.203209 -0.031701
C43   C     C_R   0.844458 0.330276 0.168089 -0.028375
C44   C     C_R   0.858352 0.438199 0.221824 -0.108225
C45   C     C_R   0.815989 0.110482 0.149055 0.281528
C46   C     C_R   0.861648 0.979449 0.179187 -0.143023
C47   C     C_R   0.914985 0.961006 0.259549 -0.130422
C48   C     C_R   0.912512 0.076236 0.312965 0.278498
Cr1   Cr    Cr6+3 0.608100 0.610860 0.522250 1.033703
Cr2   Cr    Cr6+3 0.288890 0.599990 0.488420 1.013044
Cr3   Cr    Cr6+3 0.603040 0.289190 0.489390 1.064201
Cr4   Cr    Cr6+3 0.053960 0.052250 0.967380 1.052643
Cr5   Cr    Cr6+3 0.059890 0.373160 0.992710 1.010482
Cr6   Cr    Cr6+3 0.373370 0.061690 0.991710 1.014532
H1    H     H_    0.780170 0.810092 0.227471 0.108479
H2    H     H_    0.197926 0.717491 0.273035 0.141273
H3    H     H_    0.603909 0.786326 0.126472 0.126049
H4    H     H_    0.191619 0.738407 0.135127 0.141880
H5    H     H_    0.960868 0.490213 0.402875 0.340549
H6    H     H_    0.714587 0.939512 0.439771 0.224143
H7    H     H_    0.848698 0.809166 0.389178 0.244788
H8    H     H_    0.808819 0.852351 0.619523 0.224310
H9    H     H_    0.883345 0.867454 0.715561 0.233851
H10   H     H_    0.796597 0.073135 0.661382 0.319343
H11   H     H_    0.733294 0.052649 0.047662 0.319969
H12   H     H_    0.510996 0.914707 0.411904 0.126692
H13   H     H_    0.989758 0.961136 0.403959 0.340092
H14   H     H_    0.206681 0.565948 0.695622 0.143933
H15   H     H_    0.389245 0.003661 0.787959 0.143304
H16   H     H_    0.139418 0.514319 0.811222 0.152871
H17   H     H_    0.615736 0.813785 0.740499 0.161115
H18   H     H_    0.869237 0.521741 0.201019 0.164843
H19   H     H_    0.856468 0.891360 0.139995 0.083628
H20   H     H_    0.955489 0.857449 0.281026 0.108364
N1    N     N_3   0.752315 0.905257 0.383230 -0.606915
N2    N     N_3   0.802772 0.850035 0.679935 -0.634079
O1    O     O_R   0.749810 0.499790 0.438040 -0.500374
O2    O     O_R   0.411730 0.181020 0.091530 -0.485353
O3    O     O_R   0.365010 0.944360 0.063320 -0.505605
O4    O     O_R   0.477660 0.726260 0.439290 -0.496855
O5    O     O_R   0.159380 0.906670 0.876210 -0.510753
O6    O     O_R   0.930820 0.177420 0.886730 -0.466043
O7    O     O_R   0.910360 0.395420 0.895720 -0.509701
O8    O     O_R   0.186010 0.361730 0.919870 -0.510991
O9    O     O_R   0.400000 0.173010 0.914630 -0.483756
O10   O     O_R   0.354140 0.936940 0.899340 -0.532715
O11   O     O_3   0.162410 0.162370 0.983930 -0.294785
O12   O     O_R   0.298970 0.468800 0.557390 -0.517677
O13   O     O_R   0.260150 0.743000 0.412270 -0.523501
O14   O     O_R   0.297740 0.466550 0.394720 -0.494783
O15   O     O_R   0.488080 0.253500 0.386430 -0.493411
O16   O     O_R   0.722670 0.303800 0.421940 -0.451399
O17   O     O_R   0.751130 0.502220 0.613520 -0.515196
O18   O     O_R   0.478890 0.728510 0.601960 -0.485990
O19   O     O_R   0.261470 0.745430 0.587750 -0.508093
O20   O     O_3   0.908228 0.531853 0.351792 -0.705547
O21   O     O_3   0.701086 0.155038 0.671309 -0.687830
O22   O     O_3   0.743061 0.137800 0.073178 -0.660173
O23   O     O_R   0.489400 0.255930 0.561910 -0.477324
O24   O     O_3   0.964531 0.058915 0.392914 -0.682669
O25   O     O_R   0.723890 0.306050 0.584610 -0.463663
O26   O     O_3   0.500010 0.500010 0.500020 -0.302074
O27   O     O_R   0.171100 0.914680 0.053100 -0.513562
O28   O     O_R   0.941680 0.184840 0.050710 -0.432027
O29   O     O_R   0.922080 0.403420 0.072610 -0.540111
O30   O     O_R   0.196880 0.369150 0.083850 -0.502133

loop_
_geom_bond_atom_site_label_1
_geom_bond_atom_site_label_2
_ccdc_geom_bond_type
Cr4   O27   S    
C27   C29   T    
C41   C42   T    
C19   C20   A    
C18   C26   A    
C40   O17   A    
C20   H16   S    
Cr2   O19   S    
C7    C8    A    
C45   C46   A    
H7    N1    S    
Cr3   O26   S    
C29   C36   S    
C38   O10   A    
Cr5   O8    S    
C33   C42   S    
C7    H2    S    
C37   O9    A    
C34   O20   S    
H11   O22   S    
C12   C43   A    
C35   O27   A    
C45   O22   S    
Cr6   O11   S    
C26   C39   S    
H9    N2    S    
C36   O7    A    
C28   O18   A    
C16   O1    A    
C19   C26   A    
C15   C37   S    
Cr3   O15   S    
C40   O25   A    
Cr5   O30   S    
Cr2   O14   S    
C7    C14   A    
C36   O6    A    
C32   O28   A    
C37   O8    A    
Cr1   O18   S    
C2    C16   S    
C9    C10   A    
Cr2   O12   S    
C4    O15   A    
C8    H4    S    
C2    C34   A    
C21   C22   A    
H8    N2    S    
C18   C25   A    
C39   O12   A    
C4    O14   A    
C13   H12   S    
Cr3   O23   S    
C15   C20   A    
C48   O24   S    
C34   C44   A    
C24   C25   A    
C3    C8    A    
Cr1   O26   S    
Cr6   O10   S    
C24   N2    S    
C17   C21   A    
C21   H15   S    
C43   C44   A    
C5    C9    A    
Cr3   O16   S    
C6    C14   A    
Cr2   O13   S    
C39   O23   A    
C47   C48   A    
C12   C23   A    
C3    C35   S    
C27   C40   S    
C17   C18   A    
C19   H14   S    
Cr5   O11   S    
Cr4   O6    S    
C10   H1    S    
H13   O24   S    
C25   O21   S    
H10   O21   S    
Cr2   O26   S    
C32   O29   A    
C28   O19   A    
C38   O5    A    
C22   C24   A    
H5    O20   S    
C22   H17   S    
Cr6   O3    S    
C15   C17   A    
C46   C47   A    
Cr4   O28   S    
C1    O13   A    
C23   C48   A    
Cr4   O11   S    
C33   O30   A    
C47   H20   S    
C12   C45   A    
C3    C5    A    
Cr6   O9    S    
Cr1   O4    S    
C16   O16   A    
Cr3   O25   S    
H6    N1    S    
C31   C38   S    
Cr5   O7    S    
C28   C30   S    
C11   N1    S    
C6    C13   A    
C11   C13   A    
C30   C31   T    
C5    C6    A    
C35   O3    A    
C32   C43   S    
Cr1   O1    S    
C44   H18   S    
C9    H3    S    
Cr4   O5    S    
C33   O2    A    
C10   C11   A    
Cr5   O29   S    
C4    C41   S    
C2    C23   A    
C1    O4    A    
C1    C14   S    
Cr1   O17   S    
C46   H19   S    
Cr6   O2    S    
