data_mof_unit_2835.cif
_audit_creation_date              2012-12-10T16:58:26-0500
_audit_creation_method            fapswitch 2.2
_symmetry_space_group_name_H-M    P1
_symmetry_Int_Tables_number       1
_space_group_crystal_system       triclinic
_cell_length_a                    7.725093
_cell_length_b                    8.574923
_cell_length_c                    23.558397
_cell_angle_alpha                 91.3636
_cell_angle_beta                  85.653574
_cell_angle_gamma                 94.137839
_cell_volume                      1551.74936042

loop_
_atom_site_label
_atom_site_type_symbol
_atom_type_description
_atom_site_fract_x
_atom_site_fract_y
_atom_site_fract_z
_atom_type_partial_charge
C1    C     C_R   0.546277 0.795030 0.498508 0.968260
C2    C     C_R   0.453723 0.204970 0.501492 0.968276
C3    C     C_R   0.345180 0.440578 0.765656 0.000342
C4    C     C_R   0.654967 0.559297 0.234354 0.000362
C5    C     C_R   0.348856 0.434322 0.706061 -0.092508
C6    C     C_R   0.651197 0.565675 0.293949 -0.092461
C7    C     C_R   0.501720 0.490387 0.673090 -0.146137
C8    C     C_R   0.498311 0.509630 0.326909 -0.146146
C9    C     C_R   0.652242 0.542002 0.700893 -0.046186
C10   C     C_R   0.347818 0.458012 0.299092 -0.046242
C11   C     C_R   0.650401 0.534168 0.759650 -0.125278
C12   C     C_R   0.349748 0.465722 0.240331 -0.125292
C13   C     C_R   0.498036 0.487105 0.792118 0.234133
C14   C     C_R   0.502160 0.512711 0.207875 0.234134
C15   C     C_2   0.570539 0.958672 0.497610 -0.361241
C16   C     C_2   0.429461 0.041328 0.502390 -0.361256
C17   C     C_R   0.501261 0.497840 0.610688 0.877065
C18   C     C_R   0.498743 0.502174 0.389312 0.877062
C19   C     C_R   0.462436 0.371042 0.119819 0.526703
C20   C     C_R   0.537842 0.628741 0.880174 0.526683
C21   C     C_R   0.534235 0.646755 0.118394 0.521919
C22   C     C_R   0.466049 0.353027 0.881594 0.521936
C23   C     C_R   0.545703 0.645572 0.058492 -0.056927
C24   C     C_R   0.454618 0.354199 0.941497 -0.056929
C25   C     C_R   0.500246 0.502906 0.029870 -0.025758
C26   C     C_R   0.500083 0.496862 0.970119 -0.025756
C27   C     C_R   0.455077 0.365833 0.060903 -0.015344
C28   C     C_R   0.545243 0.633938 0.939087 -0.015332
C29   C     C_R   0.600580 0.780087 0.026167 -0.032980
C30   C     C_R   0.399755 0.219680 0.973822 -0.032985
C31   C     C_R   0.597837 0.773115 0.967157 -0.197197
C32   C     C_R   0.402498 0.226653 0.032832 -0.197196
N1    N     N_R   0.500547 0.510024 0.147198 -0.351943
N2    N     N_R   0.499715 0.489765 0.852794 -0.351944
N3    N     N_2   0.950330 0.457950 0.484560 -0.165336
N4    N     N_2   0.049670 0.542050 0.515440 -0.165345
O1    O     O_R   0.389250 0.738570 0.503790 -0.612498
O2    O     O_R   0.610750 0.261430 0.496210 -0.612494
O3    O     O_R   0.678390 0.711620 0.493890 -0.629363
O4    O     O_R   0.321610 0.288380 0.506110 -0.629367
O5    O     O_R   0.355400 0.513520 0.588790 -0.604236
O6    O     O_R   0.644600 0.486480 0.411210 -0.604223
O7    O     O_R   0.644550 0.486570 0.578900 -0.618039
O8    O     O_R   0.355450 0.513430 0.421100 -0.618041
O9    O     O_2   0.432320 0.238157 0.149725 -0.526994
O10   O     O_2   0.567928 0.761636 0.850271 -0.527008
O11   O     O_2   0.553640 0.782643 0.148056 -0.522249
O12   O     O_2   0.446623 0.217146 0.851929 -0.522235
Zn1   Zn    Zn3+2 0.306930 0.518000 0.506610 0.980592
Zn2   Zn    Zn3+2 0.693070 0.482000 0.493390 0.980601
C33   C     C_1   0.671113 0.924499 0.051085 0.278290
N5    N     N_1   0.728696 0.039915 0.070839 -0.138869
C34   C     C_1   0.329228 0.075264 0.948904 0.278299
N6    N     N_1   0.271648 0.959845 0.929152 -0.138856
H1    H     H_    0.639545 0.877084 0.943005 0.196470
H2    H     H_    0.360793 0.122685 0.056985 0.196475
C35   C     C_1   0.183951 0.403147 0.799875 0.221685
N7    N     N_1   0.055318 0.373455 0.827154 -0.183333
C36   C     C_1   0.816237 0.596684 0.200151 0.221692
N8    N     N_1   0.944903 0.626340 0.172886 -0.183355
C37   C     C_1   0.196963 0.364983 0.679608 0.240277
N9    N     N_1   0.075982 0.309194 0.658658 -0.174951
C38   C     C_1   0.802983 0.635188 0.320413 0.240316
N10   N     N_1   0.923871 0.691124 0.341376 -0.174946
C39   C     C_1   0.808305 0.612182 0.671425 0.227574
N11   N     N_1   0.933954 0.669590 0.648595 -0.202871
C40   C     C_1   0.191651 0.388043 0.328561 0.227547
N12   N     N_1   0.065913 0.330820 0.351396 -0.202852
H3    H     H_    0.766750 0.570639 0.780935 0.165015
H4    H     H_    0.233419 0.429250 0.219035 0.165018
H5    H     H_    0.703441 0.010560 0.493028 0.184067
H6    H     H_    0.296559 0.989439 0.506972 0.184068
H7    H     H_    0.012330 0.373775 0.460709 0.207821
H8    H     H_    0.987672 0.626225 0.539291 0.207820

loop_
_geom_bond_atom_site_label_1
_geom_bond_atom_site_label_2
_ccdc_geom_bond_type
C6    C38   S    
O8    Zn1   S    
C7    C17   S    
C22   O12   S    
C19   O9    S    
O7    Zn2   S    
O2    Zn2   S    
C18   O8    A    
O1    Zn1   S    
C25   C27   A    
C2    C16   S    
C2    O2    A    
C26   C28   A    
N3    N4    D    
C3    C13   A    
C1    O1    A    
C3    C5    A    
C20   N2    A    
C14   N1    S    
C18   O6    A    
C27   C32   A    
C5    C37   S    
C13   N2    S    
C29   C31   A    
C11   H3    S    
C10   C40   S    
C30   C32   A    
C33   N5    T    
C9    C11   A    
C24   C26   A    
C35   N7    T    
C36   N8    T    
N4    H8    S    
N3    Zn2   S    
C1    C15   S    
C23   C29   A    
C4    C36   S    
O5    Zn1   S    
C19   C27   A    
O6    Zn2   S    
C9    C39   S    
C10   C12   A    
C23   C25   A    
C21   C23   A    
C4    C14   A    
C37   N9    T    
C22   N2    A    
C30   C34   S    
C17   O5    A    
C24   C30   A    
C21   N1    A    
C15   C16   D    
C1    O3    A    
C29   C33   S    
C4    C6    A    
C40   N12   T    
C2    O4    A    
C11   C13   A    
O3    Zn2   S    
C15   H5    S    
C8    C10   A    
C39   N11   T    
C19   N1    A    
C22   C24   A    
C17   O7    A    
C7    C9    A    
C21   O11   S    
C12   H4    S    
C5    C7    A    
N3    H7    S    
C6    C8    A    
C20   C28   A    
C31   H1    S    
C25   C26   A    
C34   N6    T    
C32   H2    S    
C28   C31   A    
C8    C18   S    
N4    Zn1   S    
O4    Zn1   S    
C12   C14   A    
C38   N10   T    
C3    C35   S    
C20   O10   S    
C16   H6    S    
