data_mof_unit_3011.cif
_audit_creation_date              2012-12-10T17:51:31-0500
_audit_creation_method            fapswitch 2.2
_symmetry_space_group_name_H-M    P1
_symmetry_Int_Tables_number       1
_space_group_crystal_system       triclinic
_cell_length_a                    9.888115
_cell_length_b                    10.71752
_cell_length_c                    16.578779
_cell_angle_alpha                 91.60348
_cell_angle_beta                  83.474425
_cell_angle_gamma                 90.667464
_cell_volume                      1744.82396091

loop_
_atom_site_label
_atom_site_type_symbol
_atom_type_description
_atom_site_fract_x
_atom_site_fract_y
_atom_site_fract_z
_atom_type_partial_charge
Br1   Br    Br    0.710595 0.157201 0.127351 -0.382539
Br2   Br    Br    0.989615 0.855031 0.408905 -0.528891
Br3   Br    Br    0.735786 0.334398 0.951355 -0.386656
C1    C     C_R   0.501308 0.739455 0.493325 0.887986
C2    C     C_R   0.539067 0.463408 0.261116 -0.073310
C3    C     C_R   0.267664 0.879463 0.442682 -0.183189
C4    C     C_R   0.478925 0.497751 0.653360 0.855566
C5    C     C_R   0.140145 0.935542 0.452010 0.317956
C6    C     C_R   0.122223 0.048156 0.495351 -0.194998
C7    C     C_R   0.234464 0.110120 0.521938 -0.195600
C8    C     C_R   0.367186 0.059628 0.505249 0.112737
C9    C     C_R   0.378971 0.935863 0.477177 0.064081
C10   C     C_R   0.500824 0.872647 0.486980 -0.091503
C11   C     C_R   0.616616 0.937818 0.505862 -0.167586
C12   C     C_R   0.387158 0.355635 0.759207 -0.182422
C13   C     C_R   0.612437 0.064778 0.516081 -0.191166
C14   C     C_R   0.489618 0.126931 0.514050 -0.127402
C15   C     C_R   0.843547 0.670824 0.601736 -0.163764
C16   C     C_R   0.496910 0.260335 0.506671 0.877768
C17   C     C_R   0.906120 0.757804 0.649449 -0.241310
C18   C     C_R   0.046892 0.757977 0.650091 -0.016993
C19   C     C_R   0.123516 0.668019 0.602907 -0.199948
C20   C     C_R   0.063922 0.583238 0.550609 0.151235
C21   C     C_R   0.919468 0.583904 0.550246 0.218280
C22   C     C_R   0.936561 0.419664 0.451990 -0.091757
C23   C     C_R   0.485789 0.490663 0.125329 -0.182587
C24   C     C_R   0.079859 0.419801 0.451938 -0.098573
C25   C     C_R   0.521023 0.496859 0.346555 0.880800
C26   C     C_R   0.460489 0.464826 0.737635 -0.021323
C27   C     C_R   0.522617 0.535033 0.795277 -0.168514
C28   C     C_R   0.512134 0.495377 0.874727 -0.081298
C29   C     C_R   0.445982 0.381801 0.895642 0.137256
C30   C     C_R   0.380815 0.313544 0.838028 -0.061958
C31   C     C_2   0.114791 0.852118 0.699629 0.934871
C32   C     C_2   0.307230 0.312539 0.025945 0.921427
C33   C     C_R   0.474799 0.530576 0.206053 -0.152179
C34   C     C_R   0.613751 0.356086 0.235853 -0.223130
C35   C     C_R   0.621001 0.312818 0.155604 0.363589
C36   C     C_R   0.555685 0.380045 0.099944 0.074424
C37   C     C_2   0.442300 0.337930 0.978985 -0.206765
C38   C     C_2   0.558938 0.339379 0.014556 0.228162
H1    H     H_    0.578754 0.619711 0.778764 0.143681
H2    H     H_    0.416735 0.613334 0.225506 0.159195
H3    H     H_    0.229182 0.665745 0.608964 0.240565
H4    H     H_    0.140492 0.354263 0.412764 0.163453
H5    H     H_    0.661149 0.302796 0.279481 0.168216
H6    H     H_    0.327704 0.227055 0.853681 0.159337
H7    H     H_    0.437163 0.544728 0.082654 0.152232
H8    H     H_    0.339593 0.300536 0.714199 0.143053
H9    H     H_    0.558504 0.551575 0.919649 0.156983
H10   H     H_    0.291019 0.925511 0.731077 0.348763
H11   H     H_    0.202414 0.235953 0.124256 0.367210
H12   H     H_    0.710670 0.890929 0.513268 0.201748
H13   H     H_    0.278465 0.792625 0.407844 0.185407
H14   H     H_    0.022097 0.089168 0.506975 0.162387
H15   H     H_    0.214441 0.195070 0.557656 0.181045
H16   H     H_    0.705837 0.114120 0.525637 0.177965
H17   H     H_    0.889224 0.354110 0.412816 0.153252
H18   H     H_    0.735573 0.675248 0.607105 0.205472
H19   H     H_    0.843464 0.824734 0.686432 0.192671
N1    N     N_R   0.857140 0.501200 0.500750 -0.115610
N2    N     N_R   0.142740 0.501280 0.500770 -0.122940
O1    O     O_R   0.385310 0.683220 0.500000 -0.642344
O2    O     O_R   0.256909 0.856366 0.695391 -0.828103
O3    O     O_2   0.202771 0.347353 0.000745 -0.568870
O4    O     O_R   0.299471 0.247139 0.098211 -0.772338
O5    O     O_R   0.614640 0.683250 0.500010 -0.625996
O6    O     O_R   0.371780 0.500010 0.615800 -0.631486
O7    O     O_R   0.601110 0.500030 0.615800 -0.627778
O8    O     O_R   0.385360 0.316750 0.499990 -0.632529
O9    O     O_R   0.614690 0.316780 0.500000 -0.619309
O10   O     O_R   0.398890 0.499970 0.384200 -0.605550
O11   O     O_R   0.628220 0.499990 0.384200 -0.594480
O12   O     O_2   0.047005 0.927143 0.743630 -0.599164
Zn1   Zn    Zn3+2 0.346870 0.499980 0.499990 0.944578
Zn2   Zn    Zn3+2 0.653130 0.500020 0.500010 0.968505

loop_
_geom_bond_atom_site_label_1
_geom_bond_atom_site_label_2
_ccdc_geom_bond_type
C21   N1    A    
C4    C26   S    
C2    C34   A    
C16   O9    A    
C36   C38   S    
O6    Zn1   S    
C1    O1    A    
C34   C35   A    
C15   C21   A    
C3    C9    A    
C27   C28   A    
C23   C36   A    
C32   O3    D    
C2    C33   A    
O7    Zn2   S    
C1    C10   S    
C4    O6    A    
C20   N2    A    
C8    C14   A    
C13   C14   A    
C20   C21   A    
C6    H14   S    
C17   H19   S    
C7    H15   S    
C6    C7    A    
C23   H7    S    
C24   H4    S    
C12   H8    S    
C10   C11   A    
C25   O10   A    
C3    H13   S    
O10   Zn1   S    
C25   O11   A    
C12   C26   A    
N1    Zn2   S    
C35   C36   A    
C19   H3    S    
C5    C6    A    
C3    C5    A    
C18   C31   S    
C32   O4    S    
C26   C27   A    
C24   N2    A    
C2    C25   S    
C28   C29   A    
C31   O2    S    
C22   N1    A    
C9    C10   A    
Br1   C35   S    
C31   O12   D    
C23   C33   A    
C37   C38   D    
C30   H6    S    
O11   Zn2   S    
C11   C13   A    
N2    Zn1   S    
C22   H17   S    
C28   H9    S    
H11   O4    S    
Br3   C38   S    
Br2   C5    S    
H10   O2    S    
C16   O8    A    
C4    O7    A    
C1    O5    A    
C8    C9    A    
C22   C24   A    
C29   C30   A    
C32   C37   S    
O9    Zn2   S    
O1    Zn1   S    
C14   C16   S    
C15   C17   A    
C13   H16   S    
C29   C37   S    
C7    C8    A    
C15   H18   S    
C11   H12   S    
C17   C18   A    
O8    Zn1   S    
C19   C20   A    
C27   H1    S    
C33   H2    S    
O5    Zn2   S    
C34   H5    S    
C18   C19   A    
C12   C30   A    
