data_mof_unit_3479.cif
_audit_creation_date              2012-12-11T15:17:43-0500
_audit_creation_method            fapswitch 2.2
_symmetry_space_group_name_H-M    P1
_symmetry_Int_Tables_number       1
_space_group_crystal_system       triclinic
_cell_length_a                    7.088836
_cell_length_b                    19.176226
_cell_length_c                    22.799149
_cell_angle_alpha                 89.999288
_cell_angle_beta                  89.99984
_cell_angle_gamma                 89.999851
_cell_volume                      3099.2506809

loop_
_atom_site_label
_atom_site_type_symbol
_atom_type_description
_atom_site_fract_x
_atom_site_fract_y
_atom_site_fract_z
_atom_type_partial_charge
O1    O     O_R   0.620180 0.810610 0.187990 -0.549449
O2    O     O_R   0.379820 0.189390 0.812010 -0.530118
O3    O     O_R   0.379820 0.189390 0.687990 -0.549459
O4    O     O_R   0.620180 0.810610 0.312010 -0.530142
O5    O     O_R   0.120180 0.689390 0.312010 -0.549429
O6    O     O_R   0.879820 0.310610 0.687990 -0.530106
O7    O     O_R   0.879820 0.310610 0.812010 -0.549448
O8    O     O_R   0.120180 0.689390 0.187990 -0.530120
O9    O     O_R   0.290420 0.818570 0.311590 -0.549961
O10   O     O_R   0.709580 0.181430 0.688410 -0.529584
O11   O     O_R   0.709580 0.181430 0.811590 -0.549990
O12   O     O_R   0.290420 0.818570 0.188410 -0.529585
O13   O     O_R   0.790420 0.681430 0.188410 -0.549997
O14   O     O_R   0.209580 0.318570 0.811590 -0.529583
O15   O     O_R   0.209580 0.318570 0.688410 -0.550010
O16   O     O_R   0.790420 0.681430 0.311590 -0.529588
H1    H     H_    0.206072 0.577510 0.631016 0.120596
H2    H     H_    0.014632 0.417637 0.358333 0.118520
H3    H     H_    0.794000 0.422482 0.131027 0.120592
H4    H     H_    0.985527 0.582359 0.858337 0.118519
H5    H     H_    0.705975 0.922478 0.868968 0.120592
H6    H     H_    0.514532 0.082354 0.141660 0.118518
H7    H     H_    0.294088 0.077535 0.368960 0.120589
H8    H     H_    0.485618 0.917648 0.641656 0.118517
C1    C     C_R   0.457817 0.831949 0.333465 0.701194
C2    C     C_R   0.541301 0.169386 0.665729 0.690423
C3    C     C_R   0.542182 0.168051 0.833465 0.701171
C4    C     C_R   0.458701 0.830621 0.165733 0.690399
C5    C     C_R   0.957817 0.668053 0.166533 0.701144
C6    C     C_R   0.041299 0.330623 0.834266 0.690399
C7    C     C_R   0.042183 0.331948 0.666534 0.701133
C8    C     C_R   0.958704 0.669365 0.334259 0.690364
H9    H     H_    0.110287 0.463798 0.668098 0.109054
H10   H     H_    0.945008 0.536618 0.330546 0.106882
H11   H     H_    0.889695 0.536202 0.168101 0.109050
H12   H     H_    0.055036 0.463372 0.830550 0.106888
H13   H     H_    0.610283 0.036200 0.831895 0.109049
H14   H     H_    0.444992 0.963369 0.169448 0.106885
H15   H     H_    0.389704 0.963805 0.331892 0.109042
H16   H     H_    0.555040 0.036637 0.669444 0.106889
H17   H     H_    0.226811 0.659458 0.551197 0.148550
H18   H     H_    0.091350 0.332863 0.432329 0.132093
H19   H     H_    0.773344 0.340518 0.051222 0.148535
H20   H     H_    0.908852 0.667141 0.932325 0.132086
H21   H     H_    0.726655 0.840514 0.948775 0.148534
H22   H     H_    0.591189 0.167137 0.067669 0.132087
H23   H     H_    0.273466 0.159507 0.448758 0.148523
H24   H     H_    0.409036 0.832857 0.567670 0.132081
O17   O     O_3   0.453640 0.707610 0.250000 -0.374821
O18   O     O_3   0.546360 0.292390 0.750000 -0.374825
O19   O     O_3   0.953640 0.792390 0.250000 -0.374838
O20   O     O_3   0.046360 0.207610 0.750000 -0.374834
V1    V     V_3+5 0.178800 0.757860 0.250000 1.367296
V2    V     V_3+5 0.821200 0.242140 0.750000 1.367277
V3    V     V_3+5 0.678800 0.742140 0.250000 1.367255
V4    V     V_3+5 0.321200 0.257860 0.750000 1.367257
C9    C     C_R   0.028946 0.349488 0.554011 -0.019684
C10   C     C_R   0.019355 0.651213 0.445674 -0.031768
C11   C     C_R   0.971105 0.650507 0.054013 -0.019675
C12   C     C_R   0.980666 0.348783 0.945683 -0.031766
C13   C     C_R   0.528912 0.150503 0.945984 -0.019685
C14   C     C_R   0.519344 0.848780 0.054316 -0.031766
C15   C     C_R   0.471138 0.849508 0.445980 -0.019672
C16   C     C_R   0.480685 0.151226 0.554311 -0.031762
C17   C     C_R   0.042386 0.375888 0.613274 -0.108332
C18   C     C_R   0.972841 0.625734 0.387386 -0.098242
C19   C     C_R   0.957621 0.624110 0.113276 -0.108333
C20   C     C_R   0.027164 0.374258 0.887392 -0.098262
C21   C     C_R   0.542380 0.124107 0.886721 -0.108340
C22   C     C_R   0.472841 0.874255 0.112607 -0.098258
C23   C     C_R   0.457625 0.875899 0.386718 -0.108347
C24   C     C_R   0.527168 0.125751 0.612603 -0.098271
C25   C     C_R   0.083333 0.446270 0.623585 -0.247284
C26   C     C_R   0.968756 0.554089 0.375271 -0.241200
C27   C     C_R   0.916665 0.553729 0.123588 -0.247272
C28   C     C_R   0.031276 0.445903 0.875275 -0.241174
C29   C     C_R   0.583326 0.053725 0.876409 -0.247267
C30   C     C_R   0.468745 0.945900 0.124723 -0.241172
C31   C     C_R   0.416674 0.946280 0.376405 -0.247242
C32   C     C_R   0.531282 0.054107 0.624719 -0.241157
C33   C     C_R   0.090852 0.494406 0.578101 0.103372
C34   C     C_R   0.000927 0.504499 0.418517 0.097101
C35   C     C_R   0.909168 0.505591 0.078105 0.103373
C36   C     C_R   0.999128 0.495494 0.918522 0.097103
C37   C     C_R   0.590829 0.005587 0.921891 0.103376
C38   C     C_R   0.500901 0.995490 0.081476 0.097101
C39   C     C_R   0.409194 0.994420 0.421887 0.103382
C40   C     C_R   0.499149 0.004517 0.581472 0.097109
C41   C     C_R   0.050281 0.473514 0.520787 0.034806
C42   C     C_R   0.034375 0.525551 0.476165 0.033283
C43   C     C_R   0.949754 0.526481 0.020791 0.034787
C44   C     C_R   0.965660 0.474444 0.976170 0.033278
C45   C     C_R   0.550260 0.026478 0.979206 0.034786
C46   C     C_R   0.534357 0.974441 0.023827 0.033277
C47   C     C_R   0.449775 0.973530 0.479202 0.034765
C48   C     C_R   0.465677 0.025566 0.523823 0.033271
C49   C     C_R   0.037933 0.400989 0.507322 0.081523
C50   C     C_R   0.063520 0.597637 0.488871 0.070280
C51   C     C_R   0.962137 0.599006 0.007325 0.081525
C52   C     C_R   0.936519 0.402358 0.988879 0.070308
C53   C     C_R   0.537888 0.099002 0.992672 0.081524
C54   C     C_R   0.563489 0.902355 0.011119 0.070311
C55   C     C_R   0.462183 0.901007 0.492668 0.081527
C56   C     C_R   0.436550 0.097653 0.511113 0.070332
C57   C     C_R   0.151711 0.562575 0.588396 -0.208466
C58   C     C_R   0.017931 0.433966 0.403834 -0.203250
C59   C     C_R   0.848340 0.437419 0.088405 -0.208472
C60   C     C_R   0.982186 0.566030 0.903838 -0.203250
C61   C     C_R   0.651647 0.937415 0.911590 -0.208471
C62   C     C_R   0.517860 0.066025 0.096159 -0.203254
C63   C     C_R   0.348402 0.062595 0.411584 -0.208476
C64   C     C_R   0.482250 0.933979 0.596155 -0.203251
C65   C     C_R   0.151944 0.611478 0.543134 -0.206687
C66   C     C_R   0.050180 0.383989 0.447187 -0.201053
C67   C     C_R   0.848137 0.388511 0.043148 -0.206658
C68   C     C_R   0.949957 0.616008 0.947188 -0.201057
C69   C     C_R   0.651860 0.888506 0.956848 -0.206656
C70   C     C_R   0.550083 0.116004 0.052808 -0.201052
C71   C     C_R   0.348210 0.111506 0.456839 -0.206638
C72   C     C_R   0.450056 0.883999 0.552805 -0.201064
C73   C     C_R   0.002182 0.270927 0.541766 0.079264
C74   C     C_R   0.067125 0.218565 0.580631 -0.116855
C75   C     C_R   0.031550 0.147665 0.571620 -0.097983
C76   C     C_R   0.942080 0.125606 0.520859 -0.080698
C77   C     C_R   0.886145 0.174732 0.479730 -0.144111
C78   C     C_R   0.909354 0.246061 0.491047 -0.129849
H25   H     H_    0.154906 0.230161 0.616944 0.130442
H26   H     H_    0.081606 0.109528 0.602990 0.119006
H27   H     H_    0.919186 0.070597 0.512921 0.110976
H28   H     H_    0.818004 0.157629 0.439772 0.111768
H29   H     H_    0.846051 0.280908 0.460076 0.126397
C79   C     C_R   0.013687 0.730259 0.462513 0.097179
C80   C     C_R   0.007327 0.785783 0.420879 -0.138057
C81   C     C_R   0.999985 0.856001 0.437337 -0.104454
C82   C     C_R   0.001402 0.874713 0.495982 -0.068655
C83   C     C_R   0.005191 0.823032 0.538369 -0.150175
C84   C     C_R   0.004370 0.752684 0.522093 -0.138411
H30   H     H_    0.009402 0.779224 0.374834 0.136011
H31   H     H_    0.995580 0.896274 0.404061 0.118170
H32   H     H_    0.997126 0.929131 0.508549 0.108689
H33   H     H_    0.997771 0.837287 0.584259 0.109852
H34   H     H_    0.974739 0.717578 0.557603 0.106444
C85   C     C_R   0.997888 0.729064 0.041769 0.079246
C86   C     C_R   0.932867 0.781426 0.080620 -0.116825
C87   C     C_R   0.968451 0.852326 0.071611 -0.097986
C88   C     C_R   0.058009 0.874384 0.020864 -0.080735
C89   C     C_R   0.114025 0.825257 0.979747 -0.144090
C90   C     C_R   0.090807 0.753927 0.991065 -0.129864
H35   H     H_    0.845016 0.769825 0.116919 0.130432
H36   H     H_    0.918331 0.890464 0.102970 0.119014
H37   H     H_    0.080907 0.929393 0.012926 0.110984
H38   H     H_    0.182234 0.842360 0.939799 0.111784
H39   H     H_    0.154157 0.719075 0.960106 0.126424
C91   C     C_R   0.986361 0.269742 0.962529 0.097212
C92   C     C_R   0.992541 0.214216 0.920899 -0.138143
C93   C     C_R   0.999960 0.144000 0.937360 -0.104429
C94   C     C_R   0.998781 0.125295 0.996007 -0.068634
C95   C     C_R   0.995131 0.176981 0.038391 -0.150185
C96   C     C_R   0.995872 0.247328 0.022107 -0.138376
H40   H     H_    0.990226 0.220776 0.874856 0.136019
H41   H     H_    0.004220 0.103725 0.904086 0.118186
H42   H     H_    0.003120 0.070878 0.008578 0.108680
H43   H     H_    0.002721 0.162732 0.084279 0.109840
H44   H     H_    0.025560 0.282446 0.057604 0.106455
C97   C     C_R   0.502133 0.229060 0.958227 0.079240
C98   C     C_R   0.567156 0.281420 0.919374 -0.116830
C99   C     C_R   0.531572 0.352320 0.928380 -0.097984
C100  C     C_R   0.442015 0.374380 0.979126 -0.080738
C101  C     C_R   0.386002 0.325254 0.020246 -0.144092
C102  C     C_R   0.409219 0.253924 0.008931 -0.129855
H45   H     H_    0.655011 0.269818 0.883078 0.130446
H46   H     H_    0.581692 0.390457 0.897018 0.119016
H47   H     H_    0.419116 0.429389 0.987061 0.110987
H48   H     H_    0.317796 0.342359 0.060193 0.111783
H49   H     H_    0.345874 0.219072 0.039891 0.126425
C103  C     C_R   0.513661 0.769739 0.037473 0.097209
C104  C     C_R   0.507506 0.714214 0.079105 -0.138165
C105  C     C_R   0.500097 0.643997 0.062646 -0.104425
C106  C     C_R   0.501258 0.625291 0.004000 -0.068632
C107  C     C_R   0.504890 0.676975 0.961614 -0.150178
C108  C     C_R   0.504145 0.747322 0.977895 -0.138372
H50   H     H_    0.509838 0.720775 0.125146 0.136032
H51   H     H_    0.495859 0.603723 0.095923 0.118192
H52   H     H_    0.496925 0.570874 0.991432 0.108680
H53   H     H_    0.497289 0.662725 0.915727 0.109841
H54   H     H_    0.474450 0.782439 0.942398 0.106452
C109  C     C_R   0.497943 0.770956 0.458223 0.079208
C110  C     C_R   0.432816 0.718596 0.419390 -0.116794
C111  C     C_R   0.468422 0.647697 0.428392 -0.097989
C112  C     C_R   0.558099 0.625640 0.479119 -0.080793
C113  C     C_R   0.614217 0.674769 0.520223 -0.144065
C114  C     C_R   0.590987 0.746099 0.508906 -0.129876
H55   H     H_    0.344862 0.730205 0.383115 0.130445
H56   H     H_    0.418222 0.609558 0.397046 0.119029
H57   H     H_    0.581011 0.570631 0.487054 0.111001
H58   H     H_    0.682518 0.657667 0.560156 0.111807
H59   H     H_    0.654395 0.780959 0.539848 0.126471
C115  C     C_R   0.486396 0.230264 0.537464 0.097227
C116  C     C_R   0.492455 0.285789 0.579094 -0.138199
C117  C     C_R   0.499918 0.356004 0.562633 -0.104412
C118  C     C_R   0.498894 0.374708 0.503986 -0.068618
C119  C     C_R   0.495339 0.323021 0.461602 -0.150188
C120  C     C_R   0.496034 0.252674 0.477887 -0.138352
H60   H     H_    0.489986 0.279227 0.625134 0.136030
H61   H     H_    0.504080 0.396279 0.595908 0.118197
H62   H     H_    0.503266 0.429124 0.491414 0.108678
H63   H     H_    0.503038 0.337267 0.415716 0.109834
H64   H     H_    0.525762 0.217551 0.442398 0.106461

loop_
_geom_bond_atom_site_label_1
_geom_bond_atom_site_label_2
_ccdc_geom_bond_type
O14   V4    S    
C84   H34   S    
C40   C48   A    
C112  C113  A    
C16   C115  S    
C22   C30   A    
C11   C51   A    
C118  C119  A    
C21   C29   A    
C47   C48   A    
H8    C64   S    
C60   C68   A    
C27   C35   A    
C82   H32   S    
C62   C70   A    
C23   C31   A    
O4    C1    A    
O9    C1    A    
C82   C83   A    
H24   C72   S    
C97   C98   A    
H11   C27   S    
C45   C46   A    
C77   C78   A    
C58   C66   A    
C11   C85   S    
C53   C70   A    
H20   C68   S    
C57   C65   A    
C93   C94   A    
C38   C62   A    
C26   C34   A    
C88   C89   A    
C37   C61   A    
C39   C63   A    
H21   C69   S    
C85   C86   A    
C18   C26   A    
C117  H61   S    
C17   C25   A    
C14   C22   A    
C63   C71   A    
C101  C102  A    
C25   C33   A    
C74   H25   S    
C113  H58   S    
C38   C46   A    
C89   C90   A    
C11   C19   A    
C5    C19   S    
C37   C45   A    
C77   H28   S    
H18   C66   S    
C94   C95   A    
C55   C72   A    
C34   C58   A    
C10   C79   S    
C117  C118  A    
H6    C62   S    
C10   C50   A    
O1    C4    A    
C101  H48   S    
H16   C32   S    
O2    C3    A    
C1    C23   S    
H12   C28   S    
C4    C22   S    
O12   V1    S    
C3    C21   S    
C56   C71   A    
H19   C67   S    
C30   C38   A    
H23   C71   S    
O6    C7    A    
C29   C37   A    
C116  C117  A    
C35   C59   A    
O7    C6    A    
C115  C120  A    
C28   C36   A    
C98   C99   A    
C100  H47   S    
C52   C67   A    
C81   H31   S    
O6    V2    S    
C111  H56   S    
C31   C39   A    
C47   C55   A    
C87   C88   A    
C102  H49   S    
C103  C108  A    
C33   C57   A    
C119  C120  A    
C61   C69   A    
C113  C114  A    
C105  C106  A    
C75   C76   A    
C15   C55   A    
C45   C53   A    
C99   C100  A    
C64   C72   A    
C79   C80   A    
C50   C65   A    
C43   C51   A    
H14   C30   S    
O19   V3    S    
C79   C84   A    
O14   C6    A    
H13   C29   S    
O2    V4    S    
O18   V4    S    
C88   H37   S    
C41   C49   A    
C110  C111  A    
O19   V1    S    
H15   C31   S    
C105  H51   S    
C13   C53   A    
H2    C58   S    
C83   H33   S    
H1    C57   S    
C80   C81   A    
O3    V4    S    
C8    C18   S    
O11   C3    A    
C118  H62   S    
C9    C49   A    
C91   C92   A    
O20   V2    S    
O18   V2    S    
C2    C24   S    
C80   H30   S    
O11   V2    S    
C59   C67   A    
C73   C74   A    
C115  C116  A    
C54   C69   A    
C95   H43   S    
H10   C26   S    
C112  H57   S    
H9    C25   S    
C103  C104  A    
O12   C4    A    
C110  H55   S    
C15   C109  S    
C119  H63   S    
C48   C56   A    
O4    V3    S    
C116  H60   S    
H22   C70   S    
C19   C27   A    
C90   H39   S    
O8    C5    A    
C41   C42   A    
C14   C103  S    
C51   C68   A    
H7    C63   S    
C107  C108  A    
C44   C52   A    
C10   C18   A    
C106  H52   S    
O13   C5    A    
C97   C102  A    
C7    C17   S    
C39   C47   A    
C100  C101  A    
C86   H35   S    
C92   H40   S    
O3    C2    A    
C16   C56   A    
C87   H36   S    
H17   C65   S    
C86   C87   A    
C12   C52   A    
O8    V1    S    
C93   H41   S    
H5    C61   S    
C108  H54   S    
O15   C7    A    
C99   H46   S    
O16   C8    A    
C35   C43   A    
C120  H64   S    
C81   C82   A    
C34   C42   A    
C73   C78   A    
C13   C21   A    
O15   V4    S    
O5    C8    A    
C89   H38   S    
O5    V1    S    
O16   V3    S    
C33   C41   A    
C91   C96   A    
C32   C40   A    
O17   V3    S    
C114  H59   S    
C20   C28   A    
O10   C2    A    
C75   H26   S    
C95   C96   A    
C78   H29   S    
O17   V1    S    
C9    C17   A    
C94   H42   S    
C36   C60   A    
C109  C114  A    
C76   H27   S    
C13   C97   S    
C16   C24   A    
O1    V3    S    
C111  C112  A    
O10   V2    S    
C12   C91   S    
C85   C90   A    
C107  H53   S    
C9    C73   S    
C106  C107  A    
C40   C64   A    
O20   V4    S    
C98   H45   S    
O9    V1    S    
C12   C20   A    
C24   C32   A    
C104  C105  A    
C92   C93   A    
C74   C75   A    
C96   H44   S    
C83   C84   A    
C109  C110  A    
C36   C44   A    
O7    V2    S    
O13   V3    S    
C49   C66   A    
C15   C23   A    
C42   C50   A    
C6    C20   S    
C43   C44   A    
C104  H50   S    
C46   C54   A    
H4    C60   S    
C76   C77   A    
C14   C54   A    
H3    C59   S    
