data_mof_unit_494.cif
_audit_creation_date              2012-12-10T17:02:55-0500
_audit_creation_method            fapswitch 2.2
_symmetry_space_group_name_H-M    P1
_symmetry_Int_Tables_number       1
_space_group_crystal_system       triclinic
_cell_length_a                    9.875063
_cell_length_b                    11.042412
_cell_length_c                    13.316974
_cell_angle_alpha                 95.786451
_cell_angle_beta                  80.889907
_cell_angle_gamma                 111.689621
_cell_volume                      1330.8929273

loop_
_atom_site_label
_atom_site_type_symbol
_atom_type_description
_atom_site_fract_x
_atom_site_fract_y
_atom_site_fract_z
_atom_type_partial_charge
C1    C     C_R   0.558053 0.745856 0.505994 0.813735
C2    C     C_R   0.440997 0.504919 0.972468 -0.010789
C3    C     C_R   0.475585 0.551238 0.873044 0.007628
C4    C     C_R   0.552833 0.541909 0.036788 0.026205
C5    C     C_R   0.686974 0.647055 0.009958 0.027122
C6    C     C_R   0.711842 0.707627 0.916860 0.086935
C7    C     C_R   0.605045 0.661454 0.849440 0.214050
C8    C     C_R   0.535450 0.476805 0.127379 0.223016
C9    C     C_R   0.759023 0.643035 0.175505 -0.233278
C10   C     C_R   0.374937 0.489330 0.801692 -0.119826
C11   C     C_2   0.594578 0.886796 0.506278 0.064970
C12   C     C_R   0.422984 0.493028 0.691101 0.875819
C13   C     C_2   0.490765 0.932086 0.491604 -0.155597
C14   C     C_2   0.411858 0.114580 0.485915 -0.361674
C15   C     C_2   0.517183 0.071035 0.498085 -0.127883
C16   C     C_2   0.922123 0.487069 0.493132 -0.092668
C17   C     C_2   0.075502 0.508980 0.511970 0.253108
C18   C     C_R   0.443101 0.254389 0.492153 0.854310
C19   C     C_R   0.578029 0.511700 0.309246 0.770983
C20   C     C_R   0.790931 0.692763 0.079285 -0.123108
C21   C     C_R   0.628770 0.538660 0.201530 -0.096020
C22   C     C_R   0.230475 0.409828 0.836396 -0.195564
C23   C     C_R   0.188146 0.385362 0.939134 0.208057
C24   C     C_R   0.292694 0.429940 0.006380 -0.144673
Cu1   Cu    Cu3+1 0.362000 0.479240 0.482530 0.969386
Cu2   Cu    Cu3+1 0.638000 0.520760 0.517470 0.959683
H1    H     H_    0.833829 0.689844 0.231083 0.163008
H2    H     H_    0.382317 0.865370 0.476890 0.173978
H3    H     H_    0.303796 0.047520 0.470733 0.161787
H4    H     H_    0.873107 0.413774 0.435675 0.146488
H5    H     H_    0.107856 0.385622 0.397917 0.170977
H6    H     H_    0.890253 0.624979 0.595929 0.236126
H7    H     H_    0.893913 0.772635 0.063196 0.184723
H8    H     H_    0.150886 0.365090 0.783639 0.190522
H9    H     H_    0.254690 0.409667 0.085662 0.184475
H10   H     H_    0.624339 0.139043 0.513959 0.218379
N1    N     N_2   0.845330 0.551960 0.543750 -0.280142
N2    N     N_2   0.154690 0.448120 0.456210 -0.301779
O1    O     O_R   0.426290 0.668220 0.490680 -0.561927
O2    O     O_R   0.659360 0.703290 0.520190 -0.576587
O3    O     O_R   0.326580 0.473880 0.629020 -0.551971
O4    O     O_R   0.559660 0.508940 0.658530 -0.554620
O5    O     O_R   0.340640 0.296710 0.479810 -0.576136
O6    O     O_R   0.573710 0.331780 0.509320 -0.576416
O7    O     O_R   0.440340 0.491060 0.341470 -0.577681
O8    O     O_R   0.673420 0.526120 0.370980 -0.571980
N3    N     N_2   0.738026 0.973541 0.524366 -0.429129
H11   H     H_    0.782444 0.941419 0.576605 0.273713
C25   C     C_3   0.839909 0.014434 0.432707 -0.671384
H12   H     H_    0.945653 0.086960 0.453107 0.230962
H13   H     H_    0.795627 0.060882 0.382248 0.236128
H14   H     H_    0.860823 0.929285 0.391121 0.225899
I1    I     I_    0.154469 0.643519 0.637114 -0.356154
I2    I     I_    0.907668 0.873405 0.877279 -0.374890
N4    N     N_2   0.436826 0.344590 0.138805 -0.457693
H15   H     H_    0.405478 0.313292 0.212040 0.257958
C26   C     C_3   0.479152 0.250301 0.070494 -0.627521
H16   H     H_    0.393260 0.151823 0.081147 0.230932
H17   H     H_    0.585016 0.248053 0.087090 0.241240
H18   H     H_    0.490536 0.274192 0.989830 0.249349
I3    I     I_    0.967551 0.274558 0.992040 -0.374565
N5    N     N_2   0.616006 0.737177 0.765862 -0.423067
H19   H     H_    0.719250 0.776444 0.725770 0.281581
C27   C     C_3   0.539574 0.828054 0.788454 -0.634544
H20   H     H_    0.547293 0.878687 0.718888 0.228667
H21   H     H_    0.589540 0.902263 0.847860 0.249590
H22   H     H_    0.421371 0.775574 0.815122 0.247778

loop_
_geom_bond_atom_site_label_1
_geom_bond_atom_site_label_2
_ccdc_geom_bond_type
C2    C4    A    
C23   C24   A    
C19   O7    A    
C7    N5    S    
N5    H19   S    
C18   O6    A    
Cu1   N2    S    
C14   C18   S    
C9    C20   A    
C11   N3    S    
N3    H11   S    
C1    C11   S    
H5    N2    S    
C16   N1    D    
C4    C8    A    
C25   H14   S    
C9    C21   A    
C27   H20   S    
Cu1   O5    S    
N4    H15   S    
C13   C15   S    
C2    C3    A    
C19   O8    A    
Cu2   O6    S    
C13   H2    S    
Cu2   N1    S    
C18   O5    A    
Cu1   O1    S    
C11   C13   D    
Cu2   O2    S    
C26   H16   S    
C6    C7    A    
C12   O4    A    
C10   C12   S    
C6    I2    S    
C20   H7    S    
C8    N4    S    
Cu1   O7    S    
C19   C21   S    
C8    C21   A    
C3    C7    A    
C17   N2    D    
N4    C26   S    
Cu2   O4    S    
C2    C24   A    
C5    C6    A    
C22   H8    S    
C5    C20   A    
C26   H17   S    
C24   H9    S    
Cu2   O8    S    
C14   H3    S    
C16   H4    S    
C27   H22   S    
C17   I1    S    
C15   H10   S    
C23   I3    S    
C9    H1    S    
C12   O3    A    
N3    C25   S    
C25   H12   S    
Cu1   O3    S    
C3    C10   A    
C1    O1    A    
C14   C15   D    
C16   C17   S    
C26   H18   S    
N5    C27   S    
C1    O2    A    
Cu1   Cu2   S    
H6    N1    S    
C22   C23   A    
C10   C22   A    
C4    C5    A    
C25   H13   S    
C27   H21   S    
