data_mof_unit_1957.cif
_audit_creation_date              2012-12-10T18:23:05-0500
_audit_creation_method            fapswitch 2.2
_symmetry_space_group_name_H-M    P1
_symmetry_Int_Tables_number       1
_space_group_crystal_system       triclinic
_cell_length_a                    15.007249
_cell_length_b                    14.017115
_cell_length_c                    10.516874
_cell_angle_alpha                 89.695372
_cell_angle_beta                  89.98312
_cell_angle_gamma                 89.962173
_cell_volume                      2212.28026018

loop_
_atom_site_label
_atom_site_type_symbol
_atom_type_description
_atom_site_fract_x
_atom_site_fract_y
_atom_site_fract_z
_atom_type_partial_charge
C1    C     C_R   0.326487 0.500003 0.500360 0.901679
C2    C     C_R   0.673517 0.499968 0.499804 0.901059
C3    C     C_R   0.953658 0.499870 0.500808 0.060374
C4    C     C_R   0.046357 0.499872 0.501259 0.060727
C5    C     C_R   0.907378 0.412407 0.495372 0.119584
C6    C     C_R   0.092628 0.587341 0.506684 0.113003
C7    C     C_R   0.953588 0.673858 0.511237 -0.211069
C8    C     C_R   0.046431 0.325900 0.490746 -0.218577
C9    C     C_R   0.046158 0.673857 0.511787 -0.209528
C10   C     C_R   0.953864 0.325891 0.490560 -0.215085
C11   C     C_R   0.564826 0.798170 0.435493 0.032792
C12   C     C_R   0.434264 0.201878 0.562480 0.038713
C13   C     C_R   0.434811 0.797845 0.563797 0.002465
C14   C     C_R   0.565151 0.202284 0.436099 -0.008963
C15   C     C_R   0.432403 0.898670 0.564431 -0.114959
C16   C     C_R   0.567087 0.101514 0.434405 -0.119828
C17   C     C_R   0.566383 0.898974 0.433010 -0.125192
C18   C     C_R   0.431754 0.101153 0.562746 -0.120816
C19   C     C_R   0.499391 0.949495 0.498667 -0.065746
C20   C     C_R   0.499457 0.050637 0.498696 -0.064797
C21   C     C_R   0.365087 0.949266 0.629515 0.410193
C22   C     C_R   0.634938 0.050880 0.370547 0.411794
C23   C     C_R   0.632868 0.950038 0.366198 0.409222
C24   C     C_R   0.362922 0.050322 0.624495 0.413844
C25   C     C_R   0.499755 0.500383 0.257368 0.985323
C26   C     C_R   0.500438 0.499544 0.742673 0.984379
C27   C     C_3   0.496148 0.590209 0.037580 0.515997
C28   C     C_3   0.504305 0.409227 0.962607 0.503253
C29   C     C_3   0.571310 0.547163 0.958347 0.478908
C30   C     C_3   0.429147 0.452326 0.041844 0.474004
C31   C     C_3   0.423447 0.542062 0.956539 -0.501556
C32   C     C_3   0.576996 0.457378 0.043675 -0.504661
C33   C     C_3   0.500009 0.498403 0.877205 -0.257109
C34   C     C_3   0.500426 0.501140 0.122916 -0.258848
C35   C     C_R   0.815216 0.413070 0.494845 -0.257139
C36   C     C_R   0.184779 0.586721 0.506653 -0.253164
C37   C     C_R   0.769390 0.499904 0.499813 -0.067387
C38   C     C_R   0.230621 0.499944 0.501089 -0.067988
C39   C     C_R   0.815114 0.586707 0.505090 -0.241281
C40   C     C_R   0.184921 0.413092 0.496147 -0.246533
C41   C     C_R   0.907256 0.587339 0.505713 0.109862
C42   C     C_R   0.092771 0.412417 0.496101 0.115909
H1    H     H_    0.362489 0.575076 0.915788 0.173527
H2    H     H_    0.637849 0.424169 0.084466 0.176908
H3    H     H_    0.779373 0.345987 0.490462 0.159685
H4    H     H_    0.220610 0.653820 0.510894 0.171789
H5    H     H_    0.779196 0.653817 0.508981 0.170931
H6    H     H_    0.220850 0.345999 0.491978 0.160698
H7    H     H_    0.918275 0.741260 0.515079 0.156417
H8    H     H_    0.081708 0.258519 0.486552 0.135011
H9    H     H_    0.081363 0.741259 0.516035 0.158878
H10   H     H_    0.918706 0.258490 0.486689 0.134193
H11   H     H_    0.615216 0.757461 0.385995 0.167211
H12   H     H_    0.383778 0.242571 0.611815 0.170226
H13   H     H_    0.384704 0.756895 0.614026 0.166514
H14   H     H_    0.615570 0.243315 0.386658 0.164945
N1    N     N_R   0.500000 0.750030 0.500000 -0.123910
N2    N     N_R   0.500000 0.249970 0.500000 -0.123411
O1    O     O_R   0.367850 0.580280 0.500030 -0.639456
O2    O     O_R   0.632150 0.419720 0.499970 -0.640831
O3    O     O_R   0.632150 0.580280 0.499970 -0.634585
O4    O     O_R   0.367850 0.419720 0.500030 -0.636275
O5    O     O_R   0.499970 0.580260 0.313950 -0.588067
O6    O     O_R   0.500030 0.419740 0.686050 -0.586307
O7    O     O_R   0.500030 0.580260 0.686050 -0.619302
O8    O     O_R   0.499970 0.419740 0.313950 -0.618714
Zn1   Zn    Zn3+2 0.500000 0.607200 0.500000 0.971091
Zn2   Zn    Zn3+2 0.500000 0.392800 0.500000 0.970363
O9    O     O_3   0.494180 0.683168 0.088275 -0.592370
C43   C     C_3   0.478555 0.749133 0.989426 -0.324760
H15   H     H_    0.411911 0.737942 0.946049 0.168396
H16   H     H_    0.531469 0.745944 0.915531 0.201593
H17   H     H_    0.479168 0.822019 0.029878 0.167246
O10   O     O_3   0.506077 0.316098 0.912287 -0.590605
C44   C     C_3   0.522099 0.250081 0.011122 -0.254511
H18   H     H_    0.472335 0.256570 0.089013 0.192222
H19   H     H_    0.590769 0.257947 0.049212 0.172288
H20   H     H_    0.516312 0.177007 0.972020 0.179065
O11   O     O_3   0.642740 0.597360 0.902099 -0.597931
C45   C     C_3   0.703425 0.624496 0.997384 -0.294957
H21   H     H_    0.737253 0.561074 0.039055 0.167583
H22   H     H_    0.670703 0.666985 0.073281 0.182042
H23   H     H_    0.755476 0.670172 0.953523 0.186894
O12   O     O_3   0.357719 0.402289 0.098359 -0.601581
C46   C     C_3   0.296834 0.375210 0.003323 -0.274007
H24   H     H_    0.329272 0.331969 0.927928 0.195412
H25   H     H_    0.263481 0.438679 0.960987 0.160219
H26   H     H_    0.244396 0.330294 0.047636 0.188789
O13   O     O_3   0.298309 0.899401 0.691726 -0.615707
C47   C     C_3   0.312168 0.905581 0.824125 -0.289083
H27   H     H_    0.287279 0.974670 0.861136 0.219812
H28   H     H_    0.383412 0.895780 0.850892 0.122339
H29   H     H_    0.273547 0.848041 0.871459 0.179841
O14   O     O_3   0.700832 0.099691 0.305288 -0.607426
C48   C     C_3   0.774956 0.109927 0.386395 -0.300931
H30   H     H_    0.803554 0.039397 0.413352 0.196714
H31   H     H_    0.757536 0.151178 0.473118 0.137697
H32   H     H_    0.827358 0.150288 0.334783 0.186100
O15   O     O_3   0.699708 0.901757 0.302747 -0.607570
C49   C     C_3   0.673466 0.890261 0.175050 -0.303220
H33   H     H_    0.663885 0.960334 0.126650 0.189562
H34   H     H_    0.611835 0.846603 0.167990 0.170392
H35   H     H_    0.727013 0.851688 0.123838 0.186759
O16   O     O_3   0.295258 0.099250 0.685225 -0.612324
C50   C     C_3   0.223125 0.108735 0.600240 -0.322157
H36   H     H_    0.195460 0.037930 0.573747 0.197707
H37   H     H_    0.242530 0.149493 0.513391 0.141429
H38   H     H_    0.169356 0.149286 0.648151 0.188653

loop_
_geom_bond_atom_site_label_1
_geom_bond_atom_site_label_2
_ccdc_geom_bond_type
C14   H14   S    
C27   C29   S    
C23   O15   S    
C19   C20   A    
C9    H9    S    
C10   H10   S    
C1    O4    A    
C6    C9    A    
C48   H32   S    
C39   C41   A    
C21   O13   S    
C46   H24   S    
C15   C19   A    
C50   H37   S    
C17   C23   A    
C31   H1    S    
C18   C24   A    
O6    Zn2   S    
C35   C37   A    
C8    C42   A    
C29   C32   S    
C1    O1    A    
C30   C31   S    
C2    O2    A    
C13   N1    A    
O8    Zn2   S    
C29   C33   S    
C40   H6    S    
C25   O5    A    
C26   O6    A    
O1    Zn1   S    
C11   C17   A    
C48   H30   S    
O7    Zn1   S    
C31   C33   S    
C36   H4    S    
C43   H15   S    
C11   H11   S    
C2    O3    A    
C25   C34   S    
C12   N2    A    
C40   C42   A    
C28   O10   S    
C22   O14   S    
O14   C48   S    
N1    Zn1   S    
C45   H23   S    
O16   C50   S    
C46   H25   S    
C27   C34   S    
C14   N2    A    
C50   H38   S    
O5    Zn1   S    
O10   C44   S    
C30   C34   S    
C27   C31   S    
C28   C32   S    
O12   C46   S    
C7    H7    S    
C4    C6    A    
C49   H35   S    
C24   O16   S    
C32   C34   S    
C44   H18   S    
O3    Zn1   S    
C26   C33   S    
C47   H28   S    
O15   C49   S    
C29   O11   S    
C16   C20   A    
C43   H17   S    
C49   H34   S    
C32   H2    S    
C44   H19   S    
C1    C38   S    
C45   H22   S    
C28   C33   S    
C13   C15   A    
C14   C16   A    
C3    C4    A    
C35   H3    S    
C8    H8    S    
C47   H29   S    
C39   H5    S    
C46   H26   S    
N2    Zn2   S    
C7    C9    A    
C3    C41   A    
C16   C22   A    
C26   O7    A    
C25   O8    A    
C45   H21   S    
C3    C5    A    
C27   O9    S    
C48   H31   S    
C50   H36   S    
O4    Zn2   S    
C28   C30   S    
C5    C10   A    
C37   C39   A    
C38   C40   A    
C2    C37   S    
C47   H27   S    
C4    C42   A    
C5    C35   A    
C36   C38   A    
C49   H33   S    
C17   C19   A    
C6    C36   A    
C18   C20   A    
C7    C41   A    
C30   O12   S    
O9    C43   S    
C44   H20   S    
O11   C45   S    
C15   C21   A    
O2    Zn2   S    
C8    C10   A    
C21   C24   A    
C12   C18   A    
C22   C23   A    
C43   H16   S    
O13   C47   S    
C11   N1    A    
C12   H12   S    
C13   H13   S    
