data_mof_unit_1711.cif
_audit_creation_date              2012-12-10T17:52:00-0500
_audit_creation_method            fapswitch 2.2
_symmetry_space_group_name_H-M    P1
_symmetry_Int_Tables_number       1
_space_group_crystal_system       triclinic
_cell_length_a                    14.697943
_cell_length_b                    14.689238
_cell_length_c                    19.268743
_cell_angle_alpha                 77.009671
_cell_angle_beta                  103.113748
_cell_angle_gamma                 114.758436
_cell_volume                      3639.41690859

loop_
_atom_site_label
_atom_site_type_symbol
_atom_type_description
_atom_site_fract_x
_atom_site_fract_y
_atom_site_fract_z
_atom_type_partial_charge
C1    C     C_R   0.880500 0.312354 0.512362 0.784168
C2    C     C_R   0.119653 0.687758 0.488120 0.806081
C3    C     C_R   0.813508 0.205062 0.515552 -0.055319
C4    C     C_R   0.187200 0.795384 0.481612 -0.058802
C5    C     C_R   0.782704 0.031819 0.509794 -0.169172
C6    C     C_R   0.216509 0.972685 0.468255 -0.166717
C7    C     C_R   0.849987 0.131523 0.514316 -0.216430
C8    C     C_R   0.149685 0.871619 0.470432 -0.189554
C9    C     C_R   0.710161 0.177604 0.514633 -0.249141
C10   C     C_R   0.291502 0.821353 0.488434 -0.244595
C11   C     C_R   0.639936 0.079293 0.504924 0.078580
C12   C     C_R   0.360302 0.922779 0.484212 0.090660
C13   C     C_R   0.678131 0.005463 0.504088 0.149594
C14   C     C_R   0.321337 0.998652 0.476096 0.159592
C15   C     C_R   0.533331 0.052994 0.494612 0.066362
C16   C     C_R   0.466597 0.950357 0.489869 0.065685
C17   C     C_R   0.508080 0.879211 0.489121 -0.214460
C18   C     C_R   0.491155 0.126406 0.486223 -0.216414
C19   C     C_R   0.611740 0.906631 0.495903 -0.188358
C20   C     C_R   0.387205 0.099544 0.476395 -0.192293
C21   C     C_R   0.720643 0.676402 0.384930 -0.104823
C22   C     C_R   0.279530 0.323975 0.615533 -0.102817
C23   C     C_R   0.998323 0.497386 0.632428 0.788773
C24   C     C_R   0.997752 0.496536 0.367604 0.790140
C25   C     C_R   0.799487 0.641906 0.402182 -0.021452
C26   C     C_R   0.200719 0.358520 0.598183 -0.004009
C27   C     C_R   0.714292 0.509086 0.488965 0.009446
C28   C     C_R   0.285381 0.490358 0.510672 0.015047
C29   C     C_R   0.629479 0.537273 0.473523 -0.045939
C30   C     C_R   0.370181 0.462152 0.526183 -0.047176
C31   C     C_R   0.632947 0.621760 0.419249 0.129559
C32   C     C_R   0.366920 0.378034 0.580778 0.126967
C33   C     C_R   0.541992 0.484535 0.509846 0.091947
C34   C     C_R   0.457561 0.514707 0.489739 0.095952
C35   C     C_R   0.462886 0.595847 0.433330 -0.265158
C36   C     C_R   0.536688 0.403430 0.566277 -0.263684
C37   C     C_R   0.547865 0.647496 0.399119 -0.160061
C38   C     C_R   0.451926 0.352150 0.600771 -0.147555
C39   C     C_R   0.986224 0.404743 0.759303 0.073492
C40   C     C_R   0.905974 0.450701 0.243549 0.063620
C41   C     C_R   0.992018 0.409384 0.833358 -0.005264
C42   C     C_R   0.912226 0.456450 0.169939 0.001293
C43   C     C_R   0.005980 0.501673 0.854182 -0.045999
C44   C     C_R   0.006814 0.510146 0.144955 -0.026239
C45   C     C_R   0.011425 0.586454 0.802169 -0.143885
C46   C     C_R   0.094786 0.550784 0.193054 -0.151457
C47   C     C_R   0.007165 0.582677 0.730287 -0.207512
C48   C     C_R   0.089938 0.542950 0.265330 -0.208416
C49   C     C_R   0.996670 0.493891 0.708551 -0.065847
C50   C     C_R   0.996806 0.495514 0.291155 -0.072135
C51   C     C_R   0.016018 0.517984 0.069468 0.391857
C52   C     C_R   0.013742 0.511510 0.929926 0.385467
Cu1   Cu    Cu3+1 0.081740 0.475680 0.518680 0.938843
Cu2   Cu    Cu3+1 0.918260 0.524320 0.481320 0.930913
H1    H     H_    0.544126 0.706604 0.355054 0.198951
H2    H     H_    0.455837 0.293271 0.644971 0.198817
H3    H     H_    0.281107 0.552574 0.470131 0.122396
H4    H     H_    0.718301 0.446464 0.529181 0.124473
H5    H     H_    0.133600 0.318556 0.624055 0.118247
H6    H     H_    0.866813 0.682271 0.376581 0.128157
H7    H     H_    0.401738 0.621405 0.413249 0.131406
H8    H     H_    0.597806 0.377806 0.586275 0.133307
H9    H     H_    0.021273 0.656962 0.817543 0.164412
H10   H     H_    0.167701 0.589442 0.174348 0.155382
H11   H     H_    0.014026 0.650297 0.691344 0.150662
H12   H     H_    0.159438 0.576723 0.301131 0.146711
H13   H     H_    0.640066 0.849978 0.494119 0.168575
H14   H     H_    0.358240 0.158303 0.469797 0.157335
H15   H     H_    0.317532 0.760478 0.499454 0.150028
H16   H     H_    0.686616 0.235240 0.520617 0.143078
H17   H     H_    0.069140 0.853076 0.464982 0.157264
H18   H     H_    0.930017 0.151366 0.515478 0.163161
H19   H     H_    0.812154 0.975832 0.508644 0.150805
H20   H     H_    0.186317 0.030564 0.461200 0.143661
H21   H     H_    0.462484 0.801996 0.480628 0.143091
H22   H     H_    0.536041 0.206321 0.484707 0.142267
N1    N     N_R   0.962872 0.559734 0.947426 -0.229884
N2    N     N_R   0.070153 0.473232 0.052037 -0.206192
N3    N     N_R   0.963783 0.562674 0.016071 -0.250351
N4    N     N_R   0.069167 0.470233 0.983364 -0.212676
N5    N     N_R   0.795420 0.560800 0.453240 -0.176484
N6    N     N_R   0.204580 0.439200 0.546760 -0.174185
O1    O     O_R   0.977910 0.338110 0.524620 -0.593471
O2    O     O_R   0.022090 0.661890 0.475380 -0.583917
O3    O     O_R   0.839850 0.379180 0.493080 -0.588796
O4    O     O_R   0.160150 0.620820 0.506920 -0.586120
O5    O     O_R   0.069040 0.479450 0.615630 -0.575673
O6    O     O_R   0.930960 0.520550 0.384370 -0.585811
O7    O     O_R   0.930990 0.520520 0.584090 -0.575568
O8    O     O_R   0.069010 0.479480 0.415910 -0.576344
C53   C     C_3   0.959416 0.304042 0.733824 -0.400145
C54   C     C_3   0.845992 0.237997 0.732148 -0.361567
C55   C     C_3   0.821315 0.132236 0.716326 -0.792102
H23   H     H_    0.738143 0.088385 0.710919 0.248644
H24   H     H_    0.858959 0.091569 0.761008 0.266350
H25   H     H_    0.847385 0.137023 0.665452 0.255179
H26   H     H_    0.821914 0.230288 0.784508 0.229923
H27   H     H_    0.801747 0.274578 0.689570 0.209914
H28   H     H_    0.977191 0.314460 0.679100 0.186957
H29   H     H_    0.006404 0.263509 0.767902 0.250564
C56   C     C_3   0.803729 0.395195 0.270538 -0.391070
C57   C     C_3   0.792928 0.289549 0.311220 -0.293313
C58   C     C_3   0.686259 0.228997 0.330116 -0.778732
H30   H     H_    0.669289 0.268008 0.365676 0.247934
H31   H     H_    0.629392 0.219832 0.280440 0.264611
H32   H     H_    0.680398 0.152545 0.358431 0.255979
H33   H     H_    0.808730 0.247261 0.277430 0.262144
H34   H     H_    0.848532 0.296396 0.361469 0.197900
H35   H     H_    0.791523 0.439330 0.304466 0.210256
H36   H     H_    0.740164 0.387845 0.225445 0.220983
C59   C     C_2   0.736633 0.771291 0.333032 0.317704
H37   H     H_    0.782065 0.788740 0.290929 0.080463
O9    O     O_2   0.705884 0.833919 0.339410 -0.545252
C60   C     C_2   0.263858 0.229796 0.668165 0.322153
H38   H     H_    0.218689 0.213157 0.710296 0.082647
O10   O     O_2   0.294542 0.166816 0.662416 -0.540468
C61   C     C_2   0.976916 0.317878 0.888935 0.376906
H39   H     H_    0.928704 0.301942 0.928911 0.086073
O11   O     O_2   0.021447 0.262580 0.892952 -0.529987
C62   C     C_2   0.822495 0.401731 0.119394 0.325321
H40   H     H_    0.803279 0.440108 0.066730 0.105321
O12   O     O_2   0.771418 0.311938 0.135273 -0.531363

loop_
_geom_bond_atom_site_label_1
_geom_bond_atom_site_label_2
_ccdc_geom_bond_type
C15   C18   A    
Cu2   O6    S    
C55   H23   S    
C27   C29   A    
C2    O2    A    
C59   H37   S    
C4    C8    A    
Cu2   O2    S    
C60   H38   S    
C54   H27   S    
C39   C41   A    
C28   H3    S    
C21   C31   A    
C56   C57   S    
C22   C32   A    
C35   C37   A    
C3    C7    A    
C61   O11   D    
N2    N4    A    
C43   C52   S    
C23   C49   S    
C56   H35   S    
C15   C16   A    
C29   C33   A    
C33   C36   A    
C34   C35   A    
C45   C47   A    
C58   H30   S    
C40   C56   S    
C11   C15   A    
C58   H31   S    
C59   O9    D    
C12   C16   A    
C62   O12   D    
C16   C17   A    
C23   O7    A    
C19   H13   S    
Cu1   O4    S    
C25   H6    S    
C32   C38   A    
C53   H29   S    
C26   H5    S    
C5    C13   A    
C48   C50   A    
C55   H24   S    
C23   O5    A    
C25   N5    A    
C41   C43   A    
C42   C44   A    
C36   H8    S    
C39   C53   S    
C21   C59   S    
C44   C46   A    
C54   H26   S    
C6    H20   S    
N1    N3    A    
C24   C50   S    
C46   C48   A    
C30   C34   A    
C28   N6    A    
C14   C20   A    
C27   N5    A    
C9    H16   S    
Cu2   O7    S    
C47   C49   A    
C53   C54   S    
C5    C7    A    
C13   C19   A    
C6    C8    A    
C56   H36   S    
Cu1   Cu2   S    
C45   H9    S    
C31   C37   A    
C46   H10   S    
Cu1   N6    S    
C1    C3    S    
C2    C4    S    
C3    C9    A    
C6    C14   A    
C24   O6    A    
C33   C34   A    
C57   H33   S    
Cu1   O5    S    
C57   H34   S    
C43   C45   A    
C10   C12   A    
C44   C51   S    
C39   C49   A    
C12   C14   A    
C55   H25   S    
C9    C11   A    
C1    O3    A    
C4    C10   A    
C52   N1    A    
C7    H18   S    
C62   H40   S    
C21   C25   A    
C8    H17   S    
C18   H22   S    
C20   H14   S    
C27   H4    S    
C24   O8    A    
Cu2   O3    S    
C60   O10   D    
C1    O1    A    
Cu1   O1    S    
C41   C61   S    
C28   C30   A    
C51   N2    A    
C29   C31   A    
C53   H28   S    
C61   H39   S    
C36   C38   A    
C30   C32   A    
C11   C13   A    
C42   C62   S    
C35   H7    S    
C40   C50   A    
C40   C42   A    
C54   C55   S    
C17   C19   A    
C2    O4    A    
C58   H32   S    
C18   C20   A    
C5    H19   S    
C57   C58   S    
C51   N3    A    
C37   H1    S    
C10   H15   S    
C22   C60   S    
C38   H2    S    
C26   N6    A    
C22   C26   A    
Cu1   O8    S    
C17   H21   S    
C48   H12   S    
C52   N4    A    
C47   H11   S    
Cu2   N5    S    
