data_mof_unit_1908.cif
_audit_creation_date              2012-12-11T16:04:51-0500
_audit_creation_method            fapswitch 2.2
_symmetry_space_group_name_H-M    P1
_symmetry_Int_Tables_number       1
_space_group_crystal_system       triclinic
_cell_length_a                    10.683784
_cell_length_b                    10.657833
_cell_length_c                    16.881475
_cell_angle_alpha                 98.3513
_cell_angle_beta                  98.923092
_cell_angle_gamma                 61.423505
_cell_volume                      1662.02727625

loop_
_atom_site_label
_atom_site_type_symbol
_atom_type_description
_atom_site_fract_x
_atom_site_fract_y
_atom_site_fract_z
_atom_type_partial_charge
C1    C     C_R   0.352320 0.779591 0.400342 0.535876
C2    C     C_3   0.417665 0.698966 0.258507 -0.106637
C3    C     C_3   0.340604 0.822265 0.321182 0.055758
C4    C     C_R   0.369750 0.346683 0.358997 0.547367
C5    C     C_3   0.392451 0.915723 0.290356 -0.129527
C6    C     C_3   0.253613 0.973428 0.232596 -0.111579
C7    C     C_3   0.202852 0.878769 0.264754 -0.124849
C8    C     C_3   0.279031 0.756244 0.201343 -0.125094
C9    C     C_3   0.329780 0.849699 0.169651 0.056383
C10   C     C_3   0.486663 0.295345 0.800313 -0.122539
C11   C     C_3   0.426268 0.440949 0.763792 -0.154200
C12   C     C_3   0.706863 0.335695 0.247826 -0.111131
C13   C     C_3   0.390468 0.371673 0.682984 0.030146
C14   C     C_3   0.453062 0.226783 0.718479 -0.086233
C15   C     C_3   0.303309 0.270654 0.740194 0.007798
C16   C     C_R   0.771418 0.380008 0.400250 0.545728
C17   C     C_3   0.240403 0.416020 0.705327 -0.096263
C18   C     C_3   0.274900 0.484030 0.787697 -0.132425
C19   C     C_3   0.335744 0.338141 0.821955 0.050995
C20   C     C_1   0.836124 0.333308 0.707414 -0.058516
C21   C     C_1   0.881754 0.299686 0.774556 -0.055797
C22   C     C_1   0.356429 0.768749 0.714407 -0.057131
C23   C     C_3   0.806903 0.354990 0.319040 0.053036
C24   C     C_1   0.324825 0.814175 0.781912 -0.060178
C25   C     C_R   0.894201 0.309014 0.090955 0.549256
C26   C     C_R   0.319527 0.299427 0.120130 0.539834
C27   C     C_R   0.297097 0.887537 0.087540 0.539976
C28   C     C_R   0.378834 0.718138 0.631984 0.531519
C29   C     C_R   0.937919 0.277879 0.855901 0.553777
C30   C     C_R   0.310291 0.296474 0.893789 0.536428
C31   C     C_R   0.281769 0.881131 0.859714 0.533484
C32   C     C_R   0.412859 0.379583 0.601114 0.549372
C33   C     C_R   0.774299 0.379542 0.629729 0.524921
C34   C     C_3   0.938560 0.230802 0.285330 -0.139285
C35   C     C_1   0.342837 0.336586 0.275155 -0.073097
C36   C     C_1   0.332134 0.325973 0.203829 -0.068520
C37   C     C_3   0.839811 0.212033 0.212670 0.011266
C38   C     C_3   0.231382 0.175392 0.717820 -0.259430
C39   C     C_3   0.246207 0.114469 0.629338 -0.304375
C40   C     C_3   0.127082 0.076476 0.594445 -0.411208
C41   C     C_3   0.843076 0.071889 0.173446 -0.245416
C42   C     C_3   0.795026 0.004817 0.229193 -0.302100
C43   C     C_3   0.822491 0.853663 0.196316 -0.438202
C44   C     C_3   0.953151 0.340534 0.241577 -0.124474
C45   C     C_3   0.820219 0.465179 0.276378 -0.107998
C46   C     C_3   0.722452 0.444315 0.203791 -0.155244
C47   C     C_3   0.854012 0.321021 0.169807 0.057905
C48   C     C_3   0.468645 0.793633 0.225828 -0.125290
Cr1   Cr    Cr6+3 0.608340 0.611040 0.520430 1.009287
Cr2   Cr    Cr6+3 0.287650 0.601120 0.489350 1.004676
Cr3   Cr    Cr6+3 0.604040 0.287870 0.490280 0.995778
Cr4   Cr    Cr6+3 0.054020 0.052700 0.970850 1.004251
Cr5   Cr    Cr6+3 0.059230 0.375120 0.993390 1.011299
Cr6   Cr    Cr6+3 0.374950 0.061200 0.992340 1.008192
H1    H     H_    0.606099 0.333003 0.253105 0.113567
H2    H     H_    0.022979 0.150944 0.324757 0.098315
H3    H     H_    0.053817 0.344203 0.236957 0.118527
H4    H     H_    0.812663 0.569265 0.304241 0.129347
H5    H     H_    0.637926 0.523222 0.163938 0.108497
H6    H     H_    0.479448 0.587054 0.274586 0.117971
H7    H     H_    0.576185 0.760831 0.207768 0.108503
H8    H     H_    0.436136 0.982422 0.328701 0.128105
H9    H     H_    0.108693 0.018296 0.637119 0.182468
H10   H     H_    0.026835 0.175527 0.581215 0.151265
H11   H     H_    0.155879 0.008945 0.536952 0.174092
H12   H     H_    0.190275 0.085924 0.217309 0.116415
H13   H     H_    0.242544 0.193211 0.591248 0.182299
H14   H     H_    0.351643 0.017393 0.625259 0.187867
H15   H     H_    0.279217 0.086954 0.757963 0.158324
H16   H     H_    0.118060 0.242785 0.727446 0.140061
H17   H     H_    0.760924 0.856287 0.136615 0.162884
H18   H     H_    0.938479 0.783543 0.190443 0.155351
H19   H     H_    0.788082 0.807660 0.238309 0.139460
H20   H     H_    0.852876 0.000136 0.290222 0.166098
H21   H     H_    0.678574 0.071974 0.235068 0.184844
H22   H     H_    0.769940 0.094425 0.116904 0.157710
H23   H     H_    0.096897 0.910356 0.284163 0.120029
H24   H     H_    0.953181 0.996838 0.157661 0.174711
H25   H     H_    0.235004 0.689266 0.163595 0.117343
H26   H     H_    0.483200 0.506402 0.772540 0.111694
H27   H     H_    0.587307 0.246683 0.840761 0.138456
H28   H     H_    0.526972 0.120225 0.690839 0.135777
H29   H     H_    0.138513 0.464609 0.665810 0.138356
H30   H     H_    0.202061 0.588961 0.817312 0.136426
O1    O     O_R   0.751220 0.499230 0.435170 -0.518869
O2    O     O_R   0.412990 0.180750 0.091610 -0.516234
O3    O     O_R   0.366620 0.943130 0.065760 -0.499028
O4    O     O_R   0.477220 0.727600 0.436870 -0.496225
O5    O     O_R   0.160510 0.906330 0.879210 -0.516303
O6    O     O_R   0.930190 0.179050 0.889450 -0.495439
O7    O     O_R   0.909140 0.398170 0.896710 -0.503035
O8    O     O_R   0.186190 0.363460 0.918830 -0.514915
O9    O     O_R   0.401670 0.173200 0.913310 -0.519376
O10   O     O_R   0.356120 0.936130 0.900470 -0.497801
O11   O     O_3   0.162740 0.163010 0.985530 -0.268242
O12   O     O_R   0.297880 0.469080 0.560050 -0.511421
O13   O     O_R   0.258650 0.745120 0.411470 -0.521574
O14   O     O_R   0.297070 0.467240 0.395960 -0.487015
O15   O     O_R   0.488830 0.252610 0.387790 -0.520165
O16   O     O_R   0.724400 0.302390 0.420980 -0.508657
O17   O     O_R   0.752100 0.501210 0.612190 -0.508194
O18   O     O_R   0.478040 0.729440 0.600970 -0.499892
O19   O     O_R   0.259530 0.747110 0.588490 -0.524847
O20   O     O_R   0.489720 0.254590 0.564810 -0.521089
O21   O     O_R   0.725220 0.304230 0.585080 -0.517740
O22   O     O_3   0.500010 0.500010 0.500020 -0.288357
O23   O     O_R   0.171830 0.913880 0.057510 -0.528122
O24   O     O_R   0.940690 0.186050 0.054730 -0.511692
O25   O     O_R   0.920470 0.405720 0.075010 -0.515174
O26   O     O_R   0.196690 0.370460 0.084120 -0.502934

loop_
_geom_bond_atom_site_label_1
_geom_bond_atom_site_label_2
_ccdc_geom_bond_type
Cr5   O26   S    
C43   H19   S    
C38   H16   S    
C11   C18   S    
C34   H2    S    
C43   H18   S    
C23   C45   S    
C4    O14   A    
C46   H5    S    
Cr5   O11   S    
C34   C37   S    
C39   H14   S    
C13   C32   S    
Cr4   O6    S    
C35   C36   T    
C29   O7    A    
C6    C9    S    
C7    C8    S    
C45   C46   S    
C15   C19   S    
C12   C23   S    
C42   H21   S    
C40   H9    S    
C33   O17   A    
C30   O9    A    
C3    C7    S    
Cr1   O17   S    
Cr6   O3    S    
C2    H6    S    
Cr5   O25   S    
Cr4   O11   S    
C18   C19   S    
C41   C42   S    
C12   C37   S    
Cr6   O9    S    
Cr4   O23   S    
C8    C9    S    
C31   O5    A    
Cr5   O7    S    
C8    H25   S    
C18   H30   S    
C32   O20   A    
C37   C47   S    
C26   O26   A    
C44   C47   S    
C25   O25   A    
C7    H23   S    
C1    O4    A    
C38   H15   S    
Cr2   O19   S    
C22   C28   S    
C13   C14   S    
Cr1   O4    S    
Cr4   O5    S    
C29   O6    A    
Cr3   O15   S    
C38   C39   S    
C5    C48   S    
C45   H4    S    
C42   H20   S    
Cr2   O14   S    
Cr1   O1    S    
C34   C44   S    
C12   C46   S    
C10   C14   S    
C1    O13   A    
Cr1   O18   S    
Cr6   O2    S    
C16   O16   A    
C26   O2    A    
C2    C48   S    
Cr3   O20   S    
C21   C29   S    
C1    C3    S    
C15   C38   S    
Cr6   O10   S    
C11   H26   S    
C27   O23   A    
C10   C19   S    
Cr3   O21   S    
C23   C34   S    
Cr5   O8    S    
C17   C18   S    
C33   O21   A    
C27   O3    A    
Cr6   O11   S    
Cr1   O22   S    
C20   C33   S    
C30   O8    A    
C32   O12   A    
C16   C23   S    
C40   H11   S    
C16   O1    A    
C22   C24   T    
C42   C43   S    
C14   H28   S    
C41   H24   S    
C44   C45   S    
C9    C27   S    
C26   C36   S    
Cr3   O16   S    
C15   C17   S    
C25   C47   S    
C46   C47   S    
Cr2   O13   S    
C43   H17   S    
C39   H13   S    
C2    C8    S    
C3    C5    S    
C6    C7    S    
C31   O10   A    
C10   H27   S    
C40   H10   S    
C13   C17   S    
C2    C3    S    
C24   C31   S    
C41   H22   S    
C11   C13   S    
C28   O19   A    
Cr2   O12   S    
C48   H7    S    
C5    C6    S    
Cr3   O22   S    
C5    H8    S    
C37   C41   S    
C4    C35   S    
C12   H1    S    
C10   C11   S    
C39   C40   S    
C28   O18   A    
C6    H12   S    
C20   C21   T    
Cr4   O24   S    
C9    C48   S    
C4    O15   A    
Cr2   O22   S    
C14   C15   S    
C17   H29   S    
C19   C30   S    
C44   H3    S    
C25   O24   A    
