data_mof_unit_798.cif
_audit_creation_date              2012-12-10T17:03:23-0500
_audit_creation_method            fapswitch 2.2
_symmetry_space_group_name_H-M    P1
_symmetry_Int_Tables_number       1
_space_group_crystal_system       triclinic
_cell_length_a                    15.099484
_cell_length_b                    11.035064
_cell_length_c                    9.890838
_cell_angle_alpha                 111.481301
_cell_angle_beta                  98.166992
_cell_angle_gamma                 91.811656
_cell_volume                      1511.7467586

loop_
_atom_site_label
_atom_site_type_symbol
_atom_type_description
_atom_site_fract_x
_atom_site_fract_y
_atom_site_fract_z
_atom_type_partial_charge
C1    C     C_R   0.491881 0.253854 0.440351 0.853818
C2    C     C_R   0.498509 0.745090 0.559810 0.854628
C3    C     C_R   0.024580 0.259102 0.399109 -0.024496
C4    C     C_R   0.970782 0.721423 0.462919 -0.028139
C5    C     C_2   0.483852 0.113661 0.407018 -0.359863
C6    C     C_2   0.495537 0.884899 0.593518 -0.361426
C7    C     C_2   0.486269 0.069109 0.516085 -0.150396
C8    C     C_2   0.481883 0.929381 0.484178 -0.154166
C9    C     C_2   0.519828 0.477159 0.068690 -0.051891
C10   C     C_2   0.501649 0.471823 0.909251 -0.053205
C11   C     C_R   0.329194 0.493645 0.499413 0.800003
C12   C     C_R   0.671670 0.510286 0.500365 0.818364
C13   C     C_R   0.819989 0.628600 0.487349 0.091669
C14   C     C_R   0.179871 0.375326 0.478222 0.132019
C15   C     C_R   0.769198 0.518214 0.493848 -0.044113
C16   C     C_R   0.232819 0.490754 0.498192 -0.069025
C17   C     C_R   0.809125 0.401544 0.473387 -0.259462
C18   C     C_R   0.193457 0.602792 0.499388 -0.263065
C19   C     C_R   0.898990 0.391835 0.456774 0.084922
C20   C     C_R   0.101197 0.606059 0.488129 0.095750
C21   C     C_R   0.952552 0.502185 0.466832 0.047320
C22   C     C_R   0.046090 0.494277 0.469328 0.029426
C23   C     C_R   0.913147 0.618709 0.471217 -0.008896
C24   C     C_R   0.084282 0.374244 0.449911 0.021677
C25   C     C_R   0.934478 0.270141 0.418756 -0.221931
C26   C     C_R   0.063456 0.717495 0.483612 -0.219717
Cu1   Cu    Cu3+1 0.515770 0.521810 0.644910 0.942727
Cu2   Cu    Cu3+1 0.484230 0.478190 0.355090 0.933421
H1    H     H_    0.768791 0.315902 0.467306 0.140900
H2    H     H_    0.235520 0.688353 0.509397 0.138185
H3    H     H_    0.889695 0.182532 0.390397 0.182824
H4    H     H_    0.106434 0.798672 0.484306 0.161984
H5    H     H_    0.470910 0.862506 0.369565 0.183904
H6    H     H_    0.493859 0.136035 0.630422 0.178747
H7    H     H_    0.507391 0.951983 0.707987 0.150985
H8    H     H_    0.475875 0.046475 0.292826 0.151491
H9    H     H_    0.454152 0.394440 0.829485 0.148594
H10   H     H_    0.586953 0.510980 0.130437 0.141103
N1    N     N_2   0.460520 0.445420 0.137370 -0.139191
N2    N     N_2   0.539480 0.554580 0.862630 -0.127646
O1    O     O_R   0.508410 0.332340 0.577400 -0.582223
O2    O     O_R   0.491590 0.667660 0.422600 -0.591552
O3    O     O_R   0.481780 0.295500 0.332650 -0.571525
O4    O     O_R   0.518220 0.704500 0.667350 -0.576224
O5    O     O_R   0.383570 0.518390 0.622380 -0.581829
O6    O     O_R   0.616430 0.481610 0.377620 -0.583387
O7    O     O_R   0.356940 0.481550 0.377630 -0.590489
O8    O     O_R   0.643060 0.518450 0.622370 -0.566475
C27   C     C_3   0.783503 0.760306 0.504724 -0.451080
C28   C     C_3   0.691446 0.785997 0.539505 -0.853309
H11   H     H_    0.643690 0.726755 0.440041 0.272382
H12   H     H_    0.682829 0.766404 0.638057 0.253687
H13   H     H_    0.681522 0.890539 0.562072 0.254433
H14   H     H_    0.829538 0.838591 0.593802 0.239889
H15   H     H_    0.780369 0.773114 0.398581 0.239077
C29   C     C_3   0.226537 0.265631 0.510207 -0.365773
C30   C     C_3   0.250930 0.300550 0.675710 -0.860227
H16   H     H_    0.289649 0.397354 0.729313 0.261032
H17   H     H_    0.188935 0.303367 0.724918 0.264818
H18   H     H_    0.292083 0.225919 0.697253 0.243805
H19   H     H_    0.185497 0.171274 0.467764 0.225007
H20   H     H_    0.287957 0.246806 0.458475 0.191399
C31   C     C_2   0.047585 0.133547 0.293310 0.829492
O9    O     O_2   0.007650 0.030292 0.277962 -0.578417
O10   O     O_R   0.112759 0.134001 0.205977 -0.777058
H21   H     H_    0.122079 0.042865 0.137378 0.336292
C32   C     C_2   0.940439 0.823830 0.409108 0.845408
O11   O     O_2   0.955373 0.939102 0.490238 -0.579001
O12   O     O_R   0.897168 0.787745 0.263432 -0.752588
H22   H     H_    0.874663 0.864793 0.240586 0.351771
C33   C     C_3   0.611886 0.647258 0.969263 -0.154824
C34   C     C_3   0.638478 0.763358 0.932031 -0.731834
H23   H     H_    0.669479 0.730442 0.832276 0.263253
H24   H     H_    0.580208 0.820249 0.922870 0.245717
H25   H     H_    0.690291 0.829584 0.022673 0.199976
H26   H     H_    0.590591 0.692259 0.078844 0.145740
H27   H     H_    0.672460 0.594745 0.980921 0.175475
C35   C     C_3   0.366272 0.414948 0.067291 -0.115566
C36   C     C_3   0.336316 0.271989 0.031678 -0.779598
H28   H     H_    0.379353 0.207719 0.958711 0.224197
H29   H     H_    0.340300 0.251660 0.134065 0.274701
H30   H     H_    0.265555 0.249495 0.974315 0.228676
H31   H     H_    0.323682 0.478920 0.140351 0.203627
H32   H     H_    0.351024 0.436893 0.966894 0.125294

loop_
_geom_bond_atom_site_label_1
_geom_bond_atom_site_label_2
_ccdc_geom_bond_type
Cu1   O8    S    
C25   H3    S    
C14   C29   S    
C31   O10   S    
Cu2   O7    S    
C26   H4    S    
N2    C33   S    
C17   H1    S    
C11   O7    A    
C12   O8    A    
C7    C8    S    
C6    H7    S    
Cu2   O6    S    
C10   H9    S    
C1    C5    S    
C19   C21   A    
C33   H26   S    
C30   H17   S    
C27   H14   S    
C5    H8    S    
C9    N1    D    
C29   C30   S    
C13   C23   A    
C10   N2    D    
C14   C24   A    
Cu1   O4    S    
C1    O3    A    
C2    O4    A    
C28   H12   S    
C18   H2    S    
C14   C16   A    
C9    C10   S    
C18   C20   A    
Cu1   O5    S    
C21   C22   A    
C3    C24   A    
C2    C6    S    
C34   H25   S    
C35   H31   S    
C28   H13   S    
C32   O11   D    
N1    C35   S    
C3    C25   A    
C34   H24   S    
C36   H29   S    
C4    C23   A    
C35   C36   S    
C30   H18   S    
C6    C8    D    
Cu2   N1    S    
C27   H15   S    
C36   H28   S    
C32   O12   S    
C12   O6    A    
C36   H30   S    
C11   C16   S    
Cu1   O1    S    
C12   C15   S    
Cu1   N2    S    
C28   H11   S    
C13   C27   S    
C1    O1    A    
C20   C22   A    
O10   H21   S    
C21   C23   A    
C7    H6    S    
C22   C24   A    
C11   O5    A    
C33   H27   S    
C5    C7    D    
C15   C17   A    
C34   H23   S    
C4    C32   S    
C4    C26   A    
C3    C31   S    
Cu2   O3    S    
C13   C15   A    
C33   C34   S    
C30   H16   S    
C20   C26   A    
C2    O2    A    
Cu2   O2    S    
C9    H10   S    
C17   C19   A    
C29   H20   S    
C8    H5    S    
O12   H22   S    
C19   C25   A    
C31   O9    D    
C35   H32   S    
C16   C18   A    
C27   C28   S    
Cu1   Cu2   S    
C29   H19   S    
