data_mof_unit_1886.cif
_audit_creation_date              2013-03-05T15:42:33-0500
_audit_creation_method            fapswitch 2.2
_symmetry_space_group_name_H-M    P1
_symmetry_Int_Tables_number       1
_space_group_crystal_system       triclinic
_cell_length_a                    29.60807
_cell_length_b                    17.451099
_cell_length_c                    18.954539
_cell_angle_alpha                 90.795086
_cell_angle_beta                  139.826847
_cell_angle_gamma                 89.047724
_cell_volume                      6317.02003989

loop_
_atom_site_label
_atom_site_type_symbol
_atom_site_description
_atom_site_fract_x
_atom_site_fract_y
_atom_site_fract_z
_atom_type_partial_charge
C1    C     C_R   0.686100 0.897818 0.801161 -0.112017
C2    C     C_R   0.668668 0.077256 0.814735 -0.121635
C3    C     C_R   0.186045 0.397601 0.799905 -0.137739
C4    C     C_R   0.168562 0.577062 0.814711 -0.119685
H1    H     H_    0.736092 0.925286 0.854734 0.116878
H2    H     H_    0.717068 0.045526 0.877040 0.092718
H3    H     H_    0.236033 0.424572 0.851430 0.095249
H4    H     H_    0.216801 0.545010 0.876947 0.090801
N1    N     N_R   0.625250 0.928170 0.708660 -0.049016
N2    N     N_R   0.625250 0.071830 0.708660 -0.040265
N3    N     N_R   0.125250 0.428170 0.708660 -0.045568
N4    N     N_R   0.125250 0.571830 0.708660 -0.040617
C5    C     C_R   0.329464 0.101522 0.414076 -0.178948
C6    C     C_R   0.336406 0.906651 0.435905 -0.189280
C7    C     C_R   0.829471 0.601516 0.414097 -0.176387
C8    C     C_R   0.836021 0.406334 0.434826 -0.187493
H5    H     H_    0.279602 0.072939 0.353460 0.116740
H6    H     H_    0.287849 0.937123 0.388361 0.128061
H7    H     H_    0.779614 0.572923 0.353504 0.112769
H8    H     H_    0.787435 0.436822 0.387072 0.123616
N5    N     N_R   0.386350 0.070500 0.452620 -0.060788
N6    N     N_R   0.386350 0.929500 0.452620 -0.056725
N7    N     N_R   0.886350 0.570500 0.452620 -0.060353
N8    N     N_R   0.886350 0.429500 0.452620 -0.055498
C9    C     C_R   0.416779 0.811367 0.521126 0.333969
C10   C     C_R   0.409079 0.194485 0.500745 0.300142
C11   C     C_R   0.916347 0.311058 0.520020 0.312763
C12   C     C_R   0.909086 0.694483 0.500757 0.297139
N9    N     N_R   0.437960 0.869720 0.507940 -0.090270
N10   N     N_R   0.437960 0.130280 0.507940 -0.095263
N11   N     N_R   0.937960 0.369720 0.507940 -0.090288
N12   N     N_R   0.937960 0.630280 0.507940 -0.094840
C13   C     C_R   0.584290 0.166842 0.726021 -0.012548
C14   C     C_R   0.603844 0.808359 0.714079 -0.106769
C15   C     C_R   0.084247 0.666744 0.726032 -0.010659
C16   C     C_R   0.103365 0.309006 0.714872 -0.067685
H9    H     H_    0.554757 0.216451 0.707274 0.166804
H10   H     H_    0.578181 0.754196 0.688679 0.169716
H11   H     H_    0.054728 0.716357 0.707319 0.166893
H12   H     H_    0.076721 0.256226 0.692178 0.209071
N13   N     N_R   0.573630 0.128950 0.653340 -0.031413
N14   N     N_R   0.573630 0.871050 0.653340 -0.048871
N15   N     N_R   0.073630 0.628950 0.653340 -0.031274
N16   N     N_R   0.073630 0.371050 0.653340 -0.054680
C17   C     C_R   0.674205 0.822985 0.805952 0.010550
C18   C     C_R   0.644335 0.136613 0.828572 -0.058885
C19   C     C_R   0.173654 0.323662 0.806487 -0.021992
C20   C     C_R   0.144261 0.636455 0.828580 -0.055793
C21   C     C_R   0.340691 0.179101 0.440957 -0.072454
C22   C     C_R   0.354720 0.833865 0.478910 -0.097663
C23   C     C_R   0.840700 0.679098 0.440975 -0.067787
C24   C     C_R   0.854026 0.333353 0.477128 -0.091954
C25   C     C_R   0.664769 0.100568 0.580089 -0.148584
C26   C     C_R   0.639502 0.919175 0.518687 -0.087501
C27   C     C_R   0.164711 0.600657 0.579971 -0.147610
C28   C     C_R   0.139448 0.419218 0.518590 -0.131505
H13   H     H_    0.714726 0.071852 0.632398 0.119204
H14   H     H_    0.681477 0.953464 0.548554 0.099665
H15   H     H_    0.214706 0.572030 0.632299 0.107244
H16   H     H_    0.181392 0.453540 0.548398 0.098968
N17   N     N_R   0.609990 0.071870 0.547380 -0.054000
N18   N     N_R   0.609990 0.928130 0.547380 -0.044648
N19   N     N_R   0.109990 0.571870 0.547380 -0.050405
N20   N     N_R   0.109990 0.428130 0.547380 -0.046545
C29   C     C_R   0.311031 0.892238 0.200339 -0.139425
C30   C     C_R   0.328681 0.082062 0.185592 -0.143481
C31   C     C_R   0.811010 0.392154 0.200502 -0.140385
C32   C     C_R   0.828632 0.581384 0.185570 -0.142946
H17   H     H_    0.260897 0.920611 0.146956 0.102509
H18   H     H_    0.280838 0.050093 0.121997 0.114127
H19   H     H_    0.760868 0.420473 0.147229 0.096346
H20   H     H_    0.780579 0.549660 0.123458 0.103128
N21   N     N_R   0.371090 0.922150 0.291340 -0.040245
N22   N     N_R   0.371090 0.077850 0.291340 -0.044300
N23   N     N_R   0.871090 0.422150 0.291340 -0.039563
N24   N     N_R   0.871090 0.577850 0.291340 -0.045095
C33   C     C_R   0.557230 0.827982 0.431626 -0.104450
C34   C     C_R   0.583169 0.193518 0.492280 -0.081705
C35   C     C_R   0.057201 0.328002 0.431579 -0.086783
C36   C     C_R   0.082963 0.693516 0.491933 -0.072751
H21   H     H_    0.522763 0.780689 0.380841 0.089133
H22   H     H_    0.558191 0.249392 0.463484 0.123366
H23   H     H_    0.022732 0.280707 0.380803 0.091059
H24   H     H_    0.057763 0.749277 0.462728 0.126331
N25   N     N_R   0.558380 0.869490 0.492060 -0.040342
N26   N     N_R   0.558380 0.130510 0.492060 -0.047155
N27   N     N_R   0.058380 0.369490 0.492060 -0.038523
N28   N     N_R   0.058380 0.630510 0.492060 -0.046686
C37   C     C_R   0.413883 0.165711 0.278604 -0.103557
C38   C     C_R   0.396751 0.809648 0.290307 -0.106902
C39   C     C_R   0.913830 0.664361 0.277280 -0.102268
C40   C     C_R   0.896734 0.309614 0.290377 -0.110341
H25   H     H_    0.445734 0.213793 0.302718 0.099926
H26   H     H_    0.425333 0.756111 0.321125 0.122303
H27   H     H_    0.944614 0.713226 0.299984 0.104451
H28   H     H_    0.925335 0.256090 0.321175 0.127135
N29   N     N_R   0.422710 0.124520 0.346660 -0.036728
N30   N     N_R   0.422710 0.875480 0.346660 -0.041672
N31   N     N_R   0.922710 0.624520 0.346660 -0.037880
N32   N     N_R   0.922710 0.375480 0.346660 -0.041484
Ni1   Ni    Ni4+2 0.616550 0.000000 0.626870 0.239333
Ni2   Ni    Ni4+2 0.116550 0.500000 0.626870 0.215562
Ni3   Ni    Ni4+2 0.379790 0.000000 0.373130 0.196481
Ni4   Ni    Ni4+2 0.879790 0.500000 0.373130 0.194532
Ni5   Ni    Ni4+2 0.498170 0.870760 0.500000 0.268223
Ni6   Ni    Ni4+2 0.498170 0.129240 0.500000 0.303339
Ni7   Ni    Ni4+2 0.998170 0.370760 0.500000 0.281320
Ni8   Ni    Ni4+2 0.998170 0.629240 0.500000 0.306350
C41   C     C_R   0.648377 0.175097 0.544590 0.093506
C42   C     C_R   0.606408 0.857776 0.444841 0.045447
C43   C     C_R   0.148195 0.675186 0.544346 0.092411
C44   C     C_R   0.106349 0.357817 0.444736 0.047489
C45   C     C_R   0.325586 0.818686 0.198213 0.010043
C46   C     C_R   0.353483 0.140809 0.174596 0.001708
C47   C     C_R   0.825553 0.318599 0.198401 0.009347
C48   C     C_R   0.854427 0.637417 0.173035 0.010403
C49   C     C_3   0.649815 0.232845 0.933796 -0.362881
C50   C     C_3   0.705696 0.685964 0.867624 -0.332838
C51   C     C_3   0.149842 0.732688 0.933928 -0.357702
C52   C     C_3   0.197325 0.267328 0.947930 -0.362520
H29   H     H_    0.608384 0.268307 0.859772 0.207881
H30   H     H_    0.702428 0.670430 0.806836 0.211198
H31   H     H_    0.108298 0.768071 0.859864 0.210266
H32   H     H_    0.142726 0.246063 0.885396 0.201597
H33   H     H_    0.623052 0.195505 0.940400 0.158791
H34   H     H_    0.653437 0.674268 0.828382 0.172031
H35   H     H_    0.123224 0.695309 0.940776 0.163768
H36   H     H_    0.196858 0.325162 0.973062 0.161605
C53   C     C_3   0.200037 0.786407 0.032578 -0.379528
C54   C     C_3   0.245068 0.214382 0.046147 -0.367100
C55   C     C_3   0.699996 0.286467 0.032555 -0.384351
C56   C     C_3   0.759053 0.634530 0.968937 -0.369501
H37   H     H_    0.192890 0.781250 0.082069 0.157962
H38   H     H_    0.263366 0.244600 0.116669 0.162711
H39   H     H_    0.692741 0.281277 0.081901 0.153708
H40   H     H_    0.729680 0.593717 0.966802 0.159052
H41   H     H_    0.280153 0.843725 0.016291 0.206172
H42   H     H_    0.257588 0.088037 0.967432 0.206205
H43   H     H_    0.780301 0.343723 0.016633 0.204243
H44   H     H_    0.884586 0.696302 0.076599 0.202856
C57   C     C_3   0.736767 0.232785 0.933069 0.259213
C58   C     C_3   0.802205 0.785966 0.970712 0.269618
C59   C     C_3   0.236592 0.732763 0.932791 0.254074
C60   C     C_3   0.231686 0.191839 0.875827 0.227510
C61   C     C_3   0.242145 0.631158 0.033533 -0.456408
C62   C     C_3   0.297650 0.309589 0.992934 -0.452656
C63   C     C_3   0.742028 0.131193 0.033491 -0.458912
C64   C     C_3   0.718545 0.791088 0.973754 -0.466780
C65   C     C_3   0.691390 0.182655 0.929277 0.219466
C66   C     C_3   0.724662 0.771959 0.901397 0.188287
C67   C     C_3   0.191363 0.682554 0.929257 0.214347
C68   C     C_3   0.223545 0.273216 0.902262 0.213878
H45   H     H_    0.274765 0.593787 0.037508 0.155596
H46   H     H_    0.318862 0.315083 0.963866 0.161489
H47   H     H_    0.774660 0.093745 0.037566 0.159166
H48   H     H_    0.733014 0.851879 0.001578 0.166074
H49   H     H_    0.711755 0.093172 0.032531 0.183251
H50   H     H_    0.663611 0.784083 0.926648 0.192332
H51   H     H_    0.211990 0.593068 0.032751 0.184355
H52   H     H_    0.295451 0.367984 0.014743 0.175848
C69   C     C_3   0.277161 0.767513 0.103711 0.316624
C70   C     C_3   0.308630 0.188127 0.076157 0.329392
C71   C     C_3   0.777138 0.267493 0.103834 0.319974
C72   C     C_3   0.809457 0.684711 0.073928 0.313368
C73   C     C_3   0.287533 0.781728 0.036587 -0.504725
C74   C     C_3   0.282881 0.141847 0.980486 -0.484672
C75   C     C_3   0.787646 0.281722 0.036887 -0.506277
C76   C     C_3   0.852374 0.734092 0.073305 -0.507143
C77   C     C_3   0.291765 0.681873 0.137036 -0.375837
C78   C     C_3   0.347302 0.260263 0.095939 -0.408125
C79   C     C_3   0.791642 0.181843 0.137056 -0.373900
C80   C     C_3   0.766581 0.738381 0.073012 -0.373014
H53   H     H_    0.283860 0.671102 0.184769 0.178174
H54   H     H_    0.365623 0.295765 0.163295 0.173351
H55   H     H_    0.783650 0.171079 0.184673 0.177401
H56   H     H_    0.734216 0.703919 0.070865 0.171089
H57   H     H_    0.346728 0.665869 0.189407 0.160091
H58   H     H_    0.393796 0.243254 0.119228 0.160101
H59   H     H_    0.846611 0.165784 0.189510 0.164160
H60   H     H_    0.802298 0.773911 0.148746 0.172472
H61   H     H_    0.769010 0.193060 0.937965 0.065823
H62   H     H_    0.815829 0.846222 0.000958 0.044952
H63   H     H_    0.268788 0.693084 0.937539 0.062378
H64   H     H_    0.255550 0.200354 0.851351 0.071754
H65   H     H_    0.342243 0.766683 0.086181 0.142785
H66   H     H_    0.328397 0.124385 0.001412 0.148489
H67   H     H_    0.842377 0.266663 0.086589 0.145203
H68   H     H_    0.889297 0.771735 0.146573 0.142133
C81   C     C_R   0.623638 0.824469 0.396275 0.130877
C82   C     C_R   0.685592 0.217771 0.538804 0.101205
C83   C     C_R   0.123575 0.324503 0.396161 0.125747
C84   C     C_R   0.185425 0.718011 0.538758 0.097078
C85   C     C_R   0.285696 0.231905 0.402155 0.128108
C86   C     C_R   0.314912 0.792518 0.480644 0.158188
C87   C     C_R   0.785710 0.731906 0.402172 0.127145
C88   C     C_R   0.814150 0.292068 0.478839 0.153621
C89   C     C_R   0.248723 0.357874 0.400372 -0.228534
C90   C     C_R   0.255362 0.679712 0.445478 -0.227652
C91   C     C_R   0.748764 0.857871 0.400453 -0.222025
C92   C     C_R   0.755695 0.178865 0.445821 -0.226195
C93   C     C_R   0.291413 0.312250 0.407804 -0.105838
C94   C     C_R   0.293690 0.717623 0.441032 -0.079750
C95   C     C_R   0.791442 0.812251 0.407855 -0.102771
C96   C     C_R   0.793568 0.216835 0.440497 -0.084971
C97   C     C_R   0.227890 0.199775 0.366747 -0.261438
C98   C     C_R   0.296952 0.831285 0.521222 -0.278395
C99   C     C_R   0.727895 0.699780 0.366740 -0.261101
C100  C     C_R   0.795827 0.331118 0.518761 -0.276949
C101  C     C_R   0.184751 0.244542 0.357649 0.178715
C102  C     C_R   0.258329 0.794596 0.525022 0.176952
C103  C     C_R   0.684773 0.744542 0.357679 0.181955
C104  C     C_R   0.757624 0.294383 0.523360 0.176166
C105  C     C_R   0.698597 0.823316 0.383158 0.179039
C106  C     C_R   0.738365 0.217263 0.488063 0.190317
C107  C     C_R   0.198556 0.323324 0.383081 0.179434
C108  C     C_R   0.238278 0.717829 0.488206 0.190141
C109  C     C_R   0.666828 0.863636 0.400840 -0.260485
C110  C     C_R   0.702453 0.179582 0.496303 -0.281018
C111  C     C_R   0.166767 0.363659 0.400723 -0.264553
C112  C     C_R   0.201876 0.680183 0.495513 -0.276932
C113  C     C_R   0.603148 0.748929 0.355914 -0.155842
C114  C     C_R   0.701968 0.294544 0.570435 -0.137169
C115  C     C_R   0.103101 0.248952 0.355836 -0.158859
C116  C     C_R   0.202569 0.794451 0.571903 -0.133172
C117  C     C_R   0.633362 0.709327 0.336170 -0.214178
C118  C     C_R   0.738900 0.333133 0.563469 -0.220428
C119  C     C_R   0.133338 0.209333 0.336139 -0.210230
C120  C     C_R   0.239920 0.833037 0.565750 -0.218714
H69   H     H_    0.680405 0.922950 0.426975 0.117675
H70   H     H_    0.687158 0.120402 0.469105 0.125146
H71   H     H_    0.180333 0.422979 0.426830 0.119485
H72   H     H_    0.186017 0.621259 0.467252 0.126804
H73   H     H_    0.568474 0.717252 0.348052 0.118944
H74   H     H_    0.687320 0.323527 0.601758 0.171264
H75   H     H_    0.068427 0.217279 0.347977 0.125076
H76   H     H_    0.188256 0.823131 0.603868 0.175339
H77   H     H_    0.757634 0.919064 0.414335 0.143485
H78   H     H_    0.740262 0.120021 0.417616 0.132065
H79   H     H_    0.257579 0.419070 0.414220 0.142237
H80   H     H_    0.239349 0.621149 0.416156 0.132451
H81   H     H_    0.121027 0.149286 0.313557 0.133908
H82   H     H_    0.254694 0.892079 0.593091 0.141816
H83   H     H_    0.621038 0.649286 0.313555 0.128337
H84   H     H_    0.753048 0.392456 0.589608 0.143464
H85   H     H_    0.329506 0.340333 0.421041 0.181241
H86   H     H_    0.306532 0.689110 0.406837 0.147206
H87   H     H_    0.829538 0.840335 0.421100 0.181952
H88   H     H_    0.806639 0.188056 0.406763 0.147333
H89   H     H_    0.219924 0.138569 0.357438 0.123138
H90   H     H_    0.313882 0.889787 0.550946 0.137493
H91   H     H_    0.719913 0.638577 0.357394 0.121695
H92   H     H_    0.812265 0.389855 0.547572 0.139753
H93   H     H_    0.685967 0.346111 0.001043 0.185375
H94   H     H_    0.789300 0.599969 0.965571 0.194656
H95   H     H_    0.185925 0.846026 0.000959 0.191159
H96   H     H_    0.213882 0.164317 0.025823 0.183029
N33   N     N_R   0.694634 0.280975 0.835577 0.242142
O1    O     O_R   0.657525 0.338340 0.815794 -0.383597
O2    O     O_R   0.697307 0.268984 0.770903 -0.406776
N34   N     N_R   0.812450 0.775148 0.906611 0.242159
O3    O     O_R   0.810633 0.707247 0.875275 -0.402131
O4    O     O_R   0.829101 0.833359 0.887972 -0.403326
N35   N     N_R   0.194326 0.780955 0.835259 0.242678
O5    O     O_R   0.157241 0.838284 0.815616 -0.360393
O6    O     O_R   0.196885 0.769032 0.770435 -0.406767
N36   N     N_R   0.165171 0.151717 0.786154 0.237383
O7    O     O_R   0.130365 0.125469 0.798023 -0.361854
O8    O     O_R   0.143258 0.136567 0.696363 -0.361305
N37   N     N_R   0.443566 0.734887 0.546426 0.208073
O9    O     O_R   0.447523 0.691024 0.605947 -0.408547
O10   O     O_R   0.462628 0.708164 0.507652 -0.446608
N38   N     N_R   0.438990 0.268431 0.527403 0.204627
O11   O     O_R   0.470763 0.283772 0.506558 -0.406822
O12   O     O_R   0.449755 0.312087 0.595331 -0.415703
N39   N     N_R   0.943136 0.234589 0.545038 0.213057
O13   O     O_R   0.946955 0.190429 0.604205 -0.370672
O14   O     O_R   0.963694 0.208681 0.508250 -0.405148
N40   N     N_R   0.939005 0.768427 0.527433 0.205183
O15   O     O_R   0.970780 0.783770 0.506592 -0.400092
O16   O     O_R   0.949781 0.812072 0.595380 -0.399671

loop_
_geom_bond_atom_site_label_1
_geom_bond_atom_site_label_2
_geom_bond_distance
_ccdc_geom_bond_type
H44   C76   1.112497 S    
C99   C103  1.380310 A    
C60   H64   1.114843 S    
N24   Ni4   1.937012 S    
C76   H68   1.110739 S    
N6    N9    1.432333 A    
C27   H15   1.081666 S    
N19   N28   1.418062 A    
C54   H96   1.112737 S    
C89   H79   1.083738 S    
C6    H6    1.081551 S    
C1    C17   1.380273 A    
C15   H11   1.071883 S    
N39   O13   1.300656 A    
C24   C88   1.414729 S    
C3    N3    1.323639 A    
C36   H24   1.081514 S    
C90   C108  1.397897 A    
C35   N27   1.325249 A    
C29   N21   1.314651 A    
N35   O5    1.301636 A    
N36   O8    1.301245 A    
C2    H2    1.077211 S    
C2    C18   1.384624 A    
N24   N31   1.291245 A    
C7    H7    1.079257 S    
N31   Ni8   1.876691 S    
N1    N14   1.414773 A    
C101  C107  1.410231 A    
N30   Ni5   1.876972 S    
C51   C53   1.527999 S    
C35   C44   1.384714 A    
C78   H58   1.113269 S    
C55   C71   1.556685 S    
C1    H1    1.079331 S    
C51   C67   1.553407 S    
C8    H8    1.081566 S    
N39   O14   1.300735 A    
C64   C66   1.546015 S    
C17   C66   1.472380 S    
N4    N15   1.399400 A    
C3    H3    1.080429 S    
C82   C114  1.394477 A    
C50   H30   1.110059 S    
C61   H51   1.112865 S    
C12   C23   1.399723 A    
C115  C119  1.379101 A    
N40   O16   1.301339 A    
C46   C70   1.465111 S    
C31   H19   1.080031 S    
C87   C95   1.407871 A    
C80   H60   1.113843 S    
C114  C118  1.383562 A    
C79   H55   1.112866 S    
C86   C94   1.394955 A    
C91   H77   1.083741 S    
C40   H28   1.078756 S    
C85   C93   1.407867 A    
C39   C48   1.381879 A    
C26   C42   1.401697 A    
C16   C19   1.376430 A    
C6    N6    1.321437 A    
N33   O1    1.301622 A    
C100  H92   1.086589 S    
C38   C45   1.373839 A    
C4    H4    1.077645 S    
C50   C66   1.558604 S    
C49   H29   1.106796 S    
C9    C22   1.381495 A    
C59   C73   1.528774 S    
C50   H34   1.111996 S    
C31   C47   1.356867 A    
C120  H82   1.084092 S    
C109  H69   1.083378 S    
C70   C74   1.545652 S    
C25   N17   1.321914 A    
C63   H49   1.112869 S    
C110  H70   1.086935 S    
C53   H95   1.111943 S    
C81   C109  1.402927 A    
N38   O11   1.300796 A    
C14   N14   1.323303 A    
C90   C94   1.380341 A    
C59   N35   1.470946 S    
C92   C106  1.398152 A    
C28   N20   1.342829 A    
C89   C93   1.396055 A    
C48   C72   1.472086 S    
C7    C23   1.392870 A    
C4    N4    1.323998 A    
C15   N15   1.323658 A    
C55   H93   1.111943 S    
C41   C82   1.412430 S    
N20   N27   1.433629 A    
C57   H61   1.115776 S    
C89   C107  1.399137 A    
C56   H94   1.112726 S    
C87   C99   1.400037 A    
N18   Ni1   1.841018 S    
C104  C118  1.399965 A    
C34   N26   1.330330 A    
C7    N7    1.328059 A    
C60   C68   1.574582 S    
C33   N25   1.325236 A    
C43   C84   1.411666 S    
C8    N8    1.321341 A    
C74   H66   1.113179 S    
N37   O9    1.300593 A    
N10   Ni6   1.899962 S    
N2    N13   1.399400 A    
C91   C95   1.396033 A    
C13   C18   1.390520 A    
N9    Ni5   1.900568 S    
N26   Ni6   1.900682 S    
C57   C75   1.528702 S    
C29   C45   1.357059 A    
N19   Ni2   1.864950 S    
N25   Ni5   1.899942 S    
C15   C20   1.390711 A    
C82   C110  1.389609 A    
C12   N12   1.341366 A    
C77   H57   1.111563 S    
C100  C104  1.369083 A    
N14   Ni5   1.875020 S    
C63   C79   1.543006 S    
C38   H26   1.078749 S    
N22   N29   1.291245 A    
C69   C77   1.551399 S    
C9    N9    1.326855 A    
N21   N30   1.277484 A    
C86   C98   1.389484 A    
N18   N25   1.433629 A    
C61   C77   1.543027 S    
C52   C68   1.547451 S    
C93   H85   1.075971 S    
N13   Ni6   1.875037 S    
C112  H72   1.086815 S    
C5    N5    1.328096 A    
C108  C112  1.366234 A    
C16   H12   1.072525 S    
C1    N1    1.329393 A    
C84   C116  1.394180 A    
N34   O4    1.301015 A    
C106  C110  1.366488 A    
C10   C21   1.399740 A    
C83   C111  1.402947 A    
N36   O7    1.302031 A    
N37   O10   1.300684 A    
C25   H13   1.081670 S    
C58   N34   1.469283 S    
C26   N18   1.342773 A    
C73   H65   1.114564 S    
C45   C69   1.461205 S    
C102  C108  1.414745 A    
C37   H25   1.076686 S    
C13   H9    1.071871 S    
N6    Ni3   1.848726 S    
C28   H16   1.078558 S    
C113  C117  1.379065 A    
C27   N19   1.322076 A    
C32   H20   1.079392 S    
N33   O2    1.301295 A    
N11   Ni7   1.900568 S    
C59   H63   1.115776 S    
C88   C100  1.389980 A    
N17   Ni1   1.864950 S    
C56   C72   1.552692 S    
N4    Ni2   1.840537 S    
C107  C111  1.394826 A    
C92   C96   1.380642 A    
C58   C76   1.548331 S    
C88   C96   1.395174 A    
C98   C102  1.369065 A    
C118  H84   1.084306 S    
N7    Ni4   1.825043 S    
C62   H46   1.113323 S    
C97   C101  1.380368 A    
C71   C75   1.543806 S    
C56   H40   1.109629 S    
C75   H67   1.114564 S    
C26   H14   1.078538 S    
C53   C69   1.556669 S    
N3    N16   1.414773 A    
C14   C17   1.378030 A    
C64   H50   1.114395 S    
C19   C68   1.468229 S    
H43   C75   1.114226 S    
C78   H54   1.113078 S    
N3    Ni2   1.863862 S    
C61   C67   1.560325 S    
C90   H80   1.084327 S    
C32   C48   1.380048 A    
C10   N38   1.428600 S    
N29   Ni6   1.876691 S    
C72   C76   1.554670 S    
N38   O12   1.301336 A    
C103  C105  1.410232 A    
C104  C106  1.414762 A    
N20   Ni2   1.841018 S    
C53   H37   1.113195 S    
C62   C78   1.527208 S    
C11   N11   1.327431 A    
N12   Ni8   1.899962 S    
N23   Ni4   1.912689 S    
C5    C21   1.392829 A    
C16   N16   1.319801 A    
C27   C43   1.373059 A    
C31   N23   1.314628 A    
C84   C112  1.389034 A    
C2    N2    1.323988 A    
H41   C73   1.114228 S    
C83   C115  1.407307 A    
C71   C79   1.551300 S    
C11   C24   1.381882 A    
C40   N32   1.338763 A    
C11   N39   1.429105 S    
C4    C20   1.384837 A    
N16   Ni7   1.875020 S    
C25   C41   1.372624 A    
C8    C24   1.379024 A    
N35   O6    1.301291 A    
C72   C80   1.554475 S    
C37   C46   1.373977 A    
C114  H74   1.083654 S    
N32   Ni7   1.876972 S    
C105  C109  1.394774 A    
C59   C67   1.570294 S    
C30   C46   1.377882 A    
C63   C65   1.560412 S    
C14   H10   1.074580 S    
C102  C120  1.399826 A    
C58   H62   1.114035 S    
N2    Ni1   1.840537 S    
C60   N36   1.468022 S    
C117  H83   1.084417 S    
C116  C120  1.383499 A    
C79   H59   1.111576 S    
C111  H71   1.083375 S    
N34   O3    1.301369 A    
C34   H22   1.081456 S    
N27   Ni7   1.899942 S    
C36   C43   1.369543 A    
C119  H81   1.084417 S    
C52   H36   1.114459 S    
C10   N10   1.341407 A    
C51   H31   1.106795 S    
C63   H47   1.110377 S    
C32   N24   1.323929 A    
C12   N40   1.428611 S    
C101  C119  1.391661 A    
N5    N10   1.448045 A    
C57   C65   1.570119 S    
C42   C81   1.462330 S    
C55   H39   1.113198 S    
C96   H88   1.083365 S    
C5    H5    1.079266 S    
H42   C74   1.112466 S    
C13   N13   1.323614 A    
N7    N12   1.448045 A    
C58   C66   1.567510 S    
C113  H73   1.079134 S    
C116  H76   1.083552 S    
N8    N11   1.432333 A    
C61   H45   1.110411 S    
C70   C78   1.554039 S    
C36   N28   1.329686 A    
C23   C87   1.476489 S    
C52   C54   1.516714 S    
C44   C83   1.462435 S    
C35   H23   1.074224 S    
C22   C86   1.413867 S    
C77   H53   1.112863 S    
C54   C70   1.554947 S    
C6    C22   1.379218 A    
C49   C55   1.527922 S    
C21   C85   1.476550 S    
C62   C68   1.556951 S    
C97   H89   1.080363 S    
C29   H17   1.080068 S    
C94   H86   1.083333 S    
C3    C19   1.380305 A    
N23   N32   1.277484 A    
C64   C80   1.524403 S    
C60   C74   1.550126 S    
C38   N30   1.338732 A    
C34   C41   1.369942 A    
C81   C113  1.407287 A    
N15   Ni8   1.875037 S    
C95   H87   1.075968 S    
C47   C71   1.461059 S    
C115  H75   1.079143 S    
C54   H38   1.114295 S    
C40   C47   1.373795 A    
C92   H78   1.084511 S    
C91   C105  1.399125 A    
C50   C56   1.534166 S    
N17   N26   1.418062 A    
C39   H27   1.076738 S    
N5    Ni3   1.825043 S    
N28   Ni8   1.900682 S    
C52   H32   1.111514 S    
N21   Ni3   1.912689 S    
C18   C65   1.469956 S    
C62   H52   1.113940 S    
C30   H18   1.081223 S    
C85   C97   1.400063 A    
N1    Ni1   1.863862 S    
C33   H21   1.074216 S    
C103  C117  1.391648 A    
C20   C67   1.470159 S    
C37   N29   1.324135 A    
C9    N37   1.428872 S    
C57   N33   1.470932 S    
N40   O15   1.300800 A    
C49   C65   1.553389 S    
C64   H48   1.114201 S    
N8    Ni4   1.848726 S    
C39   N31   1.331482 A    
C49   H33   1.113188 S    
C99   H91   1.080352 S    
C33   C42   1.384697 A    
C28   C44   1.401766 A    
C69   C73   1.543700 S    
C80   H56   1.113759 S    
C98   H90   1.086475 S    
C51   H35   1.113186 S    
N22   Ni3   1.937012 S    
C30   N22   1.324579 A    
