data_mof_unit_1127.cif
_audit_creation_date              2012-12-10T17:24:46-0500
_audit_creation_method            fapswitch 2.2
_symmetry_space_group_name_H-M    P1
_symmetry_Int_Tables_number       1
_space_group_crystal_system       triclinic
_cell_length_a                    23.493319
_cell_length_b                    10.768877
_cell_length_c                    9.645207
_cell_angle_alpha                 89.926599
_cell_angle_beta                  90.432141
_cell_angle_gamma                 94.505552
_cell_volume                      2432.5945072

loop_
_atom_site_label
_atom_site_type_symbol
_atom_type_description
_atom_site_fract_x
_atom_site_fract_y
_atom_site_fract_z
_atom_type_partial_charge
C1    C     C_R   0.497967 0.262575 0.500076 0.785516
C2    C     C_R   0.962392 0.276499 0.497296 -0.160348
C3    C     C_R   0.021781 0.276696 0.495869 -0.162780
C4    C     C_R   0.056088 0.389602 0.497138 -0.014441
C5    C     C_R   0.030154 0.503181 0.499848 -0.017864
C6    C     C_R   0.064161 0.616944 0.501645 -0.015488
C7    C     C_R   0.037844 0.729655 0.503888 -0.160698
C8    C     C_R   0.978442 0.729474 0.504270 -0.162645
C9    C     C_R   0.115879 0.392137 0.496084 0.532584
C10   C     C_R   0.123797 0.614753 0.501040 0.532755
C11   C     C_R   0.240130 0.525780 0.621382 -0.108603
C12   C     C_R   0.391069 0.499756 0.499612 0.766674
C13   C     C_R   0.299411 0.524278 0.622005 -0.235416
C14   C     C_R   0.328473 0.501209 0.498900 -0.033636
C15   C     C_R   0.297161 0.479829 0.375297 -0.206909
C16   C     C_R   0.237824 0.480596 0.375195 -0.105776
C17   C     C_R   0.209216 0.503577 0.498163 0.366190
C18   C     C_R   0.761797 0.525358 0.378841 -0.103096
C19   C     C_R   0.702412 0.524162 0.378090 -0.220930
C20   C     C_R   0.671610 0.500521 0.501009 -0.045681
C21   C     C_R   0.701287 0.477834 0.624445 -0.227910
C22   C     C_R   0.760671 0.478460 0.624702 -0.105276
C23   C     C_R   0.497938 0.736755 0.499867 0.781631
C24   C     C_R   0.791016 0.502318 0.501997 0.364445
C25   C     C_R   0.406445 0.113448 0.641840 -0.188473
C26   C     C_R   0.363720 0.041060 0.710816 -0.121383
C27   C     C_R   0.363728 0.911901 0.710870 -0.112558
C28   C     C_R   0.406468 0.854327 0.641991 -0.172081
C29   C     C_R   0.450756 0.925834 0.573036 0.097608
C30   C     C_R   0.450772 0.057195 0.573083 0.097162
C31   C     C_R   0.494131 0.128050 0.500089 -0.099065
C32   C     C_R   0.534876 0.070130 0.424252 -0.186467
C33   C     C_R   0.534875 0.942052 0.424299 -0.203932
C34   C     C_R   0.608924 0.499824 0.500314 0.798617
C35   C     C_R   0.494056 0.869964 0.499815 -0.100797
C36   C     C_R   0.570587 0.676151 0.153150 -0.140164
C37   C     C_R   0.599689 0.776844 0.092622 -0.255629
C38   C     C_R   0.600108 0.786288 0.952156 -0.222612
C39   C     C_R   0.573577 0.692264 0.868502 0.190819
C40   C     C_R   0.535466 0.591649 0.927502 0.186841
C41   C     C_R   0.534877 0.588433 0.077494 0.172986
C42   C     C_R   0.466712 0.416213 0.072908 -0.054778
C43   C     C_R   0.466831 0.415962 0.925584 -0.065805
C44   C     C_R   0.884324 0.614011 0.503170 0.532530
C45   C     C_R   0.876455 0.391363 0.500733 0.534031
C46   C     C_R   0.936082 0.389207 0.499704 -0.015776
C47   C     C_R   0.970076 0.502989 0.500782 -0.017972
C48   C     C_R   0.944129 0.616573 0.502744 -0.014137
Cu1   Cu    Cu3+1 0.500000 0.499990 0.640660 0.949841
Cu2   Cu    Cu3+1 0.500000 0.500010 0.359340 0.941148
H1    H     H_    0.937212 0.187821 0.496346 0.191360
H2    H     H_    0.680721 0.542454 0.281586 0.158830
H3    H     H_    0.678656 0.458979 0.720536 0.161977
H4    H     H_    0.783177 0.460576 0.720154 0.138175
H5    H     H_    0.567683 0.124666 0.367265 0.156103
H6    H     H_    0.403581 0.213141 0.640948 0.139070
H7    H     H_    0.330051 0.085347 0.762955 0.145392
H8    H     H_    0.330064 0.855927 0.763021 0.145310
H9    H     H_    0.403657 0.753759 0.641481 0.148918
H10   H     H_    0.567782 0.898962 0.367826 0.140111
H11   H     H_    0.439234 0.347238 0.127082 0.137148
H12   H     H_    0.040680 0.188159 0.493901 0.187114
H13   H     H_    0.578245 0.672446 0.260890 0.202567
H14   H     H_    0.624697 0.844930 0.155100 0.161647
H15   H     H_    0.626584 0.862423 0.906478 0.158818
H16   H     H_    0.439498 0.346824 0.870452 0.134253
H17   H     H_    0.063029 0.818324 0.505222 0.191338
H18   H     H_    0.959538 0.818012 0.505864 0.187104
H19   H     H_    0.218117 0.543602 0.716689 0.136336
H20   H     H_    0.322438 0.541795 0.718591 0.156066
H21   H     H_    0.318412 0.461611 0.279022 0.156081
H22   H     H_    0.214010 0.463424 0.279670 0.136793
H23   H     H_    0.785172 0.543785 0.283728 0.137366
N1    N     N_R   0.851975 0.502587 0.502224 -0.472245
N2    N     N_R   0.148258 0.503522 0.498184 -0.471947
N3    N     N_R   0.500540 0.501210 0.147910 -0.193535
N4    N     N_R   0.500560 0.501290 0.852040 -0.186511
O1    O     O_R   0.500000 0.319640 0.618810 -0.579780
O2    O     O_2   0.843148 0.283402 0.499503 -0.530387
O3    O     O_2   0.141529 0.284350 0.493784 -0.532409
O4    O     O_2   0.157120 0.722688 0.502694 -0.531308
O5    O     O_R   0.500000 0.319660 0.381240 -0.573254
O6    O     O_R   0.417880 0.499950 0.618810 -0.595949
O7    O     O_R   0.417880 0.499980 0.381240 -0.574762
O8    O     O_R   0.500000 0.680340 0.618760 -0.559067
O9    O     O_R   0.500000 0.680360 0.381190 -0.588419
O10   O     O_R   0.582120 0.500020 0.618760 -0.546481
O11   O     O_R   0.582120 0.500050 0.381190 -0.606320
O12   O     O_2   0.858641 0.721761 0.505022 -0.533208
N5    N     N_3   0.593953 0.698578 0.730257 -0.506792
H24   H     H_    0.637742 0.686501 0.732811 0.201379
H25   H     H_    0.589997 0.788210 0.690813 0.200864

loop_
_geom_bond_atom_site_label_1
_geom_bond_atom_site_label_2
_ccdc_geom_bond_type
Cu1   O10   S    
C19   C20   A    
C16   H22   S    
C25   H6    S    
Cu2   O7    S    
C7    C8    A    
C22   H4    S    
C45   C46   A    
C2    C46   A    
C5    C47   A    
C26   C27   A    
C29   C30   A    
C18   C24   A    
C36   C37   A    
C38   C39   A    
C3    H12   S    
C13   H20   S    
C15   C16   A    
C1    C31   S    
Cu1   O1    S    
C12   O7    A    
C18   C19   A    
C19   H2    S    
C11   C17   A    
C31   C32   A    
C16   C17   A    
C23   O9    A    
C36   H13   S    
C32   H5    S    
Cu2   O11   S    
C20   C34   S    
C21   C22   A    
C1    O1    A    
C36   C41   A    
Cu1   O8    S    
C39   C40   A    
C25   C26   A    
C12   O6    A    
C45   N1    A    
C9    O3    S    
C8    C48   A    
C37   C38   A    
Cu2   N3    S    
C10   N2    A    
N5    H25   S    
C47   C48   A    
C38   H15   S    
C30   C31   A    
C45   O2    S    
C34   O11   A    
C44   N1    A    
C42   H11   S    
C40   C41   A    
C12   C14   S    
C8    H18   S    
C18   H23   S    
C23   C35   S    
C22   C24   A    
C43   N4    A    
C42   C43   A    
C3    C4    A    
C37   H14   S    
Cu2   O5    S    
C28   H9    S    
C25   C30   A    
C46   C47   A    
C28   C29   A    
C39   N5    S    
C40   N4    A    
C4    C5    A    
C27   H8    S    
C6    C10   A    
C11   H19   S    
C6    C7    A    
C33   H10   S    
C15   H21   S    
C29   C35   A    
C10   O4    S    
C42   N3    A    
C32   C33   A    
Cu1   O6    S    
C2    C3    A    
C1    O5    A    
C41   N3    A    
C21   H3    S    
C11   C13   A    
C24   N1    S    
N5    H24   S    
C5    C6    A    
C43   H16   S    
C33   C35   A    
Cu1   N4    S    
C34   O10   A    
C26   H7    S    
C2    H1    S    
Cu2   O9    S    
C7    H17   S    
C20   C21   A    
Cu1   Cu2   S    
C23   O8    A    
C27   C28   A    
C17   N2    S    
C14   C15   A    
C9    N2    A    
C4    C9    A    
C13   C14   A    
C44   O12   S    
C44   C48   A    
