data_mof_unit_4810.cif
_audit_creation_date              2012-12-10T20:25:43-0500
_audit_creation_method            fapswitch 2.2
_symmetry_space_group_name_H-M    P1
_symmetry_Int_Tables_number       1
_space_group_crystal_system       triclinic
_cell_length_a                    8.573001
_cell_length_b                    10.695087
_cell_length_c                    9.902017
_cell_angle_alpha                 89.231121
_cell_angle_beta                  97.60964
_cell_angle_gamma                 90.676886
_cell_volume                      899.783106456

loop_
_atom_site_label
_atom_site_type_symbol
_atom_type_description
_atom_site_fract_x
_atom_site_fract_y
_atom_site_fract_z
_atom_type_partial_charge
C1    C     C_R   0.511913 0.260329 0.501886 0.932477
C2    C     C_R   0.361759 0.492046 0.913810 0.277459
C3    C     C_3   0.240210 0.390192 0.897690 -0.400330
C4    C     C_R   0.201770 0.503073 0.465354 1.028703
C5    C     C_3   0.243718 0.387381 0.051459 -0.447583
C6    C     C_R   0.506078 0.739911 0.500104 0.969543
C7    C     C_R   0.797876 0.507003 0.534620 0.864177
C8    C     C_2   0.037375 0.496683 0.449578 -0.408856
C9    C     C_2   0.959832 0.533087 0.550019 0.210064
C10   C     C_R   0.530935 0.061237 0.626043 -0.066740
C11   C     C_R   0.546625 0.129299 0.507418 -0.214999
C12   C     C_R   0.582155 0.935750 0.392310 -0.155522
C13   C     C_R   0.594855 0.065573 0.394928 0.464060
C14   C     C_R   0.535260 0.871065 0.504398 -0.169621
C15   C     C_R   0.529755 0.933970 0.625494 0.025122
C16   C     C_3   0.421218 0.922652 0.731558 0.631484
C17   C     C_3   0.419951 0.066263 0.730843 0.540937
C18   C     C_R   0.362591 0.489691 0.055812 0.156457
C19   C     C_R   0.632150 0.531891 0.084975 0.468603
C20   C     C_R   0.633241 0.525854 0.942075 -0.029866
Cl1   Cl    Cl    0.036687 0.630783 0.686992 -0.563582
Cl2   Cl    Cl    0.513197 0.845737 0.883257 -0.528801
Cl3   Cl    Cl    0.232586 0.131890 0.665603 -0.601925
Cl4   Cl    Cl    0.512787 0.137648 0.883833 -0.520113
H1    H     H_    0.980239 0.449312 0.359334 0.180796
H2    H     H_    0.726024 0.637339 0.226192 0.368843
H3    H     H_    0.740534 0.547292 0.899695 0.197007
H4    H     H_    0.125483 0.421388 0.843641 0.246631
H5    H     H_    0.284289 0.304217 0.857686 0.281023
H6    H     H_    0.131937 0.418776 0.084954 0.230744
H7    H     H_    0.292727 0.299595 0.100524 0.254574
H8    H     H_    0.605333 0.886649 0.302125 0.208754
H9    H     H_    0.708612 0.199991 0.319175 0.345952
H10   H     H_    0.209910 0.871924 0.754372 0.400668
N1    N     N_R   0.498950 0.499140 0.142680 -0.162172
N2    N     N_R   0.498950 0.499180 0.857030 -0.139609
O1    O     O_R   0.500020 0.316790 0.614690 -0.571445
O2    O     O_3   0.276690 0.867500 0.680101 -0.689755
O3    O     O_3   0.764091 0.578411 0.161867 -0.742890
O4    O     O_R   0.500000 0.316760 0.385350 -0.611951
O5    O     O_R   0.271760 0.500010 0.587850 -0.558165
O6    O     O_R   0.271740 0.499970 0.358500 -0.622221
O7    O     O_R   0.500000 0.683240 0.614650 -0.553518
O8    O     O_R   0.499980 0.683210 0.385310 -0.652217
O9    O     O_R   0.728260 0.500030 0.641500 -0.606233
O10   O     O_R   0.728240 0.499990 0.412150 -0.643006
O11   O     O_3   0.646827 0.125421 0.284867 -0.679846
Zn1   Zn    Zn3+2 0.500010 0.500020 0.653130 1.065501
Zn2   Zn    Zn3+2 0.499990 0.499980 0.346870 0.991385

loop_
_geom_bond_atom_site_label_1
_geom_bond_atom_site_label_2
_ccdc_geom_bond_type
O8    Zn2   S    
N1    Zn2   S    
C20   H3    S    
C2    C18   A    
C18   N1    A    
C19   C20   A    
C1    C11   S    
C1    O1    A    
C4    C8    S    
C2    C3    S    
C19   N1    A    
C4    O5    A    
C12   H8    S    
O1    Zn1   S    
C8    H1    S    
C11   C13   A    
O10   Zn2   S    
C9    Cl1   S    
C17   Cl3   S    
C4    O6    A    
C19   O3    S    
C3    H4    S    
O5    Zn1   S    
C12   C14   A    
N2    Zn1   S    
C6    O7    A    
H9    O11   S    
H2    O3    S    
C17   Cl4   S    
C6    C14   S    
C10   C11   A    
C10   C17   S    
O4    Zn2   S    
C20   N2    A    
C7    O10   A    
C7    O9    A    
C12   C13   A    
C6    O8    A    
C7    C9    S    
C5    H6    S    
O7    Zn1   S    
O9    Zn1   S    
C2    N2    A    
C3    H5    S    
C14   C15   A    
C8    C9    D    
C16   Cl2   S    
C5    C18   S    
O6    Zn2   S    
C1    O4    A    
C5    H7    S    
C10   C15   A    
H10   O2    S    
C13   O11   S    
C15   C16   S    
C16   O2    S    
C16   C17   S    
C3    C5    S    
