data_mof_unit_2078.cif
_audit_creation_date              2012-12-11T15:50:23-0500
_audit_creation_method            fapswitch 2.2
_symmetry_space_group_name_H-M    P1
_symmetry_Int_Tables_number       1
_space_group_crystal_system       triclinic
_cell_length_a                    18.928887
_cell_length_b                    10.984485
_cell_length_c                    18.785373
_cell_angle_alpha                 90.120746
_cell_angle_beta                  90.813408
_cell_angle_gamma                 89.938469
_cell_volume                      3905.52690559

loop_
_atom_site_label
_atom_site_type_symbol
_atom_type_description
_atom_site_fract_x
_atom_site_fract_y
_atom_site_fract_z
_atom_type_partial_charge
C1    C     C_R   0.275041 0.035330 0.855645 0.533628
C2    C     C_R   0.724920 0.035080 0.144271 0.531946
C3    C     C_R   0.775035 0.535346 0.855640 0.531871
C4    C     C_R   0.224920 0.535081 0.144272 0.532086
C5    C     C_3   0.518280 0.730667 0.963498 -0.151123
C6    C     C_3   0.481712 0.730594 0.036263 -0.151375
C7    C     C_3   0.018279 0.230671 0.963505 -0.150979
C8    C     C_3   0.981700 0.230594 0.036264 -0.151403
C9    C     C_R   0.239859 0.568308 0.072222 0.033355
C10   C     C_R   0.760106 0.568751 0.927678 0.033209
C11   C     C_R   0.739856 0.068300 0.072220 0.033364
C12   C     C_R   0.260115 0.068721 0.927684 0.032611
C13   C     C_R   0.307435 0.563110 0.043811 0.028428
C14   C     C_R   0.692551 0.563398 0.956084 0.028733
C15   C     C_R   0.807433 0.063108 0.043809 0.028256
C16   C     C_R   0.192555 0.063398 0.956082 0.028670
C17   C     C_R   0.318438 0.596558 0.973844 0.071525
C18   C     C_R   0.681532 0.596623 0.026147 0.071870
C19   C     C_R   0.818433 0.096546 0.973840 0.072108
C20   C     C_R   0.181539 0.096611 0.026148 0.071909
C21   C     C_R   0.193107 0.635013 0.959192 -0.150119
C22   C     C_R   0.806870 0.634847 0.040866 -0.148973
C23   C     C_R   0.693101 0.134985 0.959187 -0.149914
C24   C     C_R   0.306881 0.134794 0.040875 -0.148936
C25   C     C_R   0.182777 0.605569 0.029150 -0.129797
C26   C     C_R   0.817185 0.605795 0.970814 -0.130431
C27   C     C_R   0.682771 0.105545 0.029146 -0.129850
C28   C     C_R   0.317197 0.105733 0.970824 -0.130449
C29   C     C_3   0.357343 0.458592 0.039557 -0.281607
C30   C     C_3   0.642827 0.458792 0.959979 -0.281259
C31   C     C_3   0.857340 0.958589 0.039556 -0.281625
C32   C     C_3   0.142823 0.958802 0.959973 -0.281185
C33   C     C_3   0.371432 0.497199 0.963583 -0.274159
C34   C     C_3   0.628679 0.497194 0.036070 -0.274245
C35   C     C_3   0.871424 0.997184 0.963579 -0.274145
C36   C     C_3   0.128681 0.997188 0.036067 -0.274237
C37   C     C_R   0.261092 0.630515 0.930466 0.029809
C38   C     C_R   0.738892 0.630300 0.069583 0.031738
C39   C     C_R   0.761086 0.130494 0.930462 0.031223
C40   C     C_R   0.238901 0.130265 0.069588 0.031589
C41   C     C_R   0.495463 0.829251 0.421535 0.018610
C42   C     C_R   0.485484 0.830980 0.570791 0.016369
C43   C     C_R   0.993932 0.330455 0.420811 0.015901
C44   C     C_R   0.983045 0.329726 0.569892 0.019961
C45   C     C_R   0.439511 0.818176 0.863161 0.552077
C46   C     C_R   0.560466 0.817942 0.136846 0.550813
C47   C     C_R   0.939513 0.318177 0.863162 0.550804
C48   C     C_R   0.060459 0.317943 0.136846 0.550701
C49   C     C_R   0.486681 0.721184 0.459763 0.026474
C50   C     C_R   0.483404 0.723055 0.532330 0.026136
C51   C     C_R   0.979505 0.222679 0.457676 0.026721
C52   C     C_R   0.974887 0.223098 0.530447 0.042677
C53   C     C_R   0.481738 0.941100 0.532447 -0.162250
C54   C     C_R   0.486156 0.940197 0.457750 -0.169305
C55   C     C_R   0.985654 0.440851 0.532839 -0.163767
C56   C     C_R   0.989761 0.441244 0.458220 -0.170913
C57   C     C_3   0.528587 0.605179 0.461535 -0.266663
C58   C     C_3   0.524992 0.609199 0.541881 -0.282179
C59   C     C_3   0.016833 0.102039 0.458753 -0.269118
C60   C     C_3   0.012501 0.104684 0.538928 -0.278161
C61   C     C_R   0.252891 0.612850 0.416628 0.018491
C62   C     C_R   0.748524 0.588796 0.577794 0.014754
C63   C     C_R   0.751052 0.104958 0.418617 0.018659
C64   C     C_R   0.246136 0.095912 0.580021 0.017911
C65   C     C_R   0.204520 0.688234 0.451472 0.024429
C66   C     C_R   0.784066 0.684374 0.545488 0.014396
C67   C     C_R   0.702230 0.176337 0.455532 0.020462
C68   C     C_R   0.281235 0.191984 0.547506 0.020951
C69   C     C_R   0.213298 0.715815 0.522329 0.021051
C70   C     C_R   0.783813 0.692208 0.472958 0.050583
C71   C     C_R   0.705565 0.181790 0.527991 0.036365
C72   C     C_R   0.280777 0.199589 0.474859 0.046957
C73   C     C_R   0.325707 0.612222 0.523446 -0.156429
C74   C     C_R   0.704574 0.521426 0.462239 -0.178896
C75   C     C_R   0.814695 0.069803 0.528918 -0.152664
C76   C     C_R   0.199957 0.031516 0.464823 -0.175769
C77   C     C_R   0.317194 0.585507 0.450879 -0.159499
C78   C     C_R   0.703810 0.513636 0.536057 -0.165240
C79   C     C_R   0.812003 0.064545 0.454624 -0.154213
C80   C     C_R   0.198912 0.025133 0.538780 -0.169900
C81   C     C_3   0.126510 0.671435 0.459291 -0.269605
C82   C     C_3   0.859580 0.725487 0.550730 -0.270707
C83   C     C_3   0.622760 0.173841 0.456804 -0.268824
C84   C     C_3   0.355611 0.238650 0.552820 -0.273374
C85   C     C_3   0.136209 0.699286 0.537096 -0.268857
C86   C     C_3   0.859322 0.730519 0.470483 -0.265365
C87   C     C_3   0.627527 0.179774 0.536878 -0.279083
C88   C     C_3   0.355263 0.243224 0.472343 -0.266753
C89   C     C_R   0.271307 0.675153 0.859287 0.542852
C90   C     C_R   0.728659 0.675062 0.140781 0.539446
C91   C     C_R   0.771303 0.175142 0.859287 0.539786
C92   C     C_R   0.228665 0.175039 0.140782 0.539618
C93   C     C_R   0.271278 0.670884 0.560519 0.016292
C94   C     C_R   0.747887 0.607528 0.430308 0.022926
C95   C     C_R   0.757534 0.119331 0.566158 0.021224
C96   C     C_R   0.245170 0.114209 0.432304 0.023973
C97   C     C_R   0.270585 0.047314 0.647003 0.548651
C98   C     C_R   0.729185 0.048702 0.352630 0.550062
C99   C     C_R   0.771106 0.545623 0.646326 0.554519
C100  C     C_R   0.229175 0.548773 0.352963 0.548010
C101  C     C_R   0.467991 0.823559 0.645693 0.542905
C102  C     C_R   0.529165 0.823326 0.352472 0.550708
C103  C     C_R   0.967348 0.323268 0.645301 0.552578
C104  C     C_R   0.028985 0.323403 0.352383 0.551427
C105  C     C_R   0.274499 0.689833 0.636841 0.574409
C106  C     C_R   0.740179 0.637804 0.356596 0.550577
C107  C     C_R   0.761483 0.141978 0.641470 0.552613
C108  C     C_R   0.239524 0.139867 0.357583 0.551877
C109  C     C_3   0.482331 0.930849 0.037201 -0.138746
C110  C     C_3   0.517529 0.930928 0.963192 -0.139201
C111  C     C_3   0.982317 0.430851 0.037204 -0.138812
C112  C     C_3   0.017525 0.430934 0.963201 -0.139186
C113  C     C_3   0.431118 0.831191 0.010915 0.254876
C114  C     C_3   0.568804 0.831119 0.989158 0.254922
C115  C     C_3   0.931108 0.331192 0.010911 0.254871
C116  C     C_3   0.068796 0.331126 0.989175 0.254820
C117  C     C_3   0.466298 0.829793 0.937489 0.021160
C118  C     C_3   0.533625 0.829529 0.062572 0.021887
C119  C     C_3   0.966299 0.329796 0.937489 0.021531
C120  C     C_3   0.033607 0.329531 0.062579 0.022000
Cr1   Cr    Cr6+3 0.229640 0.835880 0.747370 0.993819
Cr2   Cr    Cr6+3 0.770360 0.835880 0.252630 1.000252
Cr3   Cr    Cr6+3 0.729640 0.335880 0.747370 0.999716
Cr4   Cr    Cr6+3 0.270360 0.335880 0.252630 1.000774
Cr5   Cr    Cr6+3 0.387390 0.989720 0.750850 0.994337
Cr6   Cr    Cr6+3 0.612610 0.989720 0.249150 0.998309
Cr7   Cr    Cr6+3 0.887390 0.489720 0.750850 1.000556
Cr8   Cr    Cr6+3 0.112610 0.489720 0.249150 0.999188
Cr9   Cr    Cr6+3 0.385770 0.677220 0.749340 0.998050
Cr10  Cr    Cr6+3 0.614230 0.677220 0.250660 0.997845
Cr11  Cr    Cr6+3 0.885770 0.177220 0.749340 1.001274
Cr12  Cr    Cr6+3 0.114230 0.177220 0.250660 0.998296
H1    H     H_    0.477655 0.027055 0.560039 0.121615
H2    H     H_    0.487307 0.025538 0.429229 0.114042
H3    H     H_    0.987592 0.526189 0.561450 0.118339
H4    H     H_    0.995863 0.526880 0.430735 0.117369
H5    H     H_    0.071713 0.108251 0.439976 0.175382
H6    H     H_    0.978935 0.031383 0.560704 0.130644
H7    H     H_    0.582677 0.618328 0.441738 0.178498
H8    H     H_    0.493594 0.533586 0.564530 0.132840
H9    H     H_    0.499106 0.527406 0.437572 0.124122
H10   H     H_    0.576776 0.626128 0.568626 0.144915
H11   H     H_    0.984745 0.028319 0.433854 0.122228
H12   H     H_    0.064563 0.115491 0.566207 0.142716
H13   H     H_    0.371808 0.578656 0.551536 0.137806
H14   H     H_    0.672165 0.460287 0.430416 0.123679
H15   H     H_    0.859609 0.032005 0.557062 0.125426
H16   H     H_    0.167062 0.970529 0.433404 0.124477
H17   H     H_    0.357608 0.534576 0.423703 0.117944
H18   H     H_    0.673377 0.441629 0.559762 0.144234
H19   H     H_    0.853764 0.019498 0.426156 0.117547
H20   H     H_    0.166922 0.956266 0.563115 0.137406
H21   H     H_    0.110365 0.575762 0.449939 0.163942
H22   H     H_    0.896768 0.656057 0.571458 0.164443
H23   H     H_    0.600631 0.086088 0.438165 0.174032
H24   H     H_    0.394573 0.172465 0.573994 0.159728
H25   H     H_    0.095313 0.741527 0.429970 0.130556
H26   H     H_    0.864703 0.816270 0.576349 0.125792
H27   H     H_    0.598613 0.256410 0.432428 0.125246
H28   H     H_    0.358262 0.330390 0.577847 0.137136
H29   H     H_    0.108607 0.783677 0.553329 0.124492
H30   H     H_    0.866085 0.823320 0.449255 0.139491
H31   H     H_    0.606263 0.265809 0.559107 0.133760
H32   H     H_    0.359389 0.336484 0.450940 0.142902
H33   H     H_    0.125409 0.619115 0.571370 0.158972
H34   H     H_    0.893517 0.660451 0.445697 0.134825
H35   H     H_    0.609074 0.095461 0.563449 0.139540
H36   H     H_    0.391232 0.175591 0.447766 0.133729
H37   H     H_    0.468265 0.014765 0.066869 0.109999
H38   H     H_    0.531536 0.014901 0.933805 0.109900
H39   H     H_    0.968248 0.514766 0.066872 0.109952
H40   H     H_    0.031531 0.514912 0.933818 0.110028
H41   H     H_    0.533212 0.646976 0.934494 0.118858
H42   H     H_    0.466868 0.646887 0.065044 0.118555
H43   H     H_    0.033219 0.146987 0.934498 0.118866
H44   H     H_    0.966854 0.146889 0.065046 0.118529
H45   H     H_    0.147056 0.660746 0.927806 0.131321
H46   H     H_    0.852927 0.660431 0.072304 0.131160
H47   H     H_    0.647049 0.160714 0.927800 0.131137
H48   H     H_    0.352938 0.160369 0.072316 0.131188
H49   H     H_    0.129221 0.608985 0.048730 0.141555
H50   H     H_    0.870732 0.609235 0.951229 0.141358
H51   H     H_    0.629215 0.108954 0.048726 0.141575
H52   H     H_    0.370745 0.109153 0.951240 0.141431
H53   H     H_    0.829373 0.870601 0.043130 0.156737
H54   H     H_    0.170958 0.870886 0.956105 0.157041
H55   H     H_    0.329379 0.370599 0.043126 0.156685
H56   H     H_    0.670967 0.370879 0.956119 0.157145
H57   H     H_    0.403616 0.468447 0.076042 0.123662
H58   H     H_    0.596541 0.468630 0.923522 0.123653
H59   H     H_    0.903614 0.968445 0.076038 0.123603
H60   H     H_    0.096537 0.968655 0.923518 0.123713
H61   H     H_    0.425525 0.532833 0.956288 0.135904
H62   H     H_    0.574535 0.532781 0.043466 0.135838
H63   H     H_    0.925517 0.032815 0.956279 0.135847
H64   H     H_    0.074540 0.032783 0.043470 0.135817
H65   H     H_    0.355758 0.429165 0.922847 0.133176
H66   H     H_    0.644432 0.429065 0.076577 0.132666
H67   H     H_    0.855742 0.929147 0.922849 0.132721
H68   H     H_    0.144436 0.929047 0.076567 0.132668
O1    O     O_R   0.214300 0.709080 0.827500 -0.529192
O2    O     O_R   0.785700 0.709080 0.172500 -0.534983
O3    O     O_R   0.714300 0.209080 0.827500 -0.533962
O4    O     O_R   0.285700 0.209080 0.172500 -0.534469
O5    O     O_R   0.445900 0.919370 0.676500 -0.504489
O6    O     O_R   0.554100 0.919370 0.323500 -0.504652
O7    O     O_R   0.945900 0.419370 0.676500 -0.502520
O8    O     O_R   0.054100 0.419370 0.323500 -0.503264
O9    O     O_R   0.456660 0.717710 0.669820 -0.523926
O10   O     O_R   0.543340 0.717710 0.330180 -0.521322
O11   O     O_R   0.956660 0.217710 0.669820 -0.516525
O12   O     O_R   0.043340 0.217710 0.330180 -0.521900
O13   O     O_R   0.320590 0.625770 0.672930 -0.504846
O14   O     O_R   0.679410 0.625770 0.327070 -0.509158
O15   O     O_R   0.820590 0.125770 0.672930 -0.506101
O16   O     O_R   0.179410 0.125770 0.327070 -0.507710
O17   O     O_3   0.334270 0.834280 0.749190 -0.294070
O18   O     O_3   0.665730 0.834280 0.250810 -0.271868
O19   O     O_3   0.834270 0.334280 0.749190 -0.274420
O20   O     O_3   0.165730 0.334280 0.250810 -0.272433
O21   O     O_R   0.236190 0.958390 0.823150 -0.512218
O22   O     O_R   0.763810 0.958390 0.176850 -0.513472
O23   O     O_R   0.736190 0.458390 0.823150 -0.513043
O24   O     O_R   0.263810 0.458390 0.176850 -0.513223
O25   O     O_R   0.332090 0.075280 0.831290 -0.538789
O26   O     O_R   0.667910 0.075280 0.168710 -0.540845
O27   O     O_R   0.832090 0.575280 0.831290 -0.540706
O28   O     O_R   0.167910 0.575280 0.168710 -0.540771
O29   O     O_R   0.446280 0.918040 0.826620 -0.508049
O30   O     O_R   0.553720 0.918040 0.173380 -0.510530
O31   O     O_R   0.946280 0.418040 0.826620 -0.509418
O32   O     O_R   0.053720 0.418040 0.173380 -0.510777
O33   O     O_R   0.457080 0.716270 0.831760 -0.534397
O34   O     O_R   0.542920 0.716270 0.168240 -0.535010
O35   O     O_R   0.957080 0.216270 0.831760 -0.534992
O36   O     O_R   0.042920 0.216270 0.168240 -0.535245
O37   O     O_R   0.320980 0.624440 0.823040 -0.513019
O38   O     O_R   0.679020 0.624440 0.176960 -0.519088
O39   O     O_R   0.820980 0.124440 0.823040 -0.518794
O40   O     O_R   0.179020 0.124440 0.176960 -0.518683
O41   O     O_R   0.213880 0.710510 0.665560 -0.517684
O42   O     O_R   0.786120 0.710510 0.334440 -0.515647
O43   O     O_R   0.713880 0.210510 0.665560 -0.516939
O44   O     O_R   0.286120 0.210510 0.334440 -0.516072
O45   O     O_R   0.235800 0.959720 0.673040 -0.524946
O46   O     O_R   0.764200 0.959720 0.326960 -0.504226
O47   O     O_R   0.735800 0.459720 0.673040 -0.510614
O48   O     O_R   0.264200 0.459720 0.326960 -0.504485
O49   O     O_R   0.331670 0.076720 0.669350 -0.523187
O50   O     O_R   0.668330 0.076720 0.330650 -0.526086
O51   O     O_R   0.831670 0.576720 0.669350 -0.524465
O52   O     O_R   0.168330 0.576720 0.330650 -0.522973
O53   O     O_3   0.358716 0.836535 0.028055 -0.568211
C121  C     C_3   0.352799 0.829380 0.103397 0.002467
H69   H     H_    0.382691 0.903332 0.130913 0.143023
H70   H     H_    0.373103 0.740646 0.123405 0.141103
C122  C     C_3   0.276288 0.839793 0.125657 -0.368167
H71   H     H_    0.266192 0.779464 0.171725 0.116593
H72   H     H_    0.264577 0.933419 0.143091 0.151385
H73   H     H_    0.240838 0.814606 0.080834 0.176430
O54   O     O_3   0.641206 0.836370 0.972050 -0.568258
C123  C     C_3   0.647147 0.829338 0.896691 0.002447
H74   H     H_    0.617125 0.903272 0.869384 0.143170
H75   H     H_    0.626994 0.740603 0.876426 0.141017
C124  C     C_3   0.723646 0.839920 0.874473 -0.368292
H76   H     H_    0.733926 0.779335 0.828402 0.116410
H77   H     H_    0.735109 0.933470 0.857029 0.151163
H78   H     H_    0.759154 0.815194 0.919310 0.176607
O55   O     O_3   0.858703 0.336535 0.028041 -0.568175
C125  C     C_3   0.852778 0.329409 0.103381 0.002416
H79   H     H_    0.882655 0.403384 0.130888 0.142868
H80   H     H_    0.873092 0.240697 0.123406 0.141019
C126  C     C_3   0.776264 0.339799 0.125632 -0.368397
H81   H     H_    0.766170 0.279470 0.171698 0.116171
H82   H     H_    0.764542 0.433420 0.143064 0.151156
H83   H     H_    0.740822 0.314600 0.080805 0.176546
O56   O     O_3   0.141205 0.336368 0.972103 -0.568655
C127  C     C_3   0.147179 0.329438 0.896745 0.002375
H84   H     H_    0.117232 0.403500 0.869469 0.144461
H85   H     H_    0.126962 0.240778 0.876417 0.141090
C128  C     C_3   0.223703 0.339876 0.874580 -0.366030
H86   H     H_    0.233993 0.279202 0.828552 0.118964
H87   H     H_    0.235226 0.433381 0.857089 0.154010
H88   H     H_    0.259165 0.315185 0.919461 0.175559

loop_
_geom_bond_atom_site_label_1
_geom_bond_atom_site_label_2
_ccdc_geom_bond_type
Cr4   O20   S    
C73   C93   A    
C75   C95   A    
C48   C120  S    
C128  H88   S    
C63   C98   S    
C69   C93   A    
C97   O45   A    
C5    C6    S    
C20   C40   A    
C71   C95   A    
C22   C38   A    
C29   C33   S    
C126  H83   S    
Cr1   O17   S    
C1    O21   A    
Cr7   O7    S    
C121  H70   S    
C11   C15   A    
C87   H35   S    
C12   C16   A    
C88   H36   S    
O53   C121  S    
Cr12  O16   S    
Cr4   O44   S    
C23   H47   S    
Cr2   O46   S    
C34   H62   S    
C21   H45   S    
C96   C108  S    
C59   C60   S    
Cr8   O32   S    
C107  O43   A    
Cr6   O26   S    
C105  O41   A    
C109  C118  S    
C47   O35   A    
C90   O38   A    
Cr11  O15   S    
C51   C52   A    
C7    C119  S    
C53   H1    S    
C99   O51   A    
C62   C66   A    
C97   O49   A    
C6    H42   S    
Cr11  O35   S    
Cr3   O23   S    
C66   C82   S    
C11   C27   A    
C68   C72   A    
Cr12  O36   S    
C26   H50   S    
C64   C97   S    
C125  H80   S    
Cr9   O9    S    
C2    O26   A    
C58   H8    S    
Cr9   O37   S    
C84   C88   S    
C9    C25   A    
C37   C89   S    
C38   C90   S    
Cr3   O3    S    
C85   H33   S    
Cr5   O49   S    
C18   C38   A    
Cr1   O1    S    
C19   C35   S    
C76   C96   A    
C84   H24   S    
C44   C55   A    
C66   C70   A    
Cr5   O5    S    
Cr10  O14   S    
C27   H51   S    
C57   H7    S    
C62   C99   S    
C72   C96   A    
C61   C65   A    
C107  O15   A    
C76   H16   S    
Cr2   O22   S    
Cr9   O33   S    
C73   C77   A    
Cr8   O8    S    
C75   C79   A    
Cr6   O18   S    
C60   H6    S    
C90   O2    A    
C54   H2    S    
C67   C83   S    
C111  C112  S    
C29   H57   S    
Cr3   O43   S    
C35   H67   S    
C7    C8    S    
C53   C54   A    
Cr1   O41   S    
C32   H60   S    
C21   C25   A    
C64   C68   A    
C103  O7    A    
Cr5   O29   S    
C42   C53   A    
O54   C123  S    
C82   H26   S    
C83   H23   S    
C49   C57   S    
C41   C102  S    
C122  H71   S    
Cr10  O18   S    
C43   C104  S    
C9    C13   A    
C52   C60   S    
Cr4   O24   S    
C61   C77   A    
C24   H48   S    
C76   C80   A    
Cr8   O20   S    
C44   C52   A    
C104  O8    A    
C59   H11   S    
O56   C127  S    
C1    C12   S    
C2    C11   S    
C56   H4    S    
C44   C103  S    
C109  H37   S    
C106  O14   A    
C30   C34   S    
C10   C14   A    
C103  O11   A    
C121  C122  S    
C101  O9    A    
C88   H32   S    
C116  C120  S    
C73   H13   S    
Cr12  O20   S    
C7    C116  S    
Cr4   O48   S    
C36   H64   S    
C124  H77   S    
C34   H66   S    
Cr8   O28   S    
C31   H53   S    
C114  C118  S    
C102  O6    A    
C19   C39   A    
C42   C50   A    
C113  C117  S    
C115  C119  S    
C46   O34   A    
Cr11  O11   S    
C61   C100  S    
C104  O12   A    
C99   O47   A    
C42   C101  S    
C112  C116  S    
C69   C85   S    
C45   C117  S    
Cr3   O19   S    
C92   O40   A    
C3    O23   A    
C5    H41   S    
C62   C78   A    
C24   C28   A    
C8    H44   S    
C15   C31   S    
C123  H74   S    
C128  H87   S    
C13   C17   A    
C122  H73   S    
C28   H52   S    
C57   C58   S    
C126  H82   S    
C111  H39   S    
C30   H58   S    
Cr9   O13   S    
C49   C50   A    
C127  H84   S    
C4    C9    S    
C81   C85   S    
C83   C87   S    
C55   C56   A    
C85   H29   S    
C74   C94   A    
C89   O1    A    
C86   H34   S    
C123  C124  S    
C84   H28   S    
Cr7   O19   S    
C15   C19   A    
C78   H18   S    
C12   C28   A    
C13   C29   S    
C70   C94   A    
C45   O33   A    
C98   O46   A    
C31   H59   S    
C2    O22   A    
C46   C118  S    
C41   C49   A    
Cr9   O17   S    
C94   C106  S    
C127  C128  S    
C92   O4    A    
C35   H63   S    
Cr1   O45   S    
C32   C36   S    
C33   H61   S    
C32   H54   S    
O55   C125  S    
Cr7   O27   S    
C64   C80   A    
C125  C126  S    
C17   C33   S    
C106  O42   A    
Cr5   O25   S    
C110  C117  S    
C81   H25   S    
C68   C84   S    
C89   O37   A    
C113  O53   S    
C77   H17   S    
C98   O50   A    
C75   H15   S    
C82   C86   S    
Cr10  O34   S    
C29   H55   S    
C50   C58   S    
C121  H69   S    
C100  O48   A    
C58   H10   S    
C65   C81   S    
C115  O55   S    
C108  O16   A    
C95   C107  S    
C71   C87   S    
C110  H38   S    
C31   C35   S    
C16   C32   S    
C3    O27   A    
C1    O25   A    
C46   O30   A    
C74   H14   S    
C36   H68   S    
C112  C119  S    
C57   H9    S    
Cr6   O50   S    
Cr2   O2    S    
C109  C110  S    
C60   H12   S    
C43   C51   A    
C112  H40   S    
Cr6   O6    S    
C65   C69   A    
C67   C71   A    
C4    O28   A    
Cr12  O40   S    
C20   C36   S    
C21   C37   A    
C22   C26   A    
Cr1   O21   S    
C125  H79   S    
C91   O3    A    
C30   H56   S    
Cr5   O17   S    
C87   H31   S    
C5    C114  S    
C14   C18   A    
Cr12  O12   S    
C22   H46   S    
C81   H21   S    
Cr2   O42   S    
C63   C79   A    
Cr8   O52   S    
Cr4   O4    S    
C116  O56   S    
Cr6   O30   S    
C114  O54   S    
C23   C39   A    
C47   O31   A    
C59   H5    S    
Cr11  O19   S    
C8    C115  S    
C93   C105  S    
Cr11  O39   S    
C7    H43   S    
C86   H30   S    
C23   C27   A    
C124  H76   S    
C74   C78   A    
C16   C20   A    
C10   C26   A    
C47   C119  S    
C45   O29   A    
C14   C30   S    
C72   C88   S    
C25   H49   S    
C63   C67   A    
C105  O13   A    
C102  O10   A    
C123  H75   S    
C128  H86   S    
C4    O24   A    
C5    C117  S    
C111  C120  S    
C122  H72   S    
C48   O32   A    
C6    C113  S    
C33   H65   S    
C108  O44   A    
Cr7   O31   S    
C126  H81   S    
C17   C37   A    
C40   C92   S    
C18   C34   S    
C48   O36   A    
C101  O5    A    
C127  H85   S    
Cr10  O10   S    
C51   C59   S    
C70   C86   S    
C8    C120  S    
C79   H19   S    
C80   H20   S    
C110  C114  S    
Cr10  O38   S    
Cr2   O18   S    
C39   C91   S    
C100  O52   A    
C109  C113  S    
C3    C10   S    
Cr3   O47   S    
C55   H3    S    
C24   C40   A    
Cr7   O51   S    
C124  H78   S    
C41   C54   A    
C82   H22   S    
C43   C56   A    
C83   H27   S    
C91   O39   A    
C111  C115  S    
C6    C118  S    
