data_mof_unit_4994.cif
_audit_creation_date              2012-12-10T18:25:40-0500
_audit_creation_method            fapswitch 2.2
_symmetry_space_group_name_H-M    P1
_symmetry_Int_Tables_number       1
_space_group_crystal_system       triclinic
_cell_length_a                    14.922017
_cell_length_b                    14.132688
_cell_length_c                    19.162686
_cell_angle_alpha                 89.972234
_cell_angle_beta                  87.89786
_cell_angle_gamma                 89.09515
_cell_volume                      4037.96132469

loop_
_atom_site_label
_atom_site_type_symbol
_atom_type_description
_atom_site_fract_x
_atom_site_fract_y
_atom_site_fract_z
_atom_type_partial_charge
Br1   Br    Br    0.873638 0.682246 0.672148 -0.578898
Br2   Br    Br    0.124211 0.285292 0.355631 -0.600193
C1    C     C_R   0.327021 0.500507 0.500903 0.872686
C2    C     C_R   0.090367 0.552766 0.556249 0.078308
C3    C     C_R   0.945521 0.609227 0.604073 0.203706
C4    C     C_R   0.054134 0.366092 0.419968 0.208342
C5    C     C_R   0.039992 0.610117 0.605018 0.098645
C6    C     C_R   0.960137 0.360845 0.422747 0.098909
C7    C     C_R   0.545212 0.799577 0.448027 0.219744
C8    C     C_R   0.453517 0.199739 0.551883 0.212378
C9    C     C_R   0.454302 0.801032 0.551607 0.225748
C10   C     C_R   0.545315 0.198321 0.447459 0.224988
C11   C     C_R   0.472386 0.899265 0.559926 -0.042190
C12   C     C_R   0.673118 0.499270 0.500525 0.878563
C13   C     C_R   0.526861 0.099202 0.439544 -0.063347
C14   C     C_R   0.527337 0.898459 0.440089 -0.045441
C15   C     C_R   0.472393 0.100197 0.560177 -0.062503
C16   C     C_R   0.500225 0.949472 0.500103 -0.015552
C17   C     C_R   0.499990 0.049494 0.500000 -0.047974
C18   C     C_R   0.464777 0.947760 0.624806 0.116677
C19   C     C_R   0.533635 0.048167 0.374644 0.164138
C20   C     C_R   0.531395 0.946477 0.375029 0.116229
C21   C     C_R   0.463618 0.049593 0.625027 0.160896
C22   C     C_R   0.500184 0.500449 0.365534 0.875351
C23   C     C_R   0.810163 0.555766 0.549965 -0.191045
C24   C     C_R   0.498663 0.500421 0.634471 0.876511
C25   C     C_R   0.528477 0.586154 0.255484 -0.216371
C26   C     C_R   0.518085 0.425934 0.749947 -0.232846
C27   C     C_R   0.459911 0.586513 0.743115 -0.208916
C28   C     C_R   0.468771 0.427938 0.251672 -0.230281
C29   C     C_R   0.524599 0.594427 0.183387 0.167736
C30   C     C_R   0.513105 0.430198 0.822665 0.181012
C31   C     C_R   0.455111 0.593716 0.815508 0.169694
C32   C     C_R   0.465217 0.433197 0.179140 0.178640
C33   C     C_R   0.492322 0.517555 0.145129 0.014294
C34   C     C_R   0.189325 0.437993 0.459966 -0.189605
C35   C     C_R   0.483004 0.515309 0.855361 0.013923
C36   C     C_R   0.500151 0.503832 0.289706 -0.111250
C37   C     C_R   0.492164 0.503671 0.710312 -0.108448
C38   C     C_R   0.484711 0.522981 0.930401 0.249294
C39   C     C_R   0.489337 0.524043 0.070045 0.249574
C40   C     C_R   0.817212 0.431641 0.463325 -0.252786
C41   C     C_R   0.183961 0.555147 0.551947 -0.252124
C42   C     C_R   0.768712 0.496679 0.503923 -0.085458
C43   C     C_R   0.231476 0.500061 0.503195 -0.080942
C44   C     C_3   0.553293 0.686916 0.149839 -0.423824
C45   C     C_R   0.903001 0.552025 0.555250 0.045790
C46   C     C_3   0.655168 0.695447 0.147643 -0.840554
C47   C     C_3   0.538312 0.342250 0.863410 -0.428185
C48   C     C_3   0.639462 0.323945 0.859385 -0.826867
C49   C     C_3   0.422852 0.686873 0.847635 -0.412209
C50   C     C_3   0.322207 0.701318 0.839535 -0.866967
C51   C     C_3   0.435213 0.346651 0.139974 -0.441931
C52   C     C_3   0.334790 0.331035 0.151724 -0.798447
C53   C     C_3   0.085986 0.670754 0.658663 -0.371364
C54   C     C_3   0.116151 0.610926 0.720148 -0.830972
C55   C     C_3   0.914494 0.285527 0.380122 -0.368646
C56   C     C_R   0.096739 0.431198 0.463045 0.043786
C57   C     C_3   0.891634 0.322791 0.307974 -0.820007
C58   C     C_3   0.631805 0.759399 0.415576 -0.423527
C59   C     C_3   0.708201 0.770900 0.465799 -0.787284
C60   C     C_3   0.359607 0.232919 0.576235 -0.336643
C61   C     C_3   0.352989 0.301639 0.638150 -0.790354
C62   C     C_3   0.363962 0.766675 0.578235 -0.427058
C63   C     C_3   0.295410 0.782603 0.521683 -0.813335
C64   C     C_3   0.637502 0.229966 0.420493 -0.358601
C65   C     C_3   0.640057 0.296570 0.357340 -0.815210
C66   C     C_3   0.473338 0.890152 0.692111 -0.451911
C67   C     C_R   0.953471 0.489402 0.510583 -0.024173
C68   C     C_3   0.568415 0.893096 0.719305 -0.801354
C69   C     C_3   0.529613 0.101892 0.306090 -0.407942
C70   C     C_3   0.441132 0.157716 0.301833 -0.845294
C71   C     C_3   0.516520 0.889302 0.308472 -0.439421
C72   C     C_3   0.420535 0.900502 0.283647 -0.828464
C73   C     C_3   0.465769 0.103779 0.693517 -0.397769
C74   C     C_3   0.553955 0.156781 0.699047 -0.880441
C75   C     C_R   0.046677 0.490749 0.510326 -0.024232
C76   C     C_R   0.910130 0.426274 0.465464 0.071959
H1    H     H_    0.553152 0.645002 0.285025 0.147733
H2    H     H_    0.686718 0.635906 0.117388 0.276800
H3    H     H_    0.674355 0.763027 0.122037 0.249460
H4    H     H_    0.529132 0.694689 0.096041 0.217939
H5    H     H_    0.523066 0.747059 0.180209 0.203737
H6    H     H_    0.663523 0.312526 0.804467 0.255555
H7    H     H_    0.674994 0.384936 0.881421 0.278971
H8    H     H_    0.655780 0.259645 0.890022 0.246373
H9    H     H_    0.515999 0.346852 0.919182 0.215385
H10   H     H_    0.503191 0.280537 0.842153 0.197780
H11   H     H_    0.306306 0.705406 0.783435 0.245881
H12   H     H_    0.543288 0.362293 0.724329 0.161728
H13   H     H_    0.284887 0.642079 0.864473 0.276100
H14   H     H_    0.299965 0.768577 0.865127 0.252990
H15   H     H_    0.437360 0.691929 0.903836 0.219048
H16   H     H_    0.458959 0.745974 0.821486 0.204661
H17   H     H_    0.317877 0.318972 0.207911 0.270853
H18   H     H_    0.296251 0.393540 0.133324 0.273558
H19   H     H_    0.314786 0.267897 0.121926 0.247258
H20   H     H_    0.450206 0.351326 0.082993 0.218119
H21   H     H_    0.473369 0.283679 0.157767 0.197827
H22   H     H_    0.057523 0.575941 0.745829 0.285985
H23   H     H_    0.438861 0.646553 0.712260 0.149329
H24   H     H_    0.165971 0.555968 0.702663 0.248230
H25   H     H_    0.147399 0.657017 0.758999 0.246568
H26   H     H_    0.143379 0.709173 0.634869 0.179412
H27   H     H_    0.042204 0.728855 0.679325 0.254051
H28   H     H_    0.844719 0.384405 0.312418 0.245152
H29   H     H_    0.953457 0.344672 0.278675 0.293037
H30   H     H_    0.859498 0.266152 0.278036 0.240252
H31   H     H_    0.957242 0.221019 0.373918 0.247543
H32   H     H_    0.853562 0.258608 0.407910 0.183658
H33   H     H_    0.689358 0.744250 0.518729 0.279110
H34   H     H_    0.445974 0.364967 0.278481 0.164429
H35   H     H_    0.768659 0.731385 0.445666 0.248091
H36   H     H_    0.725032 0.846903 0.470347 0.242436
H37   H     H_    0.625021 0.684648 0.400793 0.245115
H38   H     H_    0.652826 0.797163 0.367141 0.177418
H39   H     H_    0.337525 0.374662 0.621146 0.262514
H40   H     H_    0.414870 0.301319 0.667970 0.261326
H41   H     H_    0.296822 0.281091 0.674406 0.215560
H42   H     H_    0.324048 0.262828 0.531330 0.225931
H43   H     H_    0.319021 0.170096 0.590987 0.167492
H44   H     H_    0.317027 0.746953 0.472152 0.281364
H45   H     H_    0.781170 0.388346 0.428307 0.156942
H46   H     H_    0.229225 0.755222 0.538972 0.236506
H47   H     H_    0.287386 0.859547 0.511144 0.245315
H48   H     H_    0.367690 0.691702 0.594125 0.236537
H49   H     H_    0.338408 0.806753 0.624754 0.179373
H50   H     H_    0.695385 0.274731 0.320223 0.219953
H51   H     H_    0.653680 0.370032 0.372853 0.258238
H52   H     H_    0.577057 0.296060 0.328985 0.268081
H53   H     H_    0.673719 0.261311 0.464023 0.213274
H54   H     H_    0.679068 0.166378 0.406038 0.165380
H55   H     H_    0.618306 0.874731 0.676792 0.271486
H56   H     H_    0.221995 0.597498 0.586725 0.150384
H57   H     H_    0.583981 0.963288 0.740700 0.261727
H58   H     H_    0.575432 0.840650 0.761976 0.242238
H59   H     H_    0.422316 0.912316 0.732634 0.193469
H60   H     H_    0.461120 0.814152 0.684032 0.204315
H61   H     H_    0.383168 0.111594 0.314183 0.275112
H62   H     H_    0.437969 0.217666 0.339074 0.262142
H63   H     H_    0.434208 0.185672 0.248357 0.243095
H64   H     H_    0.588154 0.147249 0.298774 0.207934
H65   H     H_    0.535728 0.055859 0.259706 0.209496
H66   H     H_    0.371512 0.894555 0.328443 0.265523
H67   H     H_    0.768441 0.603628 0.581427 0.194801
H68   H     H_    0.409880 0.968672 0.256703 0.264508
H69   H     H_    0.406791 0.843627 0.245713 0.237595
H70   H     H_    0.566838 0.906313 0.266466 0.192062
H71   H     H_    0.524566 0.812400 0.317032 0.203681
H72   H     H_    0.612219 0.108797 0.687535 0.267307
H73   H     H_    0.557667 0.216769 0.661895 0.262527
H74   H     H_    0.559589 0.184503 0.752674 0.246956
H75   H     H_    0.407344 0.151645 0.699461 0.207210
H76   H     H_    0.458693 0.058370 0.740092 0.210620
H77   H     H_    0.230648 0.395542 0.424152 0.193686
H78   H     H_    0.680803 0.695012 0.201341 0.247156
N1    N     N_R   0.566702 0.523811 0.030983 -0.168758
N2    N     N_R   0.407228 0.524199 0.969411 -0.171500
N3    N     N_R   0.564399 0.523303 0.961903 -0.162338
N4    N     N_R   0.409534 0.524757 0.038567 -0.168395
N5    N     N_R   0.500000 0.750030 0.500000 -0.115694
N6    N     N_R   0.500000 0.249970 0.500000 -0.127982
O1    O     O_R   0.367850 0.580280 0.500020 -0.617400
O2    O     O_R   0.632150 0.419720 0.499980 -0.620387
O3    O     O_R   0.632150 0.580280 0.499980 -0.620517
O4    O     O_R   0.367850 0.419720 0.500020 -0.623725
O5    O     O_R   0.499990 0.580300 0.398140 -0.634454
O6    O     O_R   0.500010 0.419700 0.601860 -0.613533
O7    O     O_R   0.500010 0.580300 0.601860 -0.630903
O8    O     O_R   0.499990 0.419700 0.398140 -0.611220
Zn1   Zn    Zn3+2 0.500000 0.607200 0.500000 0.930533
Zn2   Zn    Zn3+2 0.500000 0.392800 0.500000 0.941524

loop_
_geom_bond_atom_site_label_1
_geom_bond_atom_site_label_2
_ccdc_geom_bond_type
O3    Zn1   S    
C68   H58   S    
C53   C54   S    
O4    Zn2   S    
C71   C72   S    
C4    C56   A    
C38   N3    A    
C66   H60   S    
C5    C53   S    
C14   C20   A    
C66   H59   S    
C48   H6    S    
Br2   C4    S    
C51   C52   S    
C51   H21   S    
C13   C17   A    
C3    C45   A    
C24   O6    A    
C15   C21   A    
C11   C16   A    
C53   H27   S    
Br1   C3    S    
C38   N2    A    
C7    C14   A    
C32   C33   A    
C35   C38   S    
C25   H1    S    
C61   H39   S    
C24   C37   S    
C55   C57   S    
C74   H74   S    
C8    C15   A    
C27   C31   A    
C9    N5    A    
C46   H3    S    
C28   C36   A    
C16   C17   A    
C63   H46   S    
C2    C75   A    
C47   H9    S    
C45   C67   A    
C56   C75   A    
C44   H4    S    
C67   C75   A    
N2    N4    A    
C70   H61   S    
C55   H31   S    
C24   O7    A    
C29   C44   S    
C68   H55   S    
C22   C36   S    
C18   C21   A    
C52   H19   S    
O1    Zn1   S    
C23   C45   A    
C60   H42   S    
C48   H7    S    
C1    O1    A    
C26   H12   S    
C64   C65   S    
C46   H78   S    
C8    N6    A    
C19   C20   A    
C8    C60   S    
C6    C76   A    
O7    Zn1   S    
C47   H10   S    
C67   C76   A    
C65   H51   S    
C40   C42   A    
C2    C5    A    
C23   C42   A    
C72   H68   S    
C40   H45   S    
C64   H54   S    
C70   H63   S    
C44   C46   S    
C57   H28   S    
C28   C32   A    
C71   H70   S    
C25   C29   A    
C49   C50   S    
C72   H69   S    
C26   C30   A    
C22   O5    A    
C9    C62   S    
C3    C5    A    
C61   H40   S    
C4    C6    A    
C26   C37   A    
C63   H44   S    
C10   C64   S    
C53   H26   S    
C1    C43   S    
C57   H29   S    
C28   H34   S    
C58   C59   S    
C63   H47   S    
C41   H56   S    
C73   C74   S    
C60   C61   S    
C6    C55   S    
C39   N4    A    
C61   H41   S    
C73   H75   S    
C55   H32   S    
C10   C13   A    
C74   H72   S    
C62   H49   S    
C27   C37   A    
C27   H23   S    
C34   C43   A    
C30   C35   A    
C12   O3    A    
C7    N5    A    
C41   C43   A    
C52   H17   S    
C49   H15   S    
C69   H64   S    
C39   N1    A    
C14   C16   A    
C19   C69   S    
C40   C76   A    
C62   H48   S    
C59   H35   S    
C68   H57   S    
C29   C33   A    
O2    Zn2   S    
C65   H52   S    
C54   H22   S    
C59   H33   S    
C22   O8    A    
C12   C42   S    
C64   H53   S    
O6    Zn2   S    
C72   H66   S    
C50   H11   S    
C11   C18   A    
C71   H71   S    
C52   H18   S    
C18   C66   S    
C54   H25   S    
C21   C73   S    
C50   H13   S    
O5    Zn1   S    
C2    C41   A    
C51   H20   S    
C31   C49   S    
C34   C56   A    
C57   H30   S    
C74   H73   S    
C7    C58   S    
C62   C63   S    
C46   H2    S    
C54   H24   S    
C69   C70   S    
C65   H50   S    
C9    C11   A    
C73   H76   S    
C13   C19   A    
O8    Zn2   S    
C15   C17   A    
C60   H43   S    
C12   O2    A    
C33   C39   S    
C31   C35   A    
C30   C47   S    
C58   H38   S    
C48   H8    S    
C49   H16   S    
C10   N6    A    
C44   H5    S    
N5    Zn1   S    
C70   H62   S    
N6    Zn2   S    
C1    O4    A    
C32   C51   S    
N1    N3    A    
C47   C48   S    
C59   H36   S    
C66   C68   S    
C58   H37   S    
C23   H67   S    
C25   C36   A    
C20   C71   S    
C69   H65   S    
C50   H14   S    
C34   H77   S    
