data_mof_unit_1524.cif
_audit_creation_date              2012-12-10T17:48:53-0500
_audit_creation_method            fapswitch 2.2
_symmetry_space_group_name_H-M    P1
_symmetry_Int_Tables_number       1
_space_group_crystal_system       triclinic
_cell_length_a                    10.721677
_cell_length_b                    14.690236
_cell_length_c                    14.608458
_cell_angle_alpha                 65.108314
_cell_angle_beta                  103.960058
_cell_angle_gamma                 103.157639
_cell_volume                      2004.61841567

loop_
_atom_site_label
_atom_site_type_symbol
_atom_type_description
_atom_site_fract_x
_atom_site_fract_y
_atom_site_fract_z
_atom_type_partial_charge
C1    C     C_R   0.481602 0.119564 0.311194 0.807908
C2    C     C_3   0.879751 0.997556 0.506793 0.087253
C3    C     C_3   0.917767 0.889807 0.570406 -0.376319
C4    C     C_3   0.970273 0.073447 0.553590 0.134849
C5    C     C_R   0.484238 0.186339 0.201850 -0.084014
C6    C     C_R   0.547258 0.813781 0.798420 -0.093745
C7    C     C_R   0.478180 0.219417 0.023014 -0.197968
C8    C     C_R   0.468090 0.149709 0.123107 0.172260
C9    C     C_R   0.511427 0.291185 0.177369 -0.306253
C10   C     C_R   0.528123 0.360943 0.078274 0.106619
C11   C     C_R   0.506593 0.323681 0.000141 0.114793
C12   C     C_R   0.260130 0.999399 0.501372 0.765203
C13   C     C_R   0.560959 0.467097 0.054120 0.038052
C14   C     C_R   0.551817 0.534930 0.949992 0.073148
C15   C     C_R   0.533399 0.494708 0.874250 -0.205317
C16   C     C_R   0.513152 0.390905 0.899436 -0.224113
C17   C     C_R   0.605561 0.507257 0.130633 -0.302565
C18   C     C_R   0.628365 0.611553 0.106450 0.245329
C19   C     C_R   0.604214 0.678963 0.003766 0.091467
C20   C     C_R   0.563804 0.640780 0.925160 0.035784
C21   C     C_R   0.619950 0.784043 0.978233 -0.248109
C22   C     C_R   0.590921 0.851607 0.876846 0.238320
C23   C     C_R   0.523379 0.880411 0.688725 0.802052
C24   C     C_R   0.532243 0.709293 0.824021 -0.303005
C25   C     C_R   0.716944 0.285190 0.669876 -0.340585
C26   C     C_R   0.682185 0.203061 0.640395 0.078880
C27   C     C_R   0.516595 0.284261 0.509889 -0.003171
C28   C     C_R   0.544626 0.369437 0.537975 -0.003311
C29   C     C_R   0.649171 0.368773 0.618669 0.165322
C30   C     C_R   0.473503 0.454309 0.489645 0.039314
C31   C     C_R   0.513630 0.539583 0.519015 0.074556
C32   C     C_R   0.619712 0.534970 0.599238 -0.230965
C33   C     C_R   0.684817 0.450935 0.648419 -0.208010
C34   C     C_R   0.740677 0.997938 0.503677 0.737981
C35   C     C_R   0.362068 0.455492 0.414768 -0.328288
C36   C     C_R   0.292798 0.537888 0.367119 0.257460
C37   C     C_R   0.335399 0.624209 0.391531 0.128327
C38   C     C_R   0.445520 0.626033 0.468006 -0.080027
C39   C     C_R   0.269613 0.709374 0.340080 -0.299794
C40   C     C_R   0.310469 0.793857 0.365476 0.051591
C41   C     C_R   0.482554 0.715357 0.489582 0.020412
C42   C     C_3   0.044492 0.027809 0.394008 -0.401375
C43   C     C_3   0.902283 0.030737 0.395405 -0.425074
C44   C     C_3   0.063037 0.891842 0.572679 -0.364125
C45   C     C_3   0.112374 0.076415 0.546635 -0.353961
C46   C     C_3   0.122811 0.998749 0.503598 0.108343
Cu1   Cu    Cu3+1 0.465900 0.918260 0.475680 0.918830
Cu2   Cu    Cu3+1 0.534100 0.081740 0.524320 0.928329
H1    H     H_    0.047879 0.971665 0.362301 0.176442
H2    H     H_    0.115699 0.871596 0.652701 0.158905
H3    H     H_    0.897852 0.861387 0.649814 0.158147
H4    H     H_    0.499785 0.363180 0.839155 0.150846
H5    H     H_    0.492043 0.682279 0.763503 0.167683
H6    H     H_    0.463888 0.192312 0.962145 0.132369
H7    H     H_    0.515818 0.317599 0.236728 0.162472
H8    H     H_    0.087730 0.103323 0.342820 0.152905
H9    H     H_    0.538665 0.541636 0.794939 0.141064
H10   H     H_    0.627300 0.459242 0.210493 0.147780
H11   H     H_    0.653167 0.814684 0.037062 0.173228
H12   H     H_    0.764582 0.450504 0.710418 0.143304
H13   H     H_    0.564998 0.723606 0.545835 0.119240
H14   H     H_    0.258401 0.858482 0.326603 0.121502
H15   H     H_    0.795679 0.282985 0.732944 0.140547
H16   H     H_    0.731809 0.137339 0.681535 0.147217
H17   H     H_    0.440692 0.279031 0.448195 0.122912
H18   H     H_    0.878544 0.108934 0.348632 0.155020
H19   H     H_    0.654062 0.594632 0.627497 0.125502
H20   H     H_    0.323713 0.391925 0.392718 0.136087
H21   H     H_    0.186458 0.711244 0.280387 0.176499
H22   H     H_    0.837124 0.979909 0.359311 0.184471
H23   H     H_    0.073069 0.833475 0.546156 0.176382
H24   H     H_    0.858614 0.835720 0.535984 0.172851
H25   H     H_    0.174702 0.058955 0.623221 0.185570
H26   H     H_    0.150263 0.154487 0.496467 0.137179
H27   H     H_    0.942963 0.150745 0.506458 0.133918
N1    N     N_R   0.585360 0.204570 0.560800 -0.173651
N2    N     N_R   0.414550 0.795430 0.439160 -0.171150
O1    O     O_R   0.455060 0.022100 0.338110 -0.575847
O2    O     O_R   0.512640 0.160150 0.379180 -0.588271
O3    O     O_R   0.288900 0.930980 0.479450 -0.586694
O4    O     O_R   0.346480 0.069030 0.520520 -0.592687
O5    O     O_R   0.487360 0.839850 0.620820 -0.593282
O6    O     O_R   0.544940 0.977900 0.661890 -0.547764
O7    O     O_R   0.653520 0.930970 0.479480 -0.584991
O8    O     O_R   0.711100 0.069020 0.520550 -0.592540
N3    N     N_2   0.958193 0.045983 0.660026 -0.417587
H28   H     H_    0.869810 0.007426 0.680956 0.256196
C47   C     C_3   0.008283 0.125065 0.699540 -0.733112
H29   H     H_    0.994286 0.096044 0.780442 0.225784
H30   H     H_    0.956434 0.191779 0.654115 0.221221
H31   H     H_    0.113667 0.149358 0.697051 0.236123
N4    N     N_2   0.605929 0.957103 0.855181 -0.420036
H32   H     H_    0.684888 0.981357 0.900045 0.237077
C48   C     C_3   0.488914 0.991820 0.853045 -0.659649
H33   H     H_    0.460678 0.956528 0.930328 0.206978
H34   H     H_    0.407917 0.972586 0.797431 0.234339
H35   H     H_    0.506480 0.075499 0.829151 0.220084
N5    N     N_2   0.674190 0.647855 0.186701 -0.445951
H36   H     H_    0.742059 0.607302 0.243689 0.252368
C49   C     C_3   0.571868 0.659666 0.227984 -0.689807
H37   H     H_    0.513465 0.584920 0.263444 0.235096
H38   H     H_    0.507435 0.712155 0.166885 0.236156
H39   H     H_    0.614962 0.691540 0.287292 0.230458
C50   C     C_3   0.440154 0.038382 0.141935 -0.838600
H40   H     H_    0.347085 0.004420 0.171531 0.232028
H41   H     H_    0.430709 0.025514 0.070723 0.209813
H42   H     H_    0.520801 0.998785 0.197019 0.244324
N6    N     N_2   0.180080 0.533534 0.292932 -0.437122
H43   H     H_    0.187360 0.496279 0.248690 0.251919
C51   C     C_3   0.059954 0.497649 0.333984 -0.712485
H44   H     H_    0.058369 0.417458 0.389209 0.223688
H45   H     H_    0.976674 0.502199 0.270694 0.227941
H46   H     H_    0.048450 0.545151 0.372980 0.237304

loop_
_geom_bond_atom_site_label_1
_geom_bond_atom_site_label_2
_ccdc_geom_bond_type
C23   O5    A    
C36   N6    S    
Cu2   N1    S    
C19   C20   A    
C41   H13   S    
C50   H41   S    
C7    C8    A    
C45   C46   S    
Cu2   O4    S    
C7    C11   A    
C23   O6    A    
C30   C35   A    
C1    C5    S    
Cu2   O2    S    
C36   C37   A    
C19   C21   A    
C21   H11   S    
C41   N2    A    
C30   C31   A    
N3    C47   S    
C4    N3    S    
C15   C16   A    
C6    C22   A    
C29   C33   A    
C40   H14   S    
N6    H43   S    
C44   H23   S    
C45   H25   S    
C18   C19   A    
C42   C46   S    
Cu1   O5    S    
C26   H16   S    
C51   H44   S    
C25   H15   S    
C4    H27   S    
C42   H8    S    
Cu1   Cu2   S    
C26   N1    A    
C9    H7    S    
C9    C10   A    
C17   H10   S    
C2    C34   S    
C21   C22   A    
C1    O1    A    
C15   H9    S    
C34   O7    A    
Cu1   O3    S    
C49   H38   S    
C50   H40   S    
C44   C46   S    
C4    C45   S    
C25   C29   A    
C3    C44   S    
C14   C20   A    
C38   C41   A    
C12   C46   S    
C39   C40   A    
C3    H3    S    
N3    H28   S    
C48   H35   S    
C24   H5    S    
C49   H39   S    
C45   H26   S    
C34   O8    A    
C2    C4    S    
C5    C9    A    
C37   C38   A    
C27   H17   S    
C11   C16   A    
C31   C32   A    
C47   H31   S    
C2    C43   S    
C6    C24   A    
N4    C48   S    
C17   C18   A    
C39   H21   S    
Cu1   O7    S    
C48   H34   S    
C8    C50   S    
C51   H46   S    
C32   H19   S    
C47   H30   S    
C33   H12   S    
N5    C49   S    
C1    O2    A    
C42   C43   S    
Cu1   N2    S    
C27   N1    A    
C44   H2    S    
C28   C29   A    
Cu2   O8    S    
C16   H4    S    
C10   C13   A    
C5    C8    A    
Cu2   O6    S    
C43   H22   S    
C7    H6    S    
C31   C38   A    
C13   C17   A    
C32   C33   A    
C28   C30   A    
C2    C3    S    
C25   C26   A    
C37   C39   A    
C35   H20   S    
C43   H18   S    
C6    C23   S    
C12   O3    A    
N4    H32   S    
N6    C51   S    
C12   O4    A    
C3    H24   S    
C40   N2    A    
C48   H33   S    
C51   H45   S    
C10   C11   A    
C42   H1    S    
C47   H29   S    
N5    H36   S    
C27   C28   A    
C22   N4    S    
C14   C15   A    
C49   H37   S    
C35   C36   A    
C18   N5    S    
Cu1   O1    S    
C13   C14   A    
C20   C24   A    
C50   H42   S    
