data_mof_unit_572.cif
_audit_creation_date              2013-03-05T15:54:05-0500
_audit_creation_method            fapswitch 2.2
_symmetry_space_group_name_H-M    P1
_symmetry_Int_Tables_number       1
_space_group_crystal_system       triclinic
_cell_length_a                    16.751168
_cell_length_b                    7.324363
_cell_length_c                    15.141204
_cell_angle_alpha                 90.000017
_cell_angle_beta                  94.096356
_cell_angle_gamma                 90.000014
_cell_volume                      1852.95326467

loop_
_atom_site_label
_atom_site_type_symbol
_atom_site_description
_atom_site_fract_x
_atom_site_fract_y
_atom_site_fract_z
_atom_type_partial_charge
O1    O     O_R   0.578230 0.505720 0.424270 -0.538186
O2    O     O_R   0.421770 0.005720 0.575730 -0.538186
O3    O     O_R   0.412470 0.173950 0.404530 -0.540314
O4    O     O_R   0.587530 0.673950 0.595470 -0.540314
C1    C     C_R   0.385192 0.345338 0.381792 1.018447
C2    C     C_R   0.614808 0.845338 0.618208 1.018449
O5    O     O_R   0.577030 0.175880 0.413670 -0.578933
O6    O     O_R   0.422970 0.675880 0.586330 -0.578933
O7    O     O_R   0.587510 0.007580 0.584940 -0.597762
O8    O     O_R   0.412490 0.507580 0.415060 -0.597762
C3    C     C_R   0.602784 0.344418 0.393639 0.963627
C4    C     C_R   0.397216 0.844418 0.606361 0.963626
O9    O     O_3   0.503240 0.339850 0.556180 -0.262062
O10   O     O_3   0.496760 0.839850 0.443820 -0.262062
V1    V     V_3+5 0.499400 0.064230 0.489580 1.339471
V2    V     V_3+5 0.500600 0.564230 0.510420 1.339471
C5    C     C_1   0.334318 0.854348 0.668623 -0.140962
C6    C     C_1   0.665682 0.354348 0.331377 -0.140962
C7    C     C_1   0.281413 0.865434 0.720050 0.129854
C8    C     C_1   0.718587 0.365434 0.279950 0.129854
C9    C     C_1   0.218978 0.879567 0.780406 0.124739
C10   C     C_1   0.781022 0.379567 0.219594 0.124739
C11   C     C_1   0.166068 0.890628 0.831827 -0.221839
C12   C     C_1   0.833932 0.390627 0.168173 -0.221840
C13   C     C_3   0.736468 0.779896 0.854115 0.155087
C14   C     C_3   0.263532 0.279895 0.145885 0.155088
H1    H     H_    0.705087 0.866236 0.900302 0.107406
H2    H     H_    0.294913 0.366235 0.099698 0.107406
C15   C     C_3   0.672056 0.742851 0.774891 0.148819
C16   C     C_3   0.327944 0.242850 0.225109 0.148819
H3    H     H_    0.612433 0.777946 0.797918 0.137451
H4    H     H_    0.387567 0.277945 0.202082 0.137451
H5    H     H_    0.844482 0.657889 0.751210 0.241567
H6    H     H_    0.155517 0.157890 0.248790 0.241566
C17   C     C_3   0.836596 0.802755 0.733234 -0.302697
C18   C     C_3   0.163403 0.302756 0.266766 -0.302696
C19   C     C_3   0.769379 0.084310 0.797617 -0.338610
C20   C     C_3   0.230621 0.584310 0.202383 -0.338610
C21   C     C_3   0.808364 0.892980 0.819842 -0.322382
C22   C     C_3   0.191636 0.392980 0.180158 -0.322382
H7    H     H_    0.815201 0.169064 0.767203 0.226187
H8    H     H_    0.184800 0.669064 0.232797 0.226188
C23   C     C_3   0.686463 0.863242 0.690469 -0.559782
C24   C     C_3   0.313536 0.363242 0.309531 -0.559782
C25   C     C_3   0.772265 0.817343 0.650867 0.491545
C26   C     C_3   0.227735 0.317344 0.349133 0.491545
C27   C     C_3   0.690011 0.064548 0.731328 0.088515
C28   C     C_3   0.309989 0.564548 0.268672 0.088515
O11   O     O_R   0.087480 0.241090 0.084980 -0.532712
O12   O     O_R   0.912520 0.741090 0.915020 -0.532713
O13   O     O_R   0.922960 0.569060 0.086330 -0.561215
O14   O     O_R   0.077040 0.069060 0.913670 -0.561215
C29   C     C_R   0.896872 0.400545 0.105952 0.990028
C30   C     C_R   0.103128 0.900545 0.894048 0.990029
O15   O     O_R   0.087520 0.570920 0.095480 -0.603188
O16   O     O_R   0.912480 0.070920 0.904520 -0.603189
O17   O     O_R   0.078240 0.739160 0.924260 -0.597963
O18   O     O_R   0.921760 0.239160 0.075740 -0.597963
C31   C     C_R   0.118844 0.403309 0.111436 0.914645
C32   C     C_R   0.881156 0.903309 0.888564 0.914646
O19   O     O_3   0.996740 0.404980 0.943840 -0.272732
O20   O     O_3   0.003260 0.904980 0.056160 -0.272732
V3    V     V_3+5 0.000600 0.680640 0.010420 1.257700
V4    V     V_3+5 0.999400 0.180640 0.989580 1.257700
N1    N     N_R   0.758671 0.620605 0.909796 0.256404
O21   O     O_R   0.815178 0.509348 0.890311 -0.382463
O22   O     O_R   0.729897 0.606088 0.987157 -0.400285
N2    N     N_R   0.241328 0.120605 0.090204 0.256404
O23   O     O_R   0.184822 0.009347 0.109689 -0.382462
O24   O     O_R   0.270102 0.106087 0.012843 -0.400286
C33   C     C_1   0.695452 0.195316 0.657663 0.479033
N3    N     N_1   0.696743 0.292153 0.597457 0.045848
C34   C     C_1   0.304548 0.695317 0.342337 0.479033
N4    N     N_1   0.303257 0.792153 0.402543 0.045847
C35   C     C_1   0.919315 0.851425 0.712967 0.265851
N5    N     N_1   0.984011 0.888454 0.697417 -0.033718
C36   C     C_1   0.080685 0.351428 0.287033 0.265850
N6    N     N_1   0.015989 0.388458 0.302583 -0.033717
N7    N     N_R   0.793707 0.959999 0.586299 0.210516
O25   O     O_R   0.847098 0.085862 0.605493 -0.385488
O26   O     O_R   0.754536 0.969164 0.508943 -0.369352
N8    N     N_R   0.206293 0.460000 0.413700 0.210515
O27   O     O_R   0.152903 0.585865 0.394507 -0.385489
O28   O     O_R   0.245463 0.469163 0.491058 -0.369351
N9    N     N_R   0.667427 0.553334 0.753653 0.238117
O29   O     O_R   0.599905 0.468606 0.758839 -0.338032
O30   O     O_R   0.733379 0.463693 0.751490 -0.458048
N10   N     N_R   0.332572 0.053333 0.246347 0.238116
O31   O     O_R   0.400094 0.968605 0.241159 -0.338032
O32   O     O_R   0.266620 0.963694 0.248511 -0.458048
N11   N     N_R   0.771280 0.642938 0.600940 0.244139
O33   O     O_R   0.724673 0.626461 0.528882 -0.370324
O34   O     O_R   0.832682 0.533356 0.609193 -0.347026
N12   N     N_R   0.228719 0.142939 0.399060 0.244140
O35   O     O_R   0.275327 0.126461 0.471117 -0.370325
O36   O     O_R   0.167317 0.033357 0.390807 -0.347023
C37   C     C_1   0.753332 0.171954 0.882944 0.450900
N13   N     N_1   0.739888 0.228262 0.951803 0.006097
C38   C     C_1   0.246668 0.671954 0.117056 0.450900
N14   N     N_1   0.260113 0.728262 0.048197 0.006098
N15   N     N_R   0.613000 0.105258 0.773486 0.252408
O37   O     O_R   0.547639 0.140796 0.724824 -0.337430
O38   O     O_R   0.604211 0.081294 0.857379 -0.390895
N16   N     N_R   0.387000 0.605257 0.226514 0.252408
O39   O     O_R   0.452361 0.640796 0.275176 -0.337430
O40   O     O_R   0.395789 0.581292 0.142621 -0.390896

loop_
_geom_bond_atom_site_label_1
_geom_bond_atom_site_label_2
_geom_bond_distance
_ccdc_geom_bond_type
C20   C22   1.572305 S    
C3    C6    1.464931 S    
N15   O37   1.301589 A    
C27   N15   1.509360 S    
O15   C31   1.350071 A    
C34   N4    1.156428 T    
O1    C3    1.344364 A    
O2    C4    1.344365 A    
C2    O7    1.357213 A    
C19   C37   1.484287 S    
C37   N13   1.158182 T    
C36   N6    1.157562 T    
O5    C3    1.349303 A    
C17   C35   1.483896 S    
C7    C9    1.440907 S    
C20   H8    1.112236 S    
C18   C36   1.483896 S    
C28   N16   1.509360 S    
C6    C8    1.223483 T    
O19   V3    2.255578 S    
O20   V4    2.255579 S    
H5    C17   1.101012 S    
C26   N8    1.492205 S    
O14   C30   1.349519 A    
N2    O23   1.298825 A    
N1    O22   1.302430 A    
O15   V3    2.038773 S    
C4    C5    1.464931 S    
O16   V4    2.038772 S    
C18   C26   1.592489 S    
C19   C27   1.614094 S    
C15   N9    1.425713 S    
O5    V1    1.973410 S    
N15   O38   1.301046 A    
O11   V4    2.038375 S    
C15   C23   1.585495 S    
C13   C15   1.578548 S    
O12   V3    2.038376 S    
C16   C24   1.585494 S    
N16   O40   1.301046 A    
N16   O39   1.301589 A    
C24   C26   1.631402 S    
O17   V3    1.954347 S    
N9    O30   1.287556 A    
O18   V4    1.954345 S    
C18   C22   1.571186 S    
C13   N1    1.471564 S    
O4    C2    1.371367 A    
O14   V4    1.973316 S    
N11   O33   1.301067 A    
N7    O26   1.302741 A    
C12   C29   1.465034 S    
N9    O29   1.297424 A    
O16   C32   1.350070 A    
O13   C29   1.349519 A    
O4    V2    2.038799 S    
O19   V4    1.782456 S    
C17   C21   1.571185 S    
C35   N5    1.157563 T    
O20   V3    1.782455 S    
N11   O34   1.303602 A    
C38   N14   1.158183 T    
C26   N12   1.483821 S    
O6    C4    1.349303 A    
O13   V3    1.973313 S    
C25   N7    1.492205 S    
O1    V2    1.954103 S    
N12   O36   1.303604 A    
O2    V1    1.954101 S    
C23   C25   1.631402 S    
C27   C33   1.477928 S    
N2    O24   1.302430 A    
C1    C24   1.570800 S    
C8    C10   1.440908 S    
C14   C16   1.578547 S    
N8    O28   1.302743 A    
C2    C23   1.570800 S    
C9    C11   1.223464 T    
C10   C12   1.223462 T    
C16   N10   1.425713 S    
C17   C25   1.592489 S    
O3    V1    2.038798 S    
C11   C30   1.465034 S    
C15   H3    1.111252 S    
C20   C28   1.614095 S    
C28   C34   1.477928 S    
N10   O32   1.287555 A    
C20   C38   1.484286 S    
O3    C1    1.371369 A    
C29   O18   1.344446 A    
C13   H1    1.103538 S    
C14   H2    1.103538 S    
O11   C31   1.348381 A    
O12   C32   1.348381 A    
O7    V1    2.032453 S    
C14   N2    1.471564 S    
C1    O8    1.357213 A    
C19   C21   1.572305 S    
O8    V2    2.032451 S    
C13   C21   1.579578 S    
C16   H4    1.111252 S    
C14   C22   1.579578 S    
C21   C32   1.547249 S    
C5    C7    1.223483 T    
H6    C18   1.101012 S    
N1    O21   1.298825 A    
C19   H7    1.112238 S    
N12   O35   1.301067 A    
C25   N11   1.483820 S    
N7    O25   1.302701 A    
C33   N3    1.156428 T    
N10   O31   1.297427 A    
O6    V2    1.973409 S    
N8    O27   1.302701 A    
O9    V2    1.782844 S    
C22   C31   1.547248 S    
O10   V1    1.782844 S    
C23   C27   1.598426 S    
C24   C28   1.598426 S    
C30   O17   1.344446 A    
