data_mof_unit_2431.cif
_audit_creation_date              2012-12-10T19:42:57-0500
_audit_creation_method            fapswitch 2.2
_symmetry_space_group_name_H-M    P1
_symmetry_Int_Tables_number       1
_space_group_crystal_system       triclinic
_cell_length_a                    10.813227
_cell_length_b                    12.991561
_cell_length_c                    11.661832
_cell_angle_alpha                 99.871134
_cell_angle_beta                  94.234505
_cell_angle_gamma                 90.06682
_cell_volume                      1609.4438863

loop_
_atom_site_label
_atom_site_type_symbol
_atom_type_description
_atom_site_fract_x
_atom_site_fract_y
_atom_site_fract_z
_atom_type_partial_charge
C1    C     C_R   0.498283 0.299033 0.478606 0.801399
C2    C     C_R   0.485932 0.984594 0.654024 -0.223467
C3    C     C_R   0.510304 0.123503 0.356590 -0.198061
C4    C     C_R   0.489697 0.876497 0.643410 -0.198060
C5    C     C_R   0.489409 0.139119 0.564923 -0.287446
C6    C     C_R   0.510590 0.860881 0.435077 -0.287447
C7    C     C_R   0.493708 0.031164 0.555162 0.179512
C8    C     C_R   0.506290 0.968836 0.444839 0.179513
C9    C     C_R   0.370729 0.410593 0.022189 0.045652
C10   C     C_R   0.629268 0.589409 0.977811 0.045651
C11   C     C_R   0.386325 0.418997 0.145300 0.101118
C12   C     C_R   0.501717 0.700967 0.521394 0.801401
C13   C     C_R   0.613675 0.581003 0.854699 0.101115
C14   C     C_R   0.555843 0.536398 0.157237 -0.006954
C15   C     C_R   0.444155 0.463603 0.842763 -0.006954
C16   C     C_R   0.262228 0.503195 0.500115 0.795759
C17   C     C_R   0.737772 0.496803 0.499885 0.795759
C18   C     C_R   0.547029 0.531900 0.034132 -0.031598
C19   C     C_R   0.452968 0.468103 0.965869 -0.031599
C20   C     C_R   0.231449 0.725613 0.259407 -0.117255
C21   C     C_R   0.768556 0.274384 0.740595 -0.117253
C22   C     C_R   0.182898 0.680726 0.347541 -0.091381
C23   C     C_R   0.871671 0.494448 0.500068 -0.080775
C24   C     C_R   0.817103 0.319270 0.652459 -0.091386
C25   C     C_R   0.105214 0.591784 0.318702 0.123776
C26   C     C_R   0.894787 0.408212 0.681294 0.123778
C27   C     C_R   0.074603 0.550331 0.200599 -0.169196
C28   C     C_R   0.925401 0.449667 0.799397 -0.169193
C29   C     C_R   0.123857 0.595158 0.112854 -0.126808
C30   C     C_R   0.876150 0.404842 0.887144 -0.126812
C31   C     C_R   0.202652 0.682452 0.142227 -0.118204
C32   C     C_R   0.797356 0.317547 0.857775 -0.118209
C33   C     C_R   0.925883 0.535714 0.412243 -0.239634
C34   C     C_R   0.128328 0.505548 0.499930 -0.080774
C35   C     C_R   0.074117 0.464280 0.587754 -0.239636
C36   C     C_3   0.268055 0.342222 0.950110 -0.428655
C37   C     C_3   0.185028 0.282631 0.017734 -0.860028
C38   C     C_3   0.731943 0.657780 0.049890 -0.428651
C39   C     C_3   0.814964 0.717375 0.982265 -0.860023
C40   C     C_R   0.946175 0.457181 0.588617 0.001938
C41   C     C_R   0.053825 0.542813 0.411379 0.001938
C42   C     C_R   0.501215 0.814347 0.533824 -0.052018
C43   C     C_R   0.498785 0.185653 0.466177 -0.052017
C44   C     C_R   0.514068 0.015406 0.345977 -0.223467
Cu1   Cu    Cu3+1 0.509250 0.507730 0.615930 0.935045
Cu2   Cu    Cu3+1 0.490750 0.492270 0.384070 0.935045
H1    H     H_    0.240868 0.716968 0.074188 0.122444
H2    H     H_    0.793971 0.285069 0.561982 0.101350
H3    H     H_    0.013582 0.482734 0.176777 0.112749
H4    H     H_    0.986421 0.517265 0.823216 0.112751
H5    H     H_    0.101190 0.562120 0.022125 0.125401
H6    H     H_    0.898821 0.437881 0.977872 0.125400
H7    H     H_    0.868161 0.566090 0.345899 0.146305
H8    H     H_    0.131839 0.433904 0.654098 0.146304
H9    H     H_    0.520910 0.813243 0.350438 0.146567
H10   H     H_    0.479089 0.186757 0.649563 0.146568
H11   H     H_    0.482458 0.841624 0.720660 0.156356
H12   H     H_    0.759141 0.283033 0.925816 0.122446
H13   H     H_    0.517543 0.158376 0.279340 0.156356
H14   H     H_    0.523448 0.968398 0.260898 0.132290
H15   H     H_    0.476552 0.031602 0.739103 0.132289
H16   H     H_    0.240718 0.227878 0.063264 0.245536
H17   H     H_    0.135354 0.337653 0.081479 0.246927
H18   H     H_    0.114556 0.236286 0.955791 0.253530
H19   H     H_    0.207215 0.392316 0.902453 0.203448
H20   H     H_    0.311188 0.283408 0.884772 0.201696
H21   H     H_    0.864646 0.662357 0.918525 0.246925
H22   H     H_    0.759267 0.772121 0.936731 0.245536
H23   H     H_    0.374569 0.415319 0.787319 0.125857
H24   H     H_    0.885429 0.763729 0.044208 0.253526
H25   H     H_    0.688813 0.716590 0.115233 0.201694
H26   H     H_    0.792786 0.607684 0.097541 0.203448
H27   H     H_    0.625430 0.584682 0.212681 0.125856
H28   H     H_    0.673895 0.623074 0.808583 0.145082
H29   H     H_    0.326108 0.376922 0.191416 0.145080
H30   H     H_    0.291134 0.794036 0.281853 0.127480
H31   H     H_    0.708871 0.205960 0.718151 0.127479
H32   H     H_    0.206027 0.714925 0.438019 0.101349
N1    N     N_R   0.523180 0.519350 0.790130 -0.198000
N2    N     N_R   0.476820 0.480650 0.209870 -0.197999
O1    O     O_R   0.506570 0.354460 0.582000 -0.584102
O2    O     O_R   0.493430 0.645540 0.418000 -0.584102
O3    O     O_R   0.490940 0.341410 0.386200 -0.593414
O4    O     O_R   0.509060 0.658590 0.613800 -0.593413
O5    O     O_R   0.327460 0.506540 0.597900 -0.592350
O6    O     O_R   0.672540 0.493460 0.402100 -0.592351
O7    O     O_R   0.311830 0.493480 0.402100 -0.577865
O8    O     O_R   0.688170 0.506520 0.597900 -0.577866

loop_
_geom_bond_atom_site_label_1
_geom_bond_atom_site_label_2
_ccdc_geom_bond_type
C30   C32   A    
C13   N1    A    
C27   C29   A    
C17   O8    A    
C39   H22   S    
C14   C18   A    
C5    H10   S    
C2    C4    A    
C2    C7    A    
C32   H12   S    
C6    H9    S    
C37   H16   S    
C7    C8    A    
Cu1   Cu2   S    
C15   C19   A    
C3    C43   A    
C17   C23   S    
C10   C18   A    
C36   C37   S    
C24   C26   A    
C18   C19   A    
C38   C39   S    
C36   H20   S    
C1    O1    A    
C23   C40   A    
C20   H30   S    
C34   C35   A    
C12   C42   S    
C16   C34   S    
Cu2   O2    S    
C28   H4    S    
C1    C43   S    
C15   N1    A    
C23   C33   A    
C22   C25   A    
C4    H11   S    
C16   O7    A    
C14   N2    A    
C2    H15   S    
C5    C43   A    
C31   H1    S    
C35   H8    S    
C34   C41   A    
C37   H17   S    
C9    C19   A    
C33   H7    S    
C15   H23   S    
C21   C32   A    
C38   H26   S    
C3    C44   A    
C17   O6    A    
C24   H2    S    
C14   H27   S    
Cu1   O8    S    
C22   H32   S    
C25   C41   S    
C5    C7    A    
C36   H19   S    
C6    C8    A    
C12   O4    A    
Cu1   O5    S    
C9    C36   S    
C12   O2    A    
Cu1   N1    S    
C9    C11   A    
C20   C22   A    
C16   O5    A    
Cu1   O4    S    
C25   C27   A    
C37   H18   S    
Cu2   O7    S    
C29   H5    S    
C30   H6    S    
C38   H25   S    
C39   H21   S    
Cu1   O1    S    
C8    C44   A    
C10   C13   A    
C1    O3    A    
C26   C28   A    
C10   C38   S    
C33   C41   A    
C28   C30   A    
C35   C40   A    
C29   C31   A    
C11   H29   S    
Cu2   N2    S    
C26   C40   S    
C4    C42   A    
C44   H14   S    
C39   H24   S    
C11   N2    A    
Cu2   O3    S    
C13   H28   S    
C6    C42   A    
C21   C24   A    
C21   H31   S    
C27   H3    S    
Cu2   O6    S    
C20   C31   A    
C3    H13   S    
