data_mof_unit_1870.cif
_audit_creation_date              2012-12-10T18:11:42-0500
_audit_creation_method            fapswitch 2.2
_symmetry_space_group_name_H-M    P1
_symmetry_Int_Tables_number       1
_space_group_crystal_system       triclinic
_cell_length_a                    10.514126
_cell_length_b                    12.709932
_cell_length_c                    12.877511
_cell_angle_alpha                 80.658725
_cell_angle_beta                  92.492661
_cell_angle_gamma                 102.957731
_cell_volume                      1654.76604698

loop_
_atom_site_label
_atom_site_type_symbol
_atom_type_description
_atom_site_fract_x
_atom_site_fract_y
_atom_site_fract_z
_atom_type_partial_charge
C1    C     C_R   0.485853 0.437901 0.692216 1.055005
C2    C     C_3   0.054310 0.526735 0.591700 -0.139270
C3    C     C_3   0.940871 0.429237 0.582526 0.481377
C4    C     C_3   0.876704 0.502789 0.501575 -0.090147
C5    C     C_R   0.747656 0.666567 0.082866 0.456475
C6    C     C_R   0.559929 0.601042 0.198603 -0.429702
C7    C     C_R   0.369931 0.308377 0.840721 0.342414
C8    C     C_R   0.349083 0.275927 0.950165 -0.219328
C9    C     C_R   0.423517 0.340946 0.020576 0.527387
C10   C     C_R   0.512689 0.438963 0.980060 0.004174
C11   C     C_R   0.556596 0.452332 0.876512 -0.137935
C12   C     C_R   0.741723 0.501144 0.500869 0.979176
C13   C     C_R   0.565622 0.521045 0.041556 0.028818
C14   C     C_R   0.687610 0.592856 0.014277 -0.185844
C15   C     C_R   0.743947 0.591336 0.917897 -0.267094
C16   C     C_R   0.678940 0.523056 0.847925 0.499551
C17   C     C_R   0.494997 0.537969 0.124977 0.444569
C18   C     C_R   0.683575 0.671071 0.174413 0.356807
C19   C     C_R   0.475410 0.395274 0.804754 -0.121441
C20   C     C_R   0.266970 0.082624 0.389449 -0.102858
C21   C     C_R   0.660670 0.797695 0.628419 -0.036358
C22   C     C_R   0.686857 0.896334 0.666421 -0.339644
C23   C     C_R   0.520390 0.562122 0.308099 0.912973
C24   C     C_R   0.617103 0.976804 0.627553 0.483794
C25   C     C_R   0.524653 0.958562 0.544571 -0.098891
C26   C     C_R   0.497226 0.854134 0.511533 0.090967
C27   C     C_R   0.456823 0.038801 0.493457 0.017257
C28   C     C_R   0.342513 0.006671 0.432584 -0.004832
C29   C     C_R   0.314298 0.902906 0.406124 -0.366105
C30   C     C_R   0.398742 0.833167 0.433903 0.489289
C31   C     C_R   0.501979 0.151031 0.494265 0.038101
C32   C     C_R   0.317661 0.191820 0.395710 0.111392
C33   C     C_R   0.257894 0.498314 0.500055 0.974793
C34   C     C_3   0.941950 0.470099 0.410538 -0.370020
C35   C     C_3   0.007965 0.396661 0.493339 -0.120129
C36   C     C_3   0.121819 0.494747 0.501721 -0.127081
C37   C     C_3   0.055579 0.567622 0.421325 0.510949
C38   C     C_3   0.989028 0.602270 0.510304 -0.353293
H1    H     H_    0.263765 0.253522 0.365129 0.184404
H2    H     H_    0.235801 0.879433 0.351712 0.163800
H3    H     H_    0.592866 0.184882 0.530489 0.205155
H4    H     H_    0.712356 0.735101 0.660866 0.165680
H5    H     H_    0.893416 0.449383 0.335875 0.181665
H6    H     H_    0.758475 0.908414 0.728875 0.165481
H7    H     H_    0.978704 0.686301 0.515521 0.175664
H8    H     H_    0.835537 0.646294 0.893390 0.143109
N1    N     N_R   0.432930 0.222190 0.444670 -0.150668
N2    N     N_R   0.566370 0.776980 0.554790 -0.108865
O1    O     O_R   0.467970 0.366730 0.627150 -0.551449
O2    O     O_R   0.510820 0.544830 0.662520 -0.611807
O3    O     O_R   0.664630 0.410960 0.482340 -0.627512
O4    O     O_R   0.707470 0.589060 0.517710 -0.621166
O5    O     O_R   0.489180 0.455170 0.337480 -0.583988
O6    O     O_R   0.532030 0.633270 0.372850 -0.554978
O7    O     O_R   0.292530 0.410940 0.482290 -0.619825
O8    O     O_R   0.335370 0.589040 0.517660 -0.562840
Zn1   Zn    Zn3+2 0.471390 0.381080 0.476380 1.037268
Zn2   Zn    Zn3+2 0.528610 0.618920 0.523620 1.009712
C39   C     C_2   0.016595 0.282300 0.485353 0.466751
H9    H     H_    0.981888 0.247909 0.414916 0.098815
O9    O     O_2   0.063451 0.227820 0.557451 -0.544048
O10   O     O_3   0.362244 0.492977 0.132917 -0.680252
H10   H     H_    0.323587 0.526432 0.184692 0.340512
O11   O     O_3   0.288067 0.259203 0.766826 -0.701859
H11   H     H_    0.201213 0.225587 0.797959 0.349417
O12   O     O_3   0.421284 0.306636 0.128273 -0.695838
H12   H     H_    0.398382 0.225793 0.142793 0.346409
C40   C     C_2   0.247278 0.177400 0.989150 0.400638
H13   H     H_    0.226992 0.107920 0.947182 0.086165
O13   O     O_2   0.182217 0.174171 0.066315 -0.475648
O14   O     O_3   0.737578 0.518677 0.755116 -0.757576
H14   H     H_    0.823077 0.571475 0.748111 0.318187
C41   C     C_2   0.135268 0.050601 0.341470 0.446663
H15   H     H_    0.080859 0.966489 0.354094 0.077470
O15   O     O_2   0.083906 0.118978 0.289001 -0.521416
O16   O     O_3   0.630542 0.068040 0.676036 -0.763501
H16   H     H_    0.698324 0.067044 0.732003 0.355288
O17   O     O_3   0.389517 0.749102 0.378652 -0.697321
H17   H     H_    0.342380 0.762715 0.311082 0.349818
O18   O     O_3   0.118650 0.638704 0.335501 -0.773830
H18   H     H_    0.051909 0.676604 0.300339 0.358719
C42   C     C_2   0.117223 0.555988 0.692712 0.451466
H19   H     H_    0.116715 0.634709 0.714709 0.056979
O19   O     O_2   0.168857 0.491476 0.750586 -0.562885
O20   O     O_3   0.874175 0.357485 0.666704 -0.708466
H20   H     H_    0.940711 0.322369 0.706138 0.370693
O21   O     O_3   0.749234 0.739156 0.241757 -0.710868
H21   H     H_    0.684476 0.769966 0.273387 0.360440
O22   O     O_3   0.870000 0.733702 0.065033 -0.704961
H22   H     H_    0.925977 0.692747 0.035823 0.329903

loop_
_geom_bond_atom_site_label_1
_geom_bond_atom_site_label_2
_ccdc_geom_bond_type
C33   O7    A    
O21   H21   S    
C3    O20   S    
C34   C37   S    
C41   H15   S    
C35   C36   S    
C7    C8    A    
O20   H20   S    
C11   C19   A    
C29   C30   A    
C36   C37   S    
C20   C32   A    
C15   C16   A    
C33   C36   S    
O1    Zn1   S    
C35   C39   S    
C34   C35   S    
C32   H1    S    
C9    O12   S    
C38   H7    S    
C40   H13   S    
C22   H6    S    
C8    C9    A    
O3    Zn1   S    
C4    C12   S    
C1    O2    A    
C26   N2    A    
C21   N2    A    
C33   O8    A    
O12   H12   S    
C39   H9    S    
C31   N1    A    
C13   C14   A    
C41   O15   D    
C16   O14   S    
C12   O4    A    
C23   O5    A    
C6    C18   A    
C37   O18   S    
C4    C34   S    
C39   O9    D    
C1    C19   S    
C27   C31   A    
O2    Zn2   S    
O16   H16   S    
O5    Zn1   S    
O17   H17   S    
C24   O16   S    
C5    C18   A    
C20   C28   A    
C25   C26   A    
C37   C38   S    
C17   O10   S    
N1    Zn1   S    
C11   C16   A    
C2    C38   S    
C3    C35   S    
O10   H10   S    
O6    Zn2   S    
C24   C25   A    
C5    C14   A    
O4    Zn2   S    
C4    C38   S    
C8    C40   S    
C42   O19   D    
O7    Zn1   S    
C32   N1    A    
C22   C24   A    
C2    C42   S    
C3    C4    S    
C12   O3    A    
C23   O6    A    
C9    C10   A    
C2    C36   S    
C6    C17   A    
C28   C29   A    
C31   H3    S    
C34   H5    S    
O18   H18   S    
C10   C13   A    
N2    Zn2   S    
C25   C27   A    
C7    C19   A    
C18   O21   S    
C13   C17   A    
O11   H11   S    
C2    C3    S    
O14   H14   S    
C6    C23   S    
C29   H2    S    
O8    Zn2   S    
C20   C41   S    
C7    O11   S    
C10   C11   A    
C21   H4    S    
C30   O17   S    
C40   O13   D    
C42   H19   S    
C27   C28   A    
C14   C15   A    
C15   H8    S    
O22   H22   S    
C21   C22   A    
C1    O1    A    
C5    O22   S    
C26   C30   A    
