data_mof_unit_2505.cif
_audit_creation_date              2012-12-11T13:59:54-0500
_audit_creation_method            fapswitch 2.2
_symmetry_space_group_name_H-M    P1
_symmetry_Int_Tables_number       1
_space_group_crystal_system       triclinic
_cell_length_a                    11.322257
_cell_length_b                    11.306598
_cell_length_c                    18.918694
_cell_angle_alpha                 89.919364
_cell_angle_beta                  90.09004
_cell_angle_gamma                 119.812637
_cell_volume                      2101.37203379

loop_
_atom_site_label
_atom_site_type_symbol
_atom_type_description
_atom_site_fract_x
_atom_site_fract_y
_atom_site_fract_z
_atom_type_partial_charge
C1    C     C_R   0.544204 0.478098 0.853406 0.554018
C2    C     C_R   0.481438 0.544857 0.351669 0.556450
C3    C     C_R   0.063335 0.518588 0.351643 0.555955
C4    C     C_R   0.455048 0.936547 0.351682 0.556412
C5    C     C_2   0.997140 0.486647 0.577883 -0.116219
C6    C     C_2   0.513383 0.510795 0.577869 -0.115179
C7    C     C_2   0.489572 0.002537 0.577983 -0.115187
C8    C     C_2   0.486515 0.997111 0.422135 -0.115734
C9    C     C_2   0.510683 0.513161 0.422102 -0.115614
C10   C     C_2   0.002586 0.489550 0.422016 -0.115493
C11   C     C_2   0.008308 0.392413 0.461701 0.230964
C12   C     C_R   0.522112 0.065930 0.853407 0.556326
C13   C     C_2   0.607528 0.615780 0.461675 0.230584
C14   C     C_2   0.383776 0.991019 0.461799 0.230518
C15   C     C_2   0.392413 0.008109 0.538342 0.230684
C16   C     C_2   0.616001 0.607392 0.538232 0.230255
C17   C     C_2   0.991137 0.383778 0.538238 0.229823
C18   C     C_2   0.927042 0.455096 0.933917 -0.103841
C19   C     C_2   0.501529 0.501263 0.922206 -0.108007
C20   C     C_2   0.499587 0.000241 0.922268 -0.106527
C21   C     C_2   0.499140 0.001578 0.078221 -0.109873
C22   C     C_2   0.501847 0.500578 0.078213 -0.109897
C23   C     C_R   0.876765 0.422627 0.861569 0.565275
C24   C     C_2   0.974630 0.484745 0.086134 -0.110174
C25   C     C_2   0.968929 0.579195 0.045678 -0.163582
C26   C     C_2   0.396822 0.413484 0.037780 -0.163470
C27   C     C_2   0.587633 0.984841 0.038203 -0.165748
C28   C     C_2   0.605444 0.020690 0.962967 -0.169501
C29   C     C_2   0.415012 0.395694 0.962584 -0.163070
C30   C     C_2   0.913651 0.546619 0.973297 -0.167246
C31   C     C_3   0.148729 0.304188 0.440600 0.021406
C32   C     C_3   0.170220 0.213159 0.388906 -0.334309
C33   C     C_3   0.695832 0.844362 0.440501 0.021782
C34   C     C_R   0.478189 0.543896 0.146731 0.562253
C35   C     C_3   0.786762 0.956720 0.388829 -0.334862
C36   C     C_3   0.155782 0.850912 0.440615 0.021639
C37   C     C_3   0.043149 0.830296 0.389204 -0.335095
C38   C     C_3   0.304067 0.148542 0.559466 0.020596
C39   C     C_3   0.213315 0.170155 0.611230 -0.332983
C40   C     C_3   0.844220 0.695393 0.559393 0.020726
C41   C     C_3   0.956721 0.786963 0.610813 -0.333768
C42   C     C_3   0.850982 0.155560 0.559404 0.020551
C43   C     C_3   0.830007 0.042902 0.610983 -0.333886
C44   C     C_R   0.062054 0.520011 0.148194 0.563148
C45   C     C_R   0.456012 0.934465 0.146733 0.562709
C46   C     C_R   0.544952 0.481513 0.648324 0.558987
C47   C     C_R   0.518634 0.063389 0.648353 0.559900
C48   C     C_R   0.936608 0.455144 0.648326 0.567165
Cr1   Cr    Cr6+3 0.464030 0.233680 0.750360 1.003878
Cr2   Cr    Cr6+3 0.766320 0.230350 0.750360 1.002063
Cr3   Cr    Cr6+3 0.769650 0.535970 0.750360 1.006926
Cr4   Cr    Cr6+3 0.233680 0.464030 0.249640 1.005635
Cr5   Cr    Cr6+3 0.230350 0.766320 0.249640 1.007429
Cr6   Cr    Cr6+3 0.535970 0.769650 0.249640 1.005892
H1    H     H_    0.975189 0.559744 0.444976 -0.000412
H2    H     H_    0.707800 0.066816 0.941483 0.149754
H3    H     H_    0.357789 0.293507 0.940845 0.155472
H4    H     H_    0.870367 0.605051 0.950680 0.150388
H5    H     H_    0.924735 0.378918 0.069315 0.107124
H6    H     H_    0.604375 0.554640 0.056728 0.107142
H7    H     H_    0.444058 0.049177 0.056392 0.109256
H8    H     H_    0.396983 0.950634 0.943680 0.113248
H9    H     H_    0.555415 0.603827 0.943825 0.110106
H10   H     H_    0.976390 0.401384 0.955267 0.112826
H11   H     H_    0.159354 0.275625 0.494924 0.147218
H12   H     H_    0.440691 0.415840 0.445140 -0.000479
H13   H     H_    0.228953 0.412029 0.432669 0.143097
H14   H     H_    0.278691 0.241823 0.385218 0.128941
H15   H     H_    0.115272 0.107477 0.407977 0.136385
H16   H     H_    0.133010 0.218324 0.335301 0.183330
H17   H     H_    0.724520 0.883354 0.494791 0.147755
H18   H     H_    0.588141 0.817462 0.432653 0.143292
H19   H     H_    0.782699 0.914432 0.335383 0.183076
H20   H     H_    0.757267 0.036158 0.384612 0.128927
H21   H     H_    0.892087 0.007824 0.408319 0.135612
H22   H     H_    0.117109 0.839922 0.495017 0.147151
H23   H     H_    0.584014 0.024670 0.445105 -0.000733
H24   H     H_    0.183294 0.770417 0.432370 0.143773
H25   H     H_    0.085039 0.869055 0.335769 0.182471
H26   H     H_    0.964059 0.721771 0.384792 0.129421
H27   H     H_    0.991988 0.884425 0.409091 0.135508
H28   H     H_    0.275286 0.159025 0.505179 0.147384
H29   H     H_    0.411765 0.228954 0.567278 0.142316
H30   H     H_    0.218463 0.132785 0.664804 0.184974
H31   H     H_    0.242154 0.278834 0.614977 0.129809
H32   H     H_    0.107726 0.115363 0.592188 0.136211
H33   H     H_    0.882927 0.723433 0.505022 0.147645
H34   H     H_    0.559768 0.975262 0.554995 -0.000392
H35   H     H_    0.817188 0.587593 0.567545 0.142422
H36   H     H_    0.914702 0.783962 0.664188 0.184262
H37   H     H_    0.035794 0.757160 0.615388 0.130747
H38   H     H_    0.008023 0.892080 0.590812 0.135194
H39   H     H_    0.840199 0.116693 0.505042 0.147296
H40   H     H_    0.770655 0.183270 0.567481 0.142343
H41   H     H_    0.867789 0.084899 0.664522 0.184270
H42   H     H_    0.721640 0.963457 0.614966 0.129817
H43   H     H_    0.884733 0.992040 0.591574 0.135761
H44   H     H_    0.416043 0.440920 0.554886 -0.000419
H45   H     H_    0.024687 0.584246 0.554884 -0.001374
H46   H     H_    0.013183 0.683948 0.063626 0.150540
H47   H     H_    0.294706 0.355921 0.059389 0.155743
H48   H     H_    0.646270 0.941263 0.060167 0.154774
O1    O     O_R   0.434100 0.092480 0.829780 -0.517965
O2    O     O_R   0.362730 0.477510 0.175360 -0.499325
O3    O     O_R   0.114780 0.637270 0.175360 -0.497971
O4    O     O_R   0.522490 0.885220 0.175360 -0.500057
O5    O     O_R   0.432250 0.092620 0.670380 -0.464849
O6    O     O_R   0.907380 0.339630 0.670380 -0.462630
O7    O     O_R   0.660370 0.567750 0.670380 -0.465523
O8    O     O_R   0.092620 0.432250 0.329620 -0.467864
O9    O     O_R   0.339630 0.907380 0.329620 -0.467265
O10   O     O_R   0.567750 0.660370 0.329620 -0.466510
O11   O     O_R   0.475790 0.362860 0.676880 -0.531992
O12   O     O_R   0.907520 0.341620 0.829780 -0.517033
O13   O     O_R   0.637140 0.112930 0.676880 -0.533502
O14   O     O_R   0.887070 0.524210 0.676880 -0.528721
O15   O     O_R   0.362860 0.475790 0.323120 -0.534339
O16   O     O_R   0.112930 0.637140 0.323120 -0.535073
O17   O     O_R   0.524210 0.887070 0.323120 -0.534060
O18   O     O_3   0.666667 0.333333 0.749450 -0.278415
O19   O     O_3   0.333333 0.666667 0.250550 -0.259371
O20   O     O_3   0.017386 0.286287 0.429918 -0.545387
O21   O     O_3   0.713461 0.730521 0.429791 -0.545588
O22   O     O_3   0.268781 0.982244 0.429972 -0.545696
O23   O     O_R   0.658380 0.565900 0.829780 -0.528201
O24   O     O_3   0.286390 0.017092 0.570162 -0.544904
O25   O     O_3   0.730738 0.713378 0.570060 -0.545593
O26   O     O_3   0.982208 0.268581 0.570083 -0.545041
O27   O     O_R   0.092480 0.434100 0.170220 -0.522263
O28   O     O_R   0.341620 0.907520 0.170220 -0.518623
O29   O     O_R   0.565900 0.658380 0.170220 -0.520705
O30   O     O_R   0.477510 0.362730 0.824640 -0.500080
O31   O     O_R   0.637270 0.114780 0.824640 -0.514260
O32   O     O_R   0.885220 0.522490 0.824640 -0.490852

loop_
_geom_bond_atom_site_label_1
_geom_bond_atom_site_label_2
_ccdc_geom_bond_type
Cr1   O11   S    
C35   H20   S    
C38   H29   S    
C42   H39   S    
C4    C8    S    
C1    O30   A    
C28   H2    S    
Cr1   O5    S    
C44   O3    A    
C47   O13   A    
Cr6   O29   S    
C37   H25   S    
C35   H21   S    
Cr2   O18   S    
Cr4   O27   S    
C6    H44   S    
C40   H33   S    
C36   C37   S    
C36   O22   S    
C1    O23   A    
C39   H30   S    
C26   H47   S    
C22   H6    S    
C38   C39   S    
C13   O21   S    
Cr3   O32   S    
Cr1   O18   S    
C5    C17   D    
C3    O8    A    
Cr2   O13   S    
C9    C13   D    
C9    H12   S    
C36   H22   S    
C33   H18   S    
C38   O24   S    
C35   H19   S    
C5    H45   S    
C19   H9    S    
C15   O24   S    
C43   H41   S    
C4    O17   A    
C18   C30   D    
C40   H35   S    
C21   H7    S    
C23   O32   A    
C42   O26   S    
C48   O14   A    
Cr4   O15   S    
Cr5   O9    S    
C7    C15   D    
C41   H36   S    
C21   C27   D    
C45   O28   A    
Cr3   O7    S    
Cr6   O17   S    
C38   H28   S    
Cr2   O6    S    
C37   H27   S    
Cr1   O30   S    
C2    O15   A    
Cr3   O18   S    
C21   C45   S    
C22   C34   S    
C5    C48   S    
C1    C19   S    
C14   O22   S    
Cr6   O4    S    
C18   C23   S    
Cr3   O23   S    
C24   C25   D    
C12   O1    A    
Cr5   O16   S    
C32   H16   S    
C20   C28   D    
C44   O27   A    
C40   O25   S    
C34   O2    A    
Cr2   O12   S    
C7    C47   S    
C31   H13   S    
C37   H26   S    
C3    O16   A    
Cr4   O19   S    
C25   H46   S    
C7    H34   S    
Cr4   O8    S    
C2    O10   A    
C12   C20   S    
C43   H42   S    
Cr6   O10   S    
C10   H1    S    
C40   C41   S    
C41   H37   S    
Cr6   O19   S    
C29   H3    S    
C34   O29   A    
C47   O5    A    
C12   O31   A    
C8    H23   S    
C24   C44   S    
C46   O7    A    
C11   O20   S    
C42   C43   S    
C39   H31   S    
C19   C29   D    
C45   O4    A    
C25   C30   S    
C31   H11   S    
Cr4   O2    S    
C8    C14   D    
C6    C46   S    
C46   O11   A    
C42   H40   S    
C4    O9    A    
C31   C32   S    
C43   H43   S    
C31   O20   S    
Cr2   O31   S    
C11   C17   S    
Cr1   O1    S    
C17   O26   S    
C32   H15   S    
C27   H48   S    
Cr3   O14   S    
C32   H14   S    
C3    C10   S    
C36   H24   S    
C23   O12   A    
C18   H10   S    
C48   O6    A    
C24   H5    S    
C30   H4    S    
C33   C35   S    
C20   H8    S    
C16   O25   S    
C10   C11   D    
C33   H17   S    
C6    C16   D    
Cr5   O3    S    
C41   H38   S    
C26   C29   S    
C22   C26   D    
C13   C16   S    
C27   C28   S    
C33   O21   S    
C14   C15   S    
Cr5   O19   S    
Cr5   O28   S    
C39   H32   S    
C2    C9    S    
