data_mof_unit_1556.cif
_audit_creation_date              2012-12-11T14:45:33-0500
_audit_creation_method            fapswitch 2.2
_symmetry_space_group_name_H-M    P1
_symmetry_Int_Tables_number       1
_space_group_crystal_system       triclinic
_cell_length_a                    24.944835
_cell_length_b                    7.179512
_cell_length_c                    14.414852
_cell_angle_alpha                 89.999184
_cell_angle_beta                  102.911402
_cell_angle_gamma                 90.00576
_cell_volume                      2516.31018269

loop_
_atom_site_label
_atom_site_type_symbol
_atom_type_description
_atom_site_fract_x
_atom_site_fract_y
_atom_site_fract_z
_atom_type_partial_charge
O1    O     O_R   0.319150 0.364170 0.330530 -0.545882
O2    O     O_R   0.680850 0.635830 0.669470 -0.545884
O3    O     O_R   0.180850 0.864170 0.169470 -0.545892
O4    O     O_R   0.819150 0.135830 0.830530 -0.545894
O5    O     O_R   0.210330 0.696850 0.354180 -0.543965
O6    O     O_R   0.789670 0.303150 0.645820 -0.544003
O7    O     O_R   0.289670 0.196850 0.145820 -0.544027
O8    O     O_R   0.710330 0.803150 0.854180 -0.544031
C1    C     C_R   0.197332 0.525376 0.378092 0.677493
C2    C     C_R   0.802667 0.474623 0.621907 0.677539
C3    C     C_R   0.302668 0.025389 0.121908 0.677474
C4    C     C_R   0.697332 0.974611 0.878092 0.677499
O9    O     O_R   0.320550 0.694110 0.341970 -0.528511
O10   O     O_R   0.679450 0.305890 0.658030 -0.528505
O11   O     O_R   0.179450 0.194110 0.158030 -0.528494
O12   O     O_R   0.820550 0.805890 0.841970 -0.528468
O13   O     O_R   0.291860 0.861000 0.157170 -0.530711
O14   O     O_R   0.708140 0.139000 0.842830 -0.530703
O15   O     O_R   0.208140 0.361000 0.342830 -0.530717
O16   O     O_R   0.791860 0.639000 0.657170 -0.530703
C5    C     C_R   0.341782 0.525025 0.361896 0.728933
C6    C     C_R   0.658218 0.474975 0.638104 0.728901
C7    C     C_R   0.158219 0.025009 0.138101 0.729138
C8    C     C_R   0.841781 0.974992 0.861899 0.728961
O17   O     O_3   0.240460 0.529330 0.189380 -0.377322
O18   O     O_3   0.759540 0.470670 0.810620 -0.377310
O19   O     O_3   0.259540 0.029330 0.310620 -0.377282
O20   O     O_3   0.740460 0.970670 0.689380 -0.377298
V1    V     V_3+5 0.251770 0.805510 0.261240 1.441002
V2    V     V_3+5 0.748230 0.194490 0.738760 1.440930
V3    V     V_3+5 0.248230 0.305510 0.238760 1.440911
V4    V     V_3+5 0.751770 0.694490 0.761240 1.440911
C9    C     C_R   0.102944 0.010747 0.074729 -0.072485
C10   C     C_R   0.897058 0.989264 0.925264 -0.072383
C11   C     C_R   0.397056 0.510806 0.425268 -0.072261
C12   C     C_R   0.602943 0.489196 0.574733 -0.072241
C13   C     C_R   0.955298 0.125828 0.066523 -0.181054
C14   C     C_R   0.044708 0.874264 0.933450 -0.181086
C15   C     C_R   0.544731 0.625394 0.433354 -0.181078
C16   C     C_R   0.455268 0.374618 0.566650 -0.181092
C17   C     C_R   0.903435 0.095142 0.008396 -0.241610
C18   C     C_R   0.096570 0.904931 0.991581 -0.241629
C19   C     C_R   0.596588 0.594774 0.491509 -0.241574
C20   C     C_R   0.403411 0.405234 0.508494 -0.241577
C21   C     C_R   0.943746 0.913461 0.899124 0.236433
C22   C     C_R   0.056257 0.086537 0.100873 0.236398
C23   C     C_R   0.556241 0.413604 0.600932 0.236435
C24   C     C_R   0.443759 0.586397 0.399069 0.236447
C25   C     C_R   0.997074 0.945708 0.957765 0.051388
C26   C     C_R   0.002929 0.054327 0.042224 0.051529
C27   C     C_R   0.502917 0.445826 0.542273 0.051391
C28   C     C_R   0.497083 0.554179 0.457729 0.051418
H1    H     H_    0.132220 0.844744 0.971626 0.126085
H2    H     H_    0.867786 0.155367 0.028340 0.126097
H3    H     H_    0.367749 0.345216 0.528497 0.126002
H4    H     H_    0.632250 0.654797 0.471507 0.126003
H5    H     H_    0.957341 0.207072 0.130336 0.135724
H6    H     H_    0.042671 0.793099 0.869614 0.135798
H7    H     H_    0.542710 0.706341 0.369451 0.135795
H8    H     H_    0.457288 0.293680 0.630555 0.135803
C29   C     C_R   0.664730 0.982641 0.950284 -0.017983
C30   C     C_R   0.335270 0.017357 0.049716 -0.017980
C31   C     C_R   0.835268 0.482707 0.549714 -0.017993
C32   C     C_R   0.164731 0.517288 0.450285 -0.018006
C33   C     C_R   0.658936 0.997004 0.114786 -0.162380
C34   C     C_R   0.341064 0.002993 0.885214 -0.162382
C35   C     C_R   0.841062 0.497778 0.385230 -0.162380
C36   C     C_R   0.158937 0.502204 0.614768 -0.162386
C37   C     C_R   0.690496 0.989494 0.046557 -0.177377
C38   C     C_R   0.309504 0.010508 0.953443 -0.177374
C39   C     C_R   0.809503 0.490088 0.453456 -0.177365
C40   C     C_R   0.190497 0.509925 0.546543 -0.177344
C41   C     C_R   0.607398 0.982698 0.921853 -0.227317
C42   C     C_R   0.392602 0.017293 0.078147 -0.227324
C43   C     C_R   0.892600 0.482447 0.578134 -0.227358
C44   C     C_R   0.107400 0.517505 0.421864 -0.227432
C45   C     C_R   0.574186 0.992173 0.989530 0.076748
C46   C     C_R   0.425814 0.007813 0.010470 0.076756
C47   C     C_R   0.925812 0.492181 0.510466 0.076763
C48   C     C_R   0.074187 0.507746 0.489531 0.076804
C49   C     C_R   0.601256 0.998559 0.087256 0.144495
C50   C     C_R   0.398744 0.001430 0.912745 0.144493
C51   C     C_R   0.898743 0.499053 0.412753 0.144481
C52   C     C_R   0.101256 0.500885 0.587244 0.144466
C53   C     C_R   0.515351 0.995580 0.963617 0.060347
C54   C     C_R   0.484649 0.004402 0.036383 0.060358
C55   C     C_R   0.984648 0.495407 0.536377 0.060339
C56   C     C_R   0.015351 0.504496 0.463618 0.060392
C57   C     C_R   0.513785 0.009018 0.132533 -0.198322
C58   C     C_R   0.486215 0.990962 0.867468 -0.198343
C59   C     C_R   0.986215 0.509517 0.367476 -0.198241
C60   C     C_R   0.013784 0.490369 0.632518 -0.198309
C61   C     C_R   0.570769 0.006345 0.157053 -0.205815
C62   C     C_R   0.429231 0.993639 0.842947 -0.205805
C63   C     C_R   0.929229 0.507057 0.342960 -0.205906
C64   C     C_R   0.070770 0.492849 0.657035 -0.205843
H9    H     H_    0.409568 0.024607 0.153604 0.104654
H10   H     H_    0.590431 0.975380 0.846396 0.104657
H11   H     H_    0.090434 0.525199 0.346420 0.104526
H12   H     H_    0.909565 0.474744 0.653577 0.104583
H13   H     H_    0.679659 0.001979 0.189332 0.112784
H14   H     H_    0.320341 0.998019 0.810668 0.112785
H15   H     H_    0.820339 0.503147 0.310695 0.112787
H16   H     H_    0.179660 0.496847 0.689304 0.112788
H17   H     H_    0.493943 0.014780 0.191469 0.121115
H18   H     H_    0.506056 0.985195 0.808531 0.121106
H19   H     H_    0.006056 0.515444 0.308542 0.121177
H20   H     H_    0.993943 0.484417 0.691451 0.121151
N1    N     N_2   0.063646 0.188350 0.187721 -0.531117
H21   H     H_    0.042138 0.311746 0.183339 0.243684
C65   C     C_3   0.060268 0.076494 0.269748 -0.539848
H22   H     H_    0.018161 0.018748 0.261817 0.192795
H23   H     H_    0.069953 0.163805 0.334839 0.206809
H24   H     H_    0.090415 0.960271 0.278673 0.200379
N2    N     N_2   0.936367 0.811586 0.812293 -0.531095
H25   H     H_    0.957930 0.688307 0.816669 0.243720
C66   C     C_3   0.939639 0.923457 0.730222 -0.540111
H26   H     H_    0.981599 0.982429 0.738329 0.192854
H27   H     H_    0.909203 0.038743 0.720999 0.200588
H28   H     H_    0.930310 0.835882 0.665225 0.206687
N3    N     N_2   0.436396 0.688098 0.312188 -0.531162
H29   H     H_    0.458001 0.811298 0.316496 0.243693
C67   C     C_3   0.439619 0.576022 0.230160 -0.540124
H30   H     H_    0.481538 0.516675 0.238331 0.192864
H31   H     H_    0.430388 0.663555 0.165144 0.206645
H32   H     H_    0.409087 0.461002 0.220921 0.200662
N4    N     N_2   0.563602 0.311900 0.687812 -0.531163
H33   H     H_    0.541989 0.188715 0.683505 0.243687
C68   C     C_3   0.560389 0.423986 0.769842 -0.539994
H34   H     H_    0.518488 0.483558 0.761622 0.192842
H35   H     H_    0.590980 0.538863 0.779138 0.200668
H36   H     H_    0.569555 0.336385 0.834849 0.206602
H37   H     H_    0.591221 0.010464 0.231790 0.120495
H38   H     H_    0.408778 0.989519 0.768210 0.120494
H39   H     H_    0.908777 0.511521 0.268231 0.120516
H40   H     H_    0.091222 0.488383 0.731765 0.120515
H41   H     H_    0.265040 0.011078 0.931265 0.100269
H42   H     H_    0.734960 0.988930 0.068735 0.100271
H43   H     H_    0.234961 0.510248 0.568714 0.100257
H44   H     H_    0.765038 0.489797 0.431286 0.100258

loop_
_geom_bond_atom_site_label_1
_geom_bond_atom_site_label_2
_ccdc_geom_bond_type
O17   V3    S    
C55   C56   A    
O1    C5    A    
C16   H8    S    
O19   V1    S    
C1    C32   S    
O13   V1    S    
C34   H14   S    
O3    C7    A    
C65   H22   S    
C33   H13   S    
C48   C52   A    
C3    C30   S    
O15   V3    S    
C47   C55   A    
C35   H15   S    
C67   H30   S    
C64   H40   S    
C14   C25   A    
C53   C54   A    
C44   H11   S    
O7    C3    A    
C50   C62   A    
C9    C18   A    
O9    V1    S    
C14   C18   A    
C61   H37   S    
C66   H27   S    
C18   H1    S    
O4    C8    A    
C67   H31   S    
N2    H25   S    
O1    V3    S    
C30   C38   A    
C12   C23   A    
O2    V4    S    
C52   C64   A    
O3    V1    S    
C46   C50   A    
C14   H6    S    
C1    O15   A    
C40   H43   S    
C2    C31   S    
C2    O16   A    
C7    C9    S    
O2    C6    A    
O14   V2    S    
C45   C49   A    
C16   C20   A    
C13   C26   A    
C36   C40   A    
C68   H36   S    
C46   C54   A    
O11   C7    A    
C15   C28   A    
C45   C53   A    
O12   C8    A    
C55   C60   A    
C57   C61   A    
C9    C22   A    
C10   C17   A    
O10   V2    S    
C11   C24   A    
C60   H20   S    
C58   C62   A    
C42   H9    S    
O5    V1    S    
C60   C64   A    
C41   H10   S    
O7    V3    S    
C27   C28   A    
C36   C52   A    
C59   H19   S    
C58   H18   S    
C66   H28   S    
C24   N3    S    
O18   V4    S    
C67   H32   S    
C15   C19   A    
C29   C41   A    
C8    C10   S    
O8    V4    S    
N4    C68   S    
O5    C1    A    
C34   C50   A    
C49   C61   A    
C21   N2    S    
C33   C49   A    
C56   C59   A    
C21   C25   A    
O8    C4    A    
C15   H7    S    
C63   H39   S    
C32   C44   A    
O9    C5    A    
C65   H23   S    
C10   C21   A    
C51   C63   A    
O11   V3    S    
C11   C20   A    
N3    H29   S    
O6    V2    S    
C31   C39   A    
C44   C48   A    
C57   H17   S    
N4    H33   S    
C35   C51   A    
C68   H34   S    
O16   V4    S    
C29   C37   A    
C37   H42   S    
N2    C66   S    
C3    O13   A    
C36   H16   S    
C54   C57   A    
O6    C2    A    
C23   C27   A    
C53   C58   A    
C23   N4    S    
C39   H44   S    
C5    C11   S    
O12   V4    S    
C16   C27   A    
C6    C12   S    
C22   C26   A    
O10   C6    A    
N1    C65   S    
C48   C56   A    
C66   H26   S    
C47   C51   A    
C4    C29   S    
C20   H3    S    
C34   C38   A    
C31   C43   A    
C33   C37   A    
O20   V2    S    
C43   H12   S    
C62   H38   S    
C65   H24   S    
C35   C39   A    
C32   C40   A    
C13   C17   A    
O4    V2    S    
C17   H2    S    
N3    C67   S    
C59   C63   A    
C19   H4    S    
C24   C28   A    
C38   H41   S    
C25   C26   A    
C42   C46   A    
C22   N1    S    
C4    O14   A    
C41   C45   A    
C30   C42   A    
C12   C19   A    
N1    H21   S    
C43   C47   A    
C13   H5    S    
C68   H35   S    
