data_mof_unit_3706.cif
_audit_creation_date              2012-12-11T14:19:30-0500
_audit_creation_method            fapswitch 2.2
_symmetry_space_group_name_H-M    P1
_symmetry_Int_Tables_number       1
_space_group_crystal_system       triclinic
_cell_length_a                    19.392814
_cell_length_b                    7.25296
_cell_length_c                    17.844196
_cell_angle_alpha                 89.949057
_cell_angle_beta                  107.463072
_cell_angle_gamma                 90.226457
_cell_volume                      2394.18300441

loop_
_atom_site_label
_atom_site_type_symbol
_atom_type_description
_atom_site_fract_x
_atom_site_fract_y
_atom_site_fract_z
_atom_type_partial_charge
O1    O     O_R   0.414820 0.494320 0.416790 -0.533026
O2    O     O_R   0.585180 0.994320 0.583210 -0.532629
O3    O     O_R   0.560270 0.819500 0.430140 -0.537495
O4    O     O_R   0.439730 0.319500 0.569860 -0.537757
C1    C     C_R   0.580189 0.655487 0.414130 0.746038
C2    C     C_R   0.420324 0.154770 0.586387 0.746963
O5    O     O_R   0.413840 0.823740 0.407440 -0.530619
O6    O     O_R   0.586160 0.323740 0.592560 -0.532111
O7    O     O_R   0.437710 0.998590 0.560350 -0.536888
O8    O     O_R   0.562290 0.498590 0.439650 -0.536326
C3    C     C_R   0.386894 0.656359 0.387839 0.760102
C4    C     C_R   0.612951 0.156795 0.612573 0.760266
O9    O     O_3   0.508000 0.662290 0.550200 -0.376855
O10   O     O_3   0.492000 0.162290 0.449800 -0.376941
V1    V     V_3+5 0.498520 0.935380 0.490690 1.569650
V2    V     V_3+5 0.501480 0.435380 0.509310 1.568141
C5    C     C_2   0.769162 0.243836 0.801269 0.048502
C6    C     C_2   0.228956 0.747188 0.202126 0.045207
C7    C     C_2   0.816686 0.102038 0.820715 0.185666
C8    C     C_2   0.182122 0.603855 0.180668 0.189587
C9    C     C_2   0.695382 0.215445 0.744429 0.378298
C10   C     C_2   0.303073 0.719121 0.257619 0.381945
C11   C     C_2   0.685396 0.157592 0.669758 0.016198
C12   C     C_2   0.314116 0.655829 0.331636 0.019598
C13   C     C_R   0.305589 0.226643 0.611751 -0.203826
C14   C     C_R   0.697882 0.713848 0.392215 -0.205720
C15   C     C_R   0.373456 0.144466 0.637934 -0.143706
C16   C     C_R   0.627258 0.647686 0.362747 -0.143367
C17   C     C_R   0.394719 0.050191 0.710668 0.192572
C18   C     C_R   0.602820 0.574220 0.285975 0.193446
C19   C     C_R   0.346844 0.044506 0.758255 -0.012531
C20   C     C_R   0.649515 0.577866 0.237227 -0.012218
C21   C     C_R   0.276883 0.124303 0.729004 -0.013228
C22   C     C_R   0.722481 0.636723 0.269848 -0.015636
C23   C     C_R   0.256914 0.213399 0.655409 0.096432
C24   C     C_R   0.745970 0.703130 0.347621 0.096620
C25   C     C_R   0.366415 0.964077 0.834008 0.255901
C26   C     C_R   0.625578 0.528124 0.156978 0.257572
C27   C     C_R   0.314037 0.938452 0.873932 0.314063
C28   C     C_R   0.676069 0.503530 0.114627 0.315551
C29   C     C_R   0.245165 0.022493 0.845652 0.002275
C30   C     C_R   0.749230 0.558259 0.147854 -0.000869
C31   C     C_R   0.226772 0.117734 0.773225 -0.122644
C32   C     C_R   0.772186 0.630184 0.225147 -0.124914
C33   C     C_R   0.157629 0.202688 0.743700 0.025582
C34   C     C_R   0.845269 0.690306 0.258859 0.026500
C35   C     C_R   0.136211 0.266022 0.664648 0.213111
C36   C     C_R   0.868569 0.735160 0.340350 0.214877
C37   C     C_R   0.186836 0.279744 0.623628 -0.168568
C38   C     C_R   0.818347 0.749913 0.381901 -0.167678
C39   C     C_R   0.194895 0.014453 0.889091 0.385758
C40   C     C_R   0.800171 0.538284 0.105826 0.367841
C41   C     C_R   0.130139 0.118748 0.865082 -0.232100
C42   C     C_R   0.869996 0.617065 0.134951 -0.229240
C43   C     C_R   0.113373 0.220397 0.794124 0.105637
C44   C     C_R   0.891166 0.702284 0.209753 0.092561
H1    H     H_    0.289600 0.295657 0.555171 0.148793
H2    H     H_    0.716291 0.767165 0.451768 0.147428
H3    H     H_    0.169861 0.332417 0.564011 0.172182
H4    H     H_    0.837029 0.787358 0.443559 0.171038
O11   O     O_R   0.937810 0.773680 0.060480 -0.520410
O12   O     O_R   0.062190 0.273680 0.939520 -0.518473
O13   O     O_R   0.086190 0.439740 0.092580 -0.534661
O14   O     O_R   0.913810 0.939740 0.907420 -0.535169
C45   C     C_R   0.112674 0.607815 0.114690 0.685197
C46   C     C_R   0.886864 0.107198 0.885833 0.663139
O15   O     O_R   0.939760 0.444210 0.069890 -0.554023
O16   O     O_R   0.060240 0.944210 0.930110 -0.531027
O17   O     O_R   0.914790 0.269640 0.916760 -0.531051
O18   O     O_R   0.085210 0.769640 0.083240 -0.530089
C47   C     C_R   0.919581 0.612100 0.085332 0.757648
C48   C     C_R   0.079389 0.112960 0.913508 0.724280
O19   O     O_3   0.992050 0.601530 0.949880 -0.361121
O20   O     O_3   0.007950 0.101530 0.050120 -0.369673
V3    V     V_3+5 0.001480 0.328340 0.009300 1.557100
V4    V     V_3+5 0.998520 0.828340 0.990700 1.582813
I1    I     I_    0.786385 0.511784 0.851983 -0.246564
I2    I     I_    0.209796 0.019735 0.158339 -0.294853
I3    I     I_    0.031869 0.430670 0.775055 -0.258906
I4    I     I_    0.983883 0.882383 0.236284 -0.274941
I5    I     I_    0.027616 0.280705 0.589286 -0.213233
I6    I     I_    0.976906 0.724519 0.416643 -0.210499
O21   O     O_3   0.794562 0.936089 0.782569 -0.611487
H5    H     H_    0.837815 0.863091 0.783299 0.338106
O22   O     O_3   0.204085 0.437560 0.217922 -0.610838
H6    H     H_    0.160471 0.367363 0.219054 0.339234
O23   O     O_3   0.634992 0.254326 0.767570 -0.624533
H7    H     H_    0.650987 0.281950 0.824606 0.340597
O24   O     O_3   0.362712 0.764989 0.234018 -0.623168
H8    H     H_    0.345915 0.797056 0.177423 0.339079
I7    I     I_    0.770764 0.128663 0.618155 -0.336981
I8    I     I_    0.229937 0.616843 0.384457 -0.330487
I9    I     I_    0.498044 0.912755 0.741099 -0.196327
I10   I     I_    0.498280 0.442042 0.251996 -0.205178
O25   O     O_3   0.437589 0.919541 0.870935 -0.610257
H9    H     H_    0.447891 0.934203 0.928487 0.320572
O26   O     O_3   0.552418 0.516088 0.118779 -0.609330
H10   H     H_    0.543164 0.550222 0.062835 0.320242
O27   O     O_3   0.330579 0.834129 0.941877 -0.588773
H11   H     H_    0.365737 0.737516 0.939034 0.316112
O28   O     O_3   0.653887 0.428544 0.039952 -0.586287
H12   H     H_    0.613146 0.342360 0.036037 0.315787
O29   O     O_3   0.211421 0.908015 0.956354 -0.586017
H13   H     H_    0.190408 0.964606 0.994599 0.303814
O30   O     O_3   0.779009 0.454127 0.033232 -0.586782
H14   H     H_    0.816785 0.365078 0.031056 0.302406

loop_
_geom_bond_atom_site_label_1
_geom_bond_atom_site_label_2
_ccdc_geom_bond_type
C18   C20   A    
O23   H7    S    
C9    O23   S    
O28   H12   S    
C15   C17   A    
O25   H9    S    
O1    C3    A    
O2    C4    A    
C2    O7    A    
O13   C45   A    
O26   H10   S    
O3    V1    S    
C35   C37   A    
O22   H6    S    
O5    C3    A    
C4    C11   S    
C13   H1    S    
C10   C12   D    
C46   O17   A    
C39   O29   S    
C45   O18   A    
C3    C12   S    
C25   O25   S    
C7    C46   S    
C33   C35   A    
C5    C7    D    
C28   O28   S    
C14   H2    S    
C42   C47   S    
C2    C15   S    
C40   C42   A    
C23   C37   A    
C19   C21   A    
C20   C26   A    
C6    C8    D    
O6    C4    A    
O11   C47   A    
C36   C38   A    
O6    V2    S    
C29   C31   A    
C30   C32   A    
C26   O26   S    
C7    O21   S    
C12   I8    S    
C17   I9    S    
C32   C34   A    
C34   C36   A    
C41   C43   A    
O11   V4    S    
C25   C27   A    
C42   C44   A    
O20   V3    S    
C21   C31   A    
C8    C45   S    
C22   C32   A    
C27   C29   A    
O5    V1    S    
C5    C9    S    
C19   C25   A    
C39   C41   A    
C20   C22   A    
O4    V2    S    
C1    C16   S    
C43   I3    S    
C27   O27   S    
O21   H5    S    
O16   C48   A    
C8    O22   S    
C5    I1    S    
O14   V4    S    
O12   C48   A    
O1    V2    S    
O2    V1    S    
C31   C33   A    
C33   C43   A    
C13   C23   A    
O4    C2    A    
C6    I2    S    
C40   O30   S    
C9    C11   D    
O18   V4    S    
O19   V4    S    
C11   I7    S    
O12   V3    S    
C13   C15   A    
C24   C38   A    
C14   C24   A    
C6    C10   S    
O3    C1    A    
C44   I4    S    
O16   V4    S    
O30   H14   S    
C14   C16   A    
C37   H3    S    
O27   H11   S    
C38   H4    S    
C16   C18   A    
O7    V1    S    
C1    O8    A    
C18   I10   S    
O14   C46   A    
O8    V2    S    
C26   C28   A    
O13   V3    S    
C28   C30   A    
C21   C23   A    
C10   O24   S    
C36   I6    S    
O17   V3    S    
O15   C47   A    
C35   I5    S    
O15   V3    S    
C22   C24   A    
C17   C19   A    
O9    V2    S    
C34   C44   A    
O29   H13   S    
O10   V1    S    
O24   H8    S    
C41   C48   S    
C29   C39   A    
C30   C40   A    
