data_mof_unit_586.cif
_audit_creation_date              2012-12-10T19:00:02-0500
_audit_creation_method            fapswitch 2.2
_symmetry_space_group_name_H-M    P1
_symmetry_Int_Tables_number       1
_space_group_crystal_system       triclinic
_cell_length_a                    10.826812
_cell_length_b                    10.685755
_cell_length_c                    9.925363
_cell_angle_alpha                 90.000894
_cell_angle_beta                  89.607767
_cell_angle_gamma                 89.999496
_cell_volume                      1148.26474446

loop_
_atom_site_label
_atom_site_type_symbol
_atom_type_description
_atom_site_fract_x
_atom_site_fract_y
_atom_site_fract_z
_atom_type_partial_charge
C1    C     C_R   0.500000 0.260186 0.499950 0.865315
C2    C     C_R   0.499999 0.739773 0.500050 0.848445
C3    C     C_R   0.872109 0.533415 0.498892 -0.130541
C4    C     C_R   0.127895 0.533458 0.501097 -0.130539
C5    C     C_R   0.934357 0.554646 0.620606 -0.090785
C6    C     C_R   0.065641 0.554588 0.379369 -0.090770
C7    C     C_R   0.460579 0.063993 0.385064 -0.206947
C8    C     C_R   0.539435 0.935804 0.614931 -0.207542
C9    C     C_R   0.460539 0.935768 0.385110 -0.207393
C10   C     C_R   0.539439 0.064029 0.614896 -0.206797
C11   C     C_R   0.499980 0.872286 0.500039 0.002982
C12   C     C_R   0.500016 0.127566 0.499961 0.000806
C13   C     C_R   0.500626 0.609612 0.071609 -0.069565
C14   C     C_R   0.500149 0.390350 0.928472 -0.104101
C15   C     C_R   0.499389 0.609581 0.928352 -0.069401
C16   C     C_R   0.499838 0.390381 0.071567 -0.103897
C17   C     C_R   0.260248 0.509968 0.500459 0.897887
C18   C     C_R   0.739755 0.509931 0.499540 0.897878
C19   C     C_R   0.194945 0.794586 0.138821 -0.156192
C20   C     C_R   0.782640 0.589343 0.961208 -0.143139
C21   C     C_R   0.144526 0.739851 0.254440 -0.161215
C22   C     C_R   0.836061 0.534545 0.847834 -0.110568
C23   C     C_R   0.127991 0.609637 0.260824 0.168252
C24   C     C_R   0.871990 0.609717 0.739132 0.168217
C25   C     C_R   0.163932 0.534442 0.152141 -0.110650
C26   C     C_R   0.855446 0.739930 0.745491 -0.161240
C27   C     C_R   0.217356 0.589218 0.038759 -0.143064
C28   C     C_R   0.805030 0.794687 0.861103 -0.156163
C29   C     C_R   0.230505 0.719314 0.030433 -0.134055
C30   C     C_R   0.769484 0.719439 0.969510 -0.134105
C31   C     C_R   0.937907 0.543165 0.376825 0.050503
C32   C     C_R   0.062099 0.543281 0.623153 0.050459
H1    H     H_    0.270787 0.761422 0.941245 0.124932
H2    H     H_    0.729203 0.761563 0.058692 0.124929
H3    H     H_    0.499169 0.697842 0.875225 0.130603
H4    H     H_    0.499658 0.302097 0.124647 0.131515
H5    H     H_    0.206699 0.895047 0.133396 0.124561
H6    H     H_    0.748568 0.530106 0.041161 0.159310
H7    H     H_    0.116257 0.798760 0.337953 0.122108
H8    H     H_    0.847582 0.433934 0.843573 0.112747
H9    H     H_    0.251439 0.529966 0.958820 0.159293
H10   H     H_    0.793271 0.895147 0.866509 0.124563
H11   H     H_    0.428787 0.113052 0.296254 0.142471
H12   H     H_    0.571202 0.886704 0.703730 0.151509
N1    N     N_R   0.499970 0.499970 0.857200 -0.076705
N2    N     N_R   0.500030 0.500030 0.142800 -0.076692
O1    O     O_R   0.499990 0.316750 0.614620 -0.634157
O2    O     O_R   0.500010 0.683250 0.385380 -0.635228
O3    O     O_R   0.499990 0.316780 0.385290 -0.634174
O4    O     O_R   0.500010 0.683220 0.614710 -0.635228
O5    O     O_R   0.316760 0.500000 0.614660 -0.589450
O6    O     O_R   0.683240 0.500000 0.385340 -0.589440
O7    O     O_R   0.316760 0.500020 0.385330 -0.615106
O8    O     O_R   0.683240 0.499980 0.614670 -0.615113
Zn1   Zn    Zn3+2 0.500000 0.499980 0.653120 0.951950
Zn2   Zn    Zn3+2 0.500000 0.500020 0.346880 0.951958
H13   H     H_    0.152422 0.433829 0.156424 0.112737
H14   H     H_    0.883709 0.798821 0.661965 0.122117
N3    N     N_3   0.875007 0.549199 0.250860 -0.432726
H15   H     H_    0.891968 0.636729 0.207618 0.194684
H16   H     H_    0.910672 0.479178 0.188129 0.175979
N4    N     N_3   0.125009 0.549446 0.749106 -0.432728
H17   H     H_    0.089363 0.479465 0.811896 0.176019
H18   H     H_    0.108015 0.637001 0.792269 0.194677
H19   H     H_    0.428758 0.886638 0.296334 0.151530
H20   H     H_    0.571242 0.113118 0.703684 0.142497
H21   H     H_    0.500854 0.697891 0.124706 0.130526
H22   H     H_    0.500317 0.302048 0.875421 0.131457

loop_
_geom_bond_atom_site_label_1
_geom_bond_atom_site_label_2
_ccdc_geom_bond_type
C18   O6    A    
N4    H18   S    
N4    H17   S    
C14   C16   A    
C7    H11   S    
C27   C29   A    
O3    Zn2   S    
C26   H14   S    
C19   H5    S    
C27   H9    S    
N2    Zn2   S    
C26   C28   A    
O4    Zn1   S    
C21   H7    S    
C13   C15   A    
C5    C32   A    
C22   H8    S    
C7    C9    A    
C17   O5    A    
C28   C30   A    
C6    C31   A    
O1    Zn1   S    
C32   N4    S    
N3    H15   S    
C20   C30   A    
C16   H4    S    
C3    C31   A    
C9    C11   A    
C8    H12   S    
C7    C12   A    
C1    C12   S    
C25   H13   S    
C8    C11   A    
C6    C23   S    
C10   C12   A    
C15   H3    S    
C19   C21   A    
C24   C26   A    
C14   N1    A    
C22   C24   A    
C10   H20   S    
C21   C23   A    
C14   H22   S    
C13   N2    A    
C9    H19   S    
N3    H16   S    
C4    C6    A    
C25   C27   A    
C18   O8    A    
C16   N2    A    
C4    C32   A    
C19   C29   A    
C17   O7    A    
C23   C25   A    
C20   H6    S    
C28   H10   S    
N1    Zn1   S    
C3    C18   S    
C8    C10   A    
C13   H21   S    
O7    Zn2   S    
C31   N3    S    
O2    Zn2   S    
C30   H2    S    
O8    Zn1   S    
C5    C24   S    
C2    C11   S    
C2    O4    A    
O5    Zn1   S    
C2    O2    A    
C1    O3    A    
C1    O1    A    
O6    Zn2   S    
C29   H1    S    
C20   C22   A    
C3    C5    A    
C15   N1    A    
C4    C17   S    
