data_mof_unit_4673.cif
_audit_creation_date              2012-12-10T18:20:40-0500
_audit_creation_method            fapswitch 2.2
_symmetry_space_group_name_H-M    P1
_symmetry_Int_Tables_number       1
_space_group_crystal_system       triclinic
_cell_length_a                    14.010398
_cell_length_b                    13.629731
_cell_length_c                    14.924132
_cell_angle_alpha                 89.923549
_cell_angle_beta                  89.899934
_cell_angle_gamma                 82.975726
_cell_volume                      2828.48564053

loop_
_atom_site_label
_atom_site_type_symbol
_atom_type_description
_atom_site_fract_x
_atom_site_fract_y
_atom_site_fract_z
_atom_type_partial_charge
C1    C     C_R   0.499702 0.502431 0.326158 0.880670
C2    C     C_R   0.661900 0.567527 0.952634 0.422743
C3    C     C_R   0.804233 0.448031 0.564125 -0.020536
C4    C     C_R   0.195767 0.552180 0.436016 -0.016689
C5    C     C_R   0.791817 0.552771 0.436330 -0.019221
C6    C     C_R   0.208118 0.448127 0.564281 -0.028092
C7    C     C_R   0.892451 0.554671 0.434754 -0.084182
C8    C     C_R   0.107452 0.446670 0.566206 -0.089947
C9    C     C_R   0.949357 0.500570 0.500210 0.006361
C10   C     C_R   0.050588 0.500342 0.500461 0.009435
C11   C     C_R   0.904925 0.447069 0.565741 -0.027710
C12   C     C_R   0.499658 0.501546 0.673861 0.878744
C13   C     C_R   0.095029 0.553761 0.434856 -0.022185
C14   C     C_R   0.937302 0.609855 0.370357 0.558252
C15   C     C_R   0.062530 0.392611 0.631424 0.531501
C16   C     C_R   0.517168 0.314076 0.500058 0.911304
C17   C     C_R   0.482834 0.685922 0.499935 0.898221
C18   C     C_R   0.038168 0.607564 0.369910 -0.300456
C19   C     C_R   0.961695 0.394283 0.631390 -0.295849
C20   C     C_1   0.469683 0.789678 0.499992 -0.192216
C21   C     C_1   0.530330 0.210309 0.499954 -0.184066
C22   C     C_2   0.458526 0.981273 0.500207 -0.160676
C23   C     C_R   0.490671 0.545347 0.953392 -0.071132
C24   C     C_2   0.541515 0.018705 0.499649 -0.163438
C25   C     C_1   0.538822 0.122534 0.499816 0.008106
C26   C     C_1   0.461208 0.877449 0.500084 0.000476
C27   C     C_R   0.580327 0.533008 0.814770 -0.184735
C28   C     C_R   0.410019 0.517409 0.185185 -0.185249
C29   C     C_R   0.497335 0.514132 0.769838 -0.108495
C30   C     C_R   0.497149 0.517154 0.230361 -0.106048
C31   C     C_R   0.410390 0.513826 0.815448 -0.176336
C32   C     C_R   0.579889 0.537011 0.185165 -0.183936
C33   C     C_R   0.405556 0.530616 0.907140 -0.048300
C34   C     C_R   0.490424 0.547021 0.046703 -0.069560
C35   C     C_R   0.577402 0.553312 0.093208 -0.045207
C36   C     C_3   0.188906 0.602053 0.875161 -0.262783
C37   C     C_3   0.741038 0.679560 0.123370 -0.238522
C38   C     C_3   0.194348 0.616323 0.126670 -0.294725
C39   C     C_3   0.752549 0.666722 0.875493 -0.302750
C40   C     C_3   0.869134 0.762705 0.330123 -0.401232
C41   C     C_3   0.130869 0.241506 0.676695 -0.313635
C42   C     C_R   0.577938 0.549727 0.906583 -0.044313
C43   C     C_R   0.405000 0.534139 0.093523 -0.044881
C44   C     C_R   0.317946 0.529355 0.953623 0.416791
C45   C     C_R   0.661283 0.570554 0.046294 0.418545
C46   C     C_R   0.317413 0.532527 0.047263 0.424472
H1    H     H_    0.610365 0.972210 0.499053 0.154015
H2    H     H_    0.238225 0.643466 0.835480 0.125394
H3    H     H_    0.155511 0.649186 0.930068 0.162646
H4    H     H_    0.705595 0.685767 0.190026 0.167637
H5    H     H_    0.703267 0.735898 0.077324 0.100111
H6    H     H_    0.815406 0.698066 0.131690 0.226558
H7    H     H_    0.118413 0.612960 0.146295 0.213318
H8    H     H_    0.194859 0.676873 0.076641 0.130947
H9    H     H_    0.233645 0.635064 0.187604 0.140375
H10   H     H_    0.762337 0.717974 0.931492 0.167511
H11   H     H_    0.688150 0.695338 0.835374 0.137644
H12   H     H_    0.389677 0.027768 0.500808 0.156429
H13   H     H_    0.816136 0.665570 0.830944 0.195771
H14   H     H_    0.768799 0.407224 0.613875 0.135313
H15   H     H_    0.231217 0.592829 0.386142 0.123748
H16   H     H_    0.746274 0.593546 0.387020 0.168700
H17   H     H_    0.253656 0.407678 0.613770 0.176692
H18   H     H_    0.822393 0.804450 0.279622 0.189742
H19   H     H_    0.938352 0.794943 0.331620 0.176482
H20   H     H_    0.831962 0.772792 0.396105 0.168190
H21   H     H_    0.177405 0.202039 0.728646 0.204770
H22   H     H_    0.168446 0.228901 0.611120 0.149710
H23   H     H_    0.646955 0.533925 0.778005 0.196281
H24   H     H_    0.061786 0.208983 0.676170 0.161775
H25   H     H_    0.346676 0.501329 0.221356 0.195255
H26   H     H_    0.346628 0.499247 0.779315 0.201151
H27   H     H_    0.646727 0.536838 0.221517 0.196129
H28   H     H_    0.071751 0.648472 0.318869 0.147317
H29   H     H_    0.927999 0.354136 0.682916 0.169592
H30   H     H_    0.130323 0.585693 0.829700 0.207046
N1    N     N_R   0.750030 0.500040 0.500070 -0.114007
N2    N     N_R   0.249970 0.499960 0.499930 -0.112954
O1    O     O_R   0.580280 0.500020 0.367860 -0.625515
O2    O     O_3   0.745965 0.581796 0.090621 -0.558688
O3    O     O_3   0.232406 0.523127 0.092209 -0.558281
O4    O     O_3   0.748022 0.569958 0.907498 -0.563012
O5    O     O_3   0.883240 0.662325 0.304874 -0.615627
O6    O     O_3   0.116357 0.342807 0.698612 -0.591471
O7    O     O_R   0.419720 0.499980 0.632140 -0.629710
O8    O     O_R   0.419730 0.500030 0.367840 -0.628172
O9    O     O_R   0.580270 0.499970 0.632160 -0.628824
O10   O     O_R   0.591830 0.359650 0.500030 -0.607034
O11   O     O_R   0.408170 0.640350 0.499970 -0.612477
O12   O     O_R   0.431280 0.359660 0.500010 -0.609070
O13   O     O_R   0.568720 0.640340 0.499990 -0.615869
O14   O     O_3   0.235061 0.511847 0.909065 -0.549468
Zn1   Zn    Zn3+2 0.607200 0.499990 0.500020 0.948157
Zn2   Zn    Zn3+2 0.392800 0.500010 0.499980 0.947256

loop_
_geom_bond_atom_site_label_1
_geom_bond_atom_site_label_2
_ccdc_geom_bond_type
C16   O12   A    
C16   C21   S    
C12   C29   S    
C27   C29   A    
C14   C18   A    
C17   O13   A    
C19   H29   S    
C41   H21   S    
C15   C19   A    
C11   C19   A    
C23   C42   A    
C12   O7    A    
N2    Zn2   S    
O1    Zn1   S    
C37   H5    S    
C6    N2    A    
C39   H11   S    
O11   Zn2   S    
C17   C20   S    
C34   C35   A    
C4    C13   A    
C36   H30   S    
C7    C14   A    
C38   H9    S    
C23   C33   A    
C31   C33   A    
O8    Zn2   S    
C9    C10   A    
C44   O14   S    
C3    H14   S    
C36   O14   S    
C18   H28   S    
C40   H20   S    
C24   H1    S    
C40   O5    S    
C14   O5    S    
C44   C46   A    
O12   Zn2   S    
C41   H22   S    
C2    C45   A    
C37   O2    S    
C32   C35   A    
C17   O11   A    
C24   C25   S    
C32   H27   S    
C5    C7    A    
C37   H6    S    
C6    C8    A    
C41   O6    S    
C4    H15   S    
C6    H17   S    
C4    N2    A    
O13   Zn1   S    
C46   O3    S    
O7    Zn2   S    
C39   H10   S    
C38   H8    S    
C23   C34   A    
C39   H13   S    
C9    C11   A    
C13   C18   A    
C31   H26   S    
C8    C15   A    
C40   H19   S    
C38   O3    S    
C1    O1    A    
C22   C24   D    
C2    O4    S    
C28   H25   S    
C5    N1    A    
C35   C45   A    
C1    O8    A    
C7    C9    A    
C21   C25   T    
O10   Zn1   S    
C12   O9    A    
C33   C44   A    
C34   C43   A    
C39   O4    S    
C10   C13   A    
C27   H23   S    
C22   H12   S    
C15   O6    S    
C28   C43   A    
C40   H18   S    
C28   C30   A    
C29   C31   A    
C30   C32   A    
C37   H4    S    
C27   C42   A    
C38   H7    S    
C20   C26   T    
C2    C42   A    
O9    Zn1   S    
N1    Zn1   S    
C1    C30   S    
C5    H16   S    
C36   H2    S    
C45   O2    S    
C43   C46   A    
C3    C11   A    
C8    C10   A    
C22   C26   S    
C16   O10   A    
C36   H3    S    
C41   H24   S    
C3    N1    A    
