data_mof_unit_2264.cif
_audit_creation_date              2012-12-10T19:47:37-0500
_audit_creation_method            fapswitch 2.2
_symmetry_space_group_name_H-M    P1
_symmetry_Int_Tables_number       1
_space_group_crystal_system       triclinic
_cell_length_a                    18.884284
_cell_length_b                    18.782794
_cell_length_c                    18.671534
_cell_angle_alpha                 118.747898
_cell_angle_beta                  89.826698
_cell_angle_gamma                 121.216395
_cell_volume                      4690.38163921

loop_
_atom_site_label
_atom_site_type_symbol
_atom_type_description
_atom_site_fract_x
_atom_site_fract_y
_atom_site_fract_z
_atom_type_partial_charge
C1    C     C_R   0.640972 0.780518 0.639419 0.552714
C2    C     C_R   0.212110 0.955691 0.153675 0.181125
C3    C     C_R   0.188126 0.894423 0.188357 -0.016880
C4    C     C_R   0.358571 0.220761 0.360287 0.539215
C5    C     C_R   0.201401 0.945229 0.277317 -0.026221
C6    C     C_3   0.131103 0.945636 0.314699 -0.000256
C7    C     C_3   0.196107 0.056448 0.381327 0.251214
C8    C     C_R   0.781670 0.557811 0.329055 -0.058239
C9    C     C_R   0.692393 0.484326 0.301365 -0.017453
C10   C     C_R   0.657542 0.396113 0.215067 0.062812
C11   C     C_R   0.713733 0.391573 0.162418 0.175114
C12   C     C_3   0.636493 0.372364 0.677925 0.182335
C13   C     C_R   0.801674 0.478683 0.192008 0.007884
C14   C     C_R   0.832386 0.554671 0.277603 -0.066577
C15   C     C_3   0.913447 0.651833 0.345340 0.307951
C16   C     C_R   0.361283 0.499556 0.640796 0.541406
C17   C     C_3   0.852501 0.664472 0.397256 0.302625
C18   C     C_R   0.789363 0.958198 0.739433 0.010637
C19   C     C_R   0.697898 0.894753 0.697324 0.030166
C20   C     C_R   0.660984 0.948809 0.716340 0.075425
C21   C     C_R   0.709421 0.053386 0.780131 0.104526
C22   C     C_R   0.801999 0.112567 0.813025 0.030680
C23   C     C_3   0.692458 0.488007 0.695082 -0.169517
C24   C     C_R   0.838305 0.061150 0.790491 -0.045218
C25   C     C_3   0.924478 0.082458 0.817252 0.281847
C26   C     C_3   0.873333 0.968300 0.745585 0.371247
C27   C     C_R   0.291557 0.577188 0.335427 -0.011221
C28   C     C_R   0.639400 0.497087 0.359896 0.513950
C29   C     C_R   0.317990 0.512981 0.301887 -0.015989
C30   C     C_R   0.303470 0.461406 0.211855 0.230004
C31   C     C_R   0.236632 0.443995 0.156798 0.115268
C32   C     C_R   0.203278 0.502671 0.191856 0.002277
C33   C     C_R   0.240446 0.576292 0.280035 -0.034839
C34   C     C_3   0.794003 0.488741 0.798832 -0.154521
C35   C     C_3   0.300038 0.687894 0.321817 0.291155
C36   C     C_3   0.351307 0.690300 0.387959 0.279881
C37   C     C_R   0.300624 0.579261 0.740288 -0.089440
C38   C     C_R   0.314338 0.505650 0.705301 -0.006215
C39   C     C_R   0.285852 0.445933 0.740463 0.175426
C40   C     C_R   0.363538 0.503933 0.359231 0.546784
C41   C     C_R   0.248657 0.465363 0.807375 0.079577
C42   C     C_R   0.214718 0.521015 0.822969 0.008477
C43   C     C_R   0.251139 0.585218 0.793815 -0.006541
C44   C     C_3   0.258807 0.667433 0.791457 0.398226
C45   C     C_3   0.781183 0.575081 0.863728 0.178907
C46   C     C_3   0.308117 0.653028 0.724886 0.173589
C47   C     C_R   0.859621 0.493205 0.138487 0.557937
C48   C     C_R   0.145414 0.506837 0.865835 0.561407
C49   C     C_R   0.138243 0.780659 0.138068 0.563223
C50   C     C_R   0.859734 0.222016 0.863659 0.545589
C51   C     C_R   0.141383 0.499877 0.139567 0.563542
C52   C     C_R   0.639869 0.496615 0.639851 0.618061
C53   C     C_R   0.857819 0.496163 0.856514 0.609398
C54   C     C_3   0.778319 0.505944 0.663270 0.200276
C55   C     C_3   0.839708 0.509722 0.727021 0.156995
C56   C     C_3   0.695707 0.374949 0.744830 0.192252
C57   C     C_3   0.719332 0.575993 0.803252 0.242957
C58   C     C_R   0.258963 0.051168 0.334055 0.038037
C59   C     C_R   0.296498 0.109611 0.301263 -0.027683
C60   C     C_R   0.257248 0.061680 0.212059 0.101771
H1    H     H_    0.113712 0.906386 0.345902 0.244915
H2    H     H_    0.006463 0.785899 0.603860 0.404846
H3    H     H_    0.874191 0.097582 0.014405 0.389388
H4    H     H_    0.987652 0.939690 0.586105 0.412774
H5    H     H_    0.950388 0.437772 0.574413 0.409560
H6    H     H_    0.879815 0.932497 0.908058 0.392306
H7    H     H_    0.518497 0.506016 0.222465 0.375805
H8    H     H_    0.414284 0.669752 0.159005 0.399135
H9    H     H_    0.218879 0.709330 0.530947 0.400411
H10   H     H_    0.172838 0.262274 0.578167 0.353486
H11   H     H_    0.058903 0.586466 0.802310 0.406808
H12   H     H_    0.520316 0.154174 0.747217 0.394731
H13   H     H_    0.308855 0.825052 0.026284 0.384479
H14   H     H_    0.915107 0.830088 0.886044 0.386622
H15   H     H_    0.507433 0.114430 0.555477 0.395980
H16   H     H_    0.586039 0.652963 0.932406 0.379929
H17   H     H_    0.821412 0.606328 0.077689 0.385984
H18   H     H_    0.090945 0.758088 0.950660 0.385565
H19   H     H_    0.275741 0.022420 0.533474 0.400168
H20   H     H_    0.702783 0.414983 0.429694 0.368519
H21   H     H_    0.578171 0.278835 0.008521 0.363094
H22   H     H_    0.101643 0.791886 0.363826 0.370031
I1    I     I_    0.852225 0.640141 0.657388 0.196454
I2    I     I_    0.039307 0.181734 0.798004 0.064364
I3    I     I_    0.191212 0.325687 0.024432 0.085284
I4    I     I_    0.237913 0.763231 0.365685 0.006501
I5    I     I_    0.488008 0.749130 0.398917 -0.005546
I6    I     I_    0.283594 0.453276 0.907484 -0.035192
I7    I     I_    0.969926 0.656251 0.791420 0.029950
I8    I     I_    0.236287 0.573678 0.588745 -0.018927
I9    I     I_    0.440820 0.777645 0.758617 -0.000552
I10   I     I_    0.908241 0.724863 0.960513 -0.017407
I11   I     I_    0.501542 0.318870 0.681644 0.219384
I12   I     I_    0.236539 0.142719 0.171308 0.020443
I13   I     I_    0.725920 0.262911 0.694252 0.040255
I14   I     I_    0.018458 0.895347 0.222592 -0.056651
I15   I     I_    0.159665 0.151709 0.387595 -0.158065
I16   I     I_    0.520621 0.270007 0.161009 -0.035336
I17   I     I_    0.996211 0.614850 0.376752 -0.046238
I18   I     I_    0.805727 0.747035 0.393001 0.015618
I19   I     I_    0.552924 0.896194 0.626624 -0.037103
I20   I     I_    0.635372 0.111061 0.828367 0.062254
O1    O     O_3   0.500000 0.500000 0.500000 -0.543286
O2    O     O_R   0.945140 0.268320 0.884430 -0.508198
O3    O     O_R   0.116800 0.560590 0.177500 -0.507856
O4    O     O_R   0.676800 0.731580 0.616070 -0.451810
O5    O     O_R   0.822390 0.439230 0.883130 -0.450110
O6    O     O_R   0.116800 0.439160 0.056060 -0.496033
O7    O     O_R   0.943840 0.560660 0.883130 -0.537555
O8    O     O_R   0.115490 0.731510 0.054770 -0.518100
O9    O     O_R   0.823160 0.268340 0.883890 -0.501418
O10   O     O_R   0.945140 0.560620 0.176740 -0.476093
O11   O     O_R   0.116030 0.439190 0.884430 -0.524037
O12   O     O_R   0.384470 0.439280 0.616070 -0.454088
O13   O     O_R   0.384470 0.268410 0.445190 -0.475507
O14   O     O_R   0.383920 0.560720 0.615530 -0.528609
O15   O     O_R   0.554810 0.439290 0.323210 -0.521060
O16   O     O_R   0.383160 0.560750 0.443890 -0.496730
O17   O     O_R   0.677560 0.560680 0.616830 -0.434460
O18   O     O_R   0.383160 0.439320 0.322450 -0.478017
O19   O     O_R   0.556120 0.439250 0.616830 -0.476169
O20   O     O_2   0.674010 0.320063 0.866219 -0.167821
O21   O     O_2   0.562123 0.333641 0.829489 -0.164045
O22   O     O_3   0.554852 0.185450 0.717856 -0.502222
O23   O     O_R   0.676800 0.560710 0.445190 -0.468520
O24   O     O_2   0.557051 0.541853 0.769342 -0.272785
O25   O     O_2   0.574227 0.485356 0.856384 -0.171789
O26   O     O_3   0.643776 0.667136 0.928545 -0.372293
O27   O     O_2   0.753608 0.667321 0.018270 -0.153784
O28   O     O_2   0.672731 0.491564 0.952587 -0.145697
O29   O     O_3   0.833956 0.592606 0.022815 -0.517172
O30   O     O_2   0.110917 0.918643 0.022123 -0.245613
O31   O     O_2   0.262964 0.984730 0.030729 -0.150573
O32   O     O_3   0.155552 0.799943 0.969543 -0.376655
O33   O     O_2   0.315675 0.186809 0.540428 -0.146001
O34   O     O_R   0.554810 0.731590 0.615530 -0.514866
O35   O     O_2   0.163293 0.072805 0.527518 -0.170648
O36   O     O_3   0.252886 0.000830 0.473741 -0.512647
O37   O     O_2   0.846542 0.472659 0.525751 -0.180030
O38   O     O_2   0.718391 0.322196 0.490175 -0.131850
O39   O     O_3   0.699676 0.443908 0.489095 -0.496870
O40   O     O_2   0.751599 0.272762 0.042451 -0.235299
O41   O     O_2   0.617440 0.187303 0.070076 -0.187976
O42   O     O_3   0.620326 0.265424 0.985888 -0.417127
O43   O     O_2   0.913198 0.715004 0.243666 -0.270536
O44   O     O_2   0.997774 0.844049 0.398676 -0.256763
O45   O     O_R   0.383920 0.268420 0.323210 -0.520663
O46   O     O_3   0.059221 0.748869 0.305096 -0.485834
O47   O     O_2   0.832361 0.712547 0.550440 -0.152005
O48   O     O_2   0.868970 0.593338 0.482111 -0.245582
O49   O     O_3   0.992583 0.782702 0.550825 -0.462223
O50   O     O_2   0.006821 0.102054 0.953139 -0.231217
O51   O     O_2   0.993272 0.236066 0.988017 -0.259924
O52   O     O_3   0.854926 0.071494 0.952508 -0.487552
O53   O     O_2   0.804846 0.838311 0.574671 -0.227676
O54   O     O_2   0.896594 0.012426 0.623846 -0.277116
O55   O     O_3   0.974590 0.936187 0.636209 -0.411910
O56   O     O_3   0.999960 0.499910 0.999960 -0.530111
O57   O     O_2   0.925052 0.424160 0.723999 -0.305272
O58   O     O_2   0.812696 0.330886 0.589994 -0.177324
O59   O     O_3   0.954511 0.492121 0.627880 -0.393512
O60   O     O_2   0.820515 0.789683 0.701996 -0.135763
O61   O     O_2   0.968425 0.928290 0.804502 -0.203571
O62   O     O_3   0.832830 0.903010 0.857568 -0.424187
O63   O     O_2   0.352343 0.338138 0.137438 -0.211449
O64   O     O_2   0.394075 0.458899 0.098802 -0.197129
O65   O     O_3   0.481152 0.526309 0.248862 -0.493570
O66   O     O_2   0.294316 0.705889 0.186348 -0.287909
O67   O     O_R   0.823160 0.439210 0.054770 -0.455846
O68   O     O_2   0.432323 0.831534 0.306415 -0.187205
O69   O     O_3   0.392691 0.652652 0.200770 -0.504383
O70   O     O_2   0.369607 0.712730 0.541688 -0.214820
O71   O     O_2   0.374225 0.844353 0.538640 -0.229990
O72   O     O_3   0.223789 0.671190 0.474249 -0.490505
O73   O     O_2   0.364227 0.357221 0.711511 -0.144981
O74   O     O_2   0.216918 0.266809 0.719041 -0.197557
O75   O     O_3   0.230339 0.273184 0.584627 -0.444252
O76   O     O_2   0.161556 0.692220 0.712538 -0.172498
O77   O     O_2   0.099181 0.521380 0.676205 -0.289751
O78   O     O_R   0.115490 0.560640 0.883890 -0.491504
O79   O     O_3   0.114424 0.652506 0.825484 -0.418737
O80   O     O_2   0.411131 0.814621 0.929357 -0.256345
O81   O     O_2   0.323200 0.864035 0.899406 -0.135570
O82   O     O_3   0.270430 0.761272 0.968744 -0.446340
O83   O     O_2   0.718940 0.704939 0.774266 -0.187153
O84   O     O_2   0.784143 0.774356 0.922918 -0.179157
O85   O     O_3   0.878327 0.763665 0.830343 -0.473206
O86   O     O_2   0.564732 0.276493 0.502455 -0.210039
O87   O     O_2   0.641004 0.218975 0.537782 -0.177076
O88   O     O_3   0.491493 0.153112 0.547015 -0.425846
O89   O     O_R   0.116030 0.731490 0.176740 -0.452503
S1    S     S_3+6 0.623959 0.309766 0.795483 0.125678
S2    S     S_3+6 0.948186 0.124895 0.930573 0.056711
S3    S     S_3+6 0.886880 0.938284 0.641623 0.096255
S4    S     S_3+6 0.880690 0.434544 0.666822 0.091647
S5    S     S_3+6 0.876193 0.895571 0.777754 0.160590
S6    S     S_3+6 0.382697 0.443236 0.170928 0.112591
S7    S     S_3+6 0.356154 0.722142 0.252534 0.050525
S8    S     S_3+6 0.332180 0.733539 0.490016 0.076374
S9    S     S_3+6 0.275214 0.333230 0.690645 0.131347
S10   S     S_3+6 0.155493 0.631883 0.746585 0.129591
S11   S     S_3+6 0.319609 0.781976 0.898918 0.136250
S12   S     S_3+6 0.621300 0.563413 0.837303 0.144954
S13   S     S_3+6 0.775002 0.705498 0.831551 0.116527
S14   S     S_3+6 0.586594 0.256912 0.565319 0.139494
S15   S     S_3+6 0.755150 0.578037 0.962387 0.140627
S16   S     S_3+6 0.184567 0.913758 0.042792 0.109913
S17   S     S_3+6 0.232691 0.082462 0.485237 0.121603
S18   S     S_3+6 0.760220 0.431677 0.542017 0.149933
S19   S     S_3+6 0.676128 0.275695 0.064416 0.104567
S20   S     S_3+6 0.970060 0.743491 0.322301 0.040075
S21   S     S_3+6 0.885417 0.687668 0.498358 0.105205
Zn1   Zn    Zn3+2 0.457010 0.413240 0.543760 1.122575
Zn2   Zn    Zn3+2 0.456230 0.586760 0.542990 1.037465
Zn3   Zn    Zn3+2 0.456230 0.413270 0.369490 1.036075
Zn4   Zn    Zn3+2 0.630520 0.586730 0.543760 1.137223
Zn5   Zn    Zn3+2 0.042950 0.586670 0.956190 1.051003
Zn6   Zn    Zn3+2 0.043720 0.586650 0.130470 1.077530
Zn7   Zn    Zn3+2 0.043720 0.413150 0.956960 1.051723
Zn8   Zn    Zn3+2 0.869430 0.413180 0.956190 1.120319

loop_
_geom_bond_atom_site_label_1
_geom_bond_atom_site_label_2
_ccdc_geom_bond_type
C56   I13   S    
C40   O16   A    
C39   S9    S    
C56   S1    S    
C34   C56   S    
C45   S15   S    
C31   I3    S    
O39   S18   S    
C27   C29   A    
C41   C42   A    
H11   O79   S    
C4    O13   A    
C55   S4    S    
C35   C36   S    
C18   C26   S    
O47   S21   D    
C48   O78   A    
C17   S21   S    
C26   S5    S    
O42   S19   S    
O44   S20   D    
C3    C49   S    
O2    Zn7   S    
C27   C33   A    
O18   Zn3   S    
O57   S4    D    
C12   C23   S    
O13   Zn1   S    
O72   S8    S    
C29   C30   A    
O66   S7    D    
C5    C58   A    
C18   C24   A    
C6    H1    S    
O69   S7    S    
O45   Zn3   S    
C28   O15   A    
C11   S19   S    
C30   C31   A    
C35   I4    S    
C2    C60   A    
O71   S8    D    
C53   O7    A    
C47   O10   A    
O59   S4    S    
O70   S8    D    
C10   I16   S    
C18   C19   A    
H17   O29   S    
O67   Zn8   S    
O15   Zn3   S    
C45   I10   S    
C15   S20   S    
C33   C35   S    
O52   S2    S    
H21   O42   S    
O77   S10   D    
O87   S14   D    
C8    C9    A    
O75   S9    S    
H4    O55   S    
C25   I2    S    
H8    O69   S    
C36   S8    S    
C30   S6    S    
C1    O34   A    
C9    C10   A    
O1    Zn1   S    
C7    C58   S    
O19   Zn1   S    
O56   Zn6   S    
C1    O4    A    
C22   C50   S    
O32   S16   S    
C59   C60   A    
C13   C14   A    
H12   O22   S    
C44   S11   S    
O6    Zn7   S    
O12   Zn1   S    
O78   Zn5   S    
O74   S9    D    
C16   O14   A    
O89   Zn6   S    
C54   I1    S    
C47   O67   A    
C44   C46   S    
O38   S18   D    
O41   S19   D    
O34   Zn2   S    
C54   S18   S    
C36   I5    S    
C38   C39   A    
O86   S14   D    
C1    C19   S    
O82   S11   S    
H2    O49   S    
H6    O62   S    
O55   S3    S    
H15   O88   S    
C24   C25   S    
O14   Zn2   S    
O49   S21   S    
O46   S20   S    
C13   C47   S    
H13   O82   S    
O36   S17   S    
O56   Zn7   S    
C49   O89   A    
C20   I19   S    
O68   S7    D    
C58   C59   A    
C4    O45   A    
O85   S13   S    
O37   S18   D    
C48   O11   A    
O26   S12   S    
O48   S21   D    
C37   C43   A    
O54   S3    D    
C43   C44   S    
C32   C51   S    
C37   C38   A    
O28   S15   D    
O63   S6    D    
C52   O19   A    
C53   O5    A    
O88   S14   S    
C31   C32   A    
C51   O3    A    
C45   C57   S    
C57   S12   S    
C46   I9    S    
O65   S6    S    
O84   S13   D    
O16   Zn2   S    
C34   C45   S    
C42   C48   S    
H18   O32   S    
O1    Zn2   S    
C12   C56   S    
O30   S16   D    
O58   S4    D    
C23   C57   S    
C21   I20   S    
O50   S2    D    
C40   O18   A    
C51   O6    A    
C6    I14   S    
O8    Zn5   S    
C44   S10   S    
H16   O26   S    
C22   C24   A    
C12   I11   S    
O9    Zn8   S    
O40   S19   D    
H5    O59   S    
C26   S3    S    
O1    Zn3   S    
O22   S1    S    
C25   S2    S    
C28   O23   A    
O83   S13   D    
C23   C54   S    
H14   O85   S    
H7    O65   S    
C15   C17   S    
C41   I6    S    
C54   C55   S    
C8    C14   A    
C7    I15   S    
O80   S11   D    
O81   S11   D    
O79   S10   S    
H3    O52   S    
C15   I17   S    
C7    S17   S    
C3    C5    A    
C16   O12   A    
H22   O46   S    
O62   S5    S    
H10   O75   S    
O20   S1    D    
C6    C7    S    
C46   I8    S    
O24   S12   D    
O31   S16   D    
O4    Zn4   S    
C8    C17   S    
C27   C36   S    
C32   C33   A    
C19   C20   A    
C57   S13   S    
C2    C3    A    
C25   C26   S    
O64   S6    D    
C55   I7    S    
O53   S3    D    
C12   S14   S    
O27   S15   D    
C11   C13   A    
C23   C52   S    
C5    C6    S    
O61   S5    D    
O21   S1    D    
O56   Zn5   S    
H20   O39   S    
C4    C59   S    
C50   O9    A    
O23   Zn4   S    
C17   I18   S    
O73   S9    D    
H9    O72   S    
O7    Zn5   S    
C10   C11   A    
C35   S7    S    
O5    Zn8   S    
C52   O17   A    
O17   Zn4   S    
H19   O36   S    
O51   S2    D    
C20   C21   A    
C39   C41   A    
C34   C53   S    
O56   Zn8   S    
O3    Zn6   S    
C42   C43   A    
O76   S10   D    
O60   S5    D    
O10   Zn6   S    
C14   C15   S    
C49   O8    A    
C34   C55   S    
C2    S16   S    
C29   C40   S    
C37   C46   S    
C21   C22   A    
O29   S15   S    
O25   S12   D    
O1    Zn4   S    
O11   Zn7   S    
C50   O2    A    
C9    C28   S    
C16   C38   S    
O33   S17   D    
O43   S20   D    
O35   S17   D    
C60   I12   S    
