data_mof_unit_3206.cif
_audit_creation_date              2013-03-05T15:45:35-0500
_audit_creation_method            fapswitch 2.2
_symmetry_space_group_name_H-M    P1
_symmetry_Int_Tables_number       1
_space_group_crystal_system       triclinic
_cell_length_a                    8.336399
_cell_length_b                    14.618497
_cell_length_c                    19.127001
_cell_angle_alpha                 93.015354
_cell_angle_beta                  94.4061
_cell_angle_gamma                 91.09239
_cell_volume                      2320.19234363

loop_
_atom_site_label
_atom_site_type_symbol
_atom_site_description
_atom_site_fract_x
_atom_site_fract_y
_atom_site_fract_z
_atom_type_partial_charge
P1    P     P_3+3 0.937730 0.712710 0.546710 0.469510
O1    O     O_2   0.108370 0.727470 0.525290 -0.325155
O2    O     O_3   0.865330 0.611210 0.531230 -0.476090
O3    O     O_3   0.346360 0.671710 0.401620 -0.423682
O4    O     O_2   0.252925 0.834024 0.452861 -0.328615
O5    O     O_3   0.954342 0.753298 0.636207 -0.561384
O6    O     O_3   0.302717 0.832676 0.321736 -0.505516
H1    H     H_    0.235801 0.704020 0.278228 0.173428
C1    C     C_3   0.263139 0.799869 0.198472 -0.792859
H2    H     H_    0.244089 0.742297 0.158177 0.233130
H3    H     H_    0.148886 0.836980 0.201286 0.259727
P2    P     P_3+3 0.357970 0.428340 0.344000 0.533178
P3    P     P_3+3 0.901632 0.623481 0.277589 0.469570
O7    O     O_2   0.182890 0.456530 0.332150 -0.307877
O8    O     O_3   0.933230 0.625130 0.368420 -0.342167
O9    O     O_2   0.043367 0.571201 0.248380 -0.419619
O10   O     O_3   0.339560 0.308883 0.329857 -0.567271
O11   O     O_3   0.934460 0.735730 0.253666 -0.513538
C2    C     C_3   0.800335 0.787700 0.268250 0.233150
H4    H     H_    0.782229 0.789293 0.325135 0.073383
H5    H     H_    0.692123 0.758229 0.237702 0.122603
C3    C     C_3   0.827704 0.885502 0.246560 -0.591918
H6    H     H_    0.920268 0.920930 0.283890 0.226650
H7    H     H_    0.872383 0.883591 0.193177 0.229730
C4    C     C_3   0.838253 0.269681 0.305750 1.036625
C5    C     C_3   0.792607 0.185866 0.254042 -1.110139
H8    H     H_    0.704340 0.140124 0.276844 0.247556
H9    H     H_    0.736957 0.205387 0.202584 0.231128
H10   H     H_    0.901914 0.145765 0.244597 0.281581
Ba1   Ba    Ba6+2 0.150350 0.545800 0.464500 1.604823
C6    C     C_3   0.957887 0.686906 0.686116 0.299455
H11   H     H_    0.076971 0.655483 0.688774 -0.101317
H12   H     H_    0.853292 0.640203 0.675623 0.115441
C7    C     C_3   0.949965 0.730870 0.759801 0.197610
H13   H     H_    0.041011 0.787994 0.768007 0.057823
H14   H     H_    0.982817 0.678173 0.798173 0.039943
C8    C     C_3   0.316889 0.267123 0.392987 0.308743
H15   H     H_    0.193380 0.279237 0.408027 0.099897
H16   H     H_    0.404189 0.293418 0.436320 0.150929
C9    C     C_3   0.344296 0.164361 0.382452 -0.733543
H17   H     H_    0.338223 0.131362 0.433064 0.211564
H18   H     H_    0.466605 0.154178 0.364512 0.174944
P4    P     P_3+3 0.872570 0.287280 0.453240 0.522983
O12   O     O_2   0.701930 0.272470 0.474700 -0.372109
O13   O     O_3   0.944970 0.388780 0.468720 -0.389639
O14   O     O_3   0.463940 0.328280 0.598320 -0.346191
O15   O     O_3   0.883214 0.229882 0.369511 -0.627162
P5    P     P_3+3 0.905214 0.386287 0.724515 0.492794
O16   O     O_3   0.372010 0.546630 0.581240 -0.394821
O17   O     O_3   0.877070 0.374860 0.631520 -0.423673
O18   O     O_2   0.757754 0.435922 0.750682 -0.376880
O19   O     O_3   0.892322 0.277948 0.758404 -0.470785
Ba2   Ba    Ba6+2 0.659830 0.454190 0.535450 1.570747
P6    P     P_3+3 0.372183 0.792107 0.402752 0.448790
C10   C     C_3   0.315496 0.763018 0.269383 0.473858
H19   H     H_    0.440848 0.739167 0.268682 0.003585
H20   H     H_    0.356282 0.848362 0.182740 0.269974
O20   O     O_3   0.438280 0.453360 0.418700 -0.374721
C11   C     C_3   0.497426 0.732912 0.605821 0.451784
H21   H     H_    0.607454 0.704102 0.585238 0.071264
H22   H     H_    0.391749 0.713322 0.569097 0.138394
C12   C     C_3   0.511689 0.836827 0.610544 -0.935095
H23   H     H_    0.630904 0.859570 0.637076 0.249561
H24   H     H_    0.497562 0.865144 0.557838 0.237595
H25   H     H_    0.411358 0.864625 0.639574 0.281294
P7    P     P_3+3 0.452206 0.583003 0.666605 0.473253
O21   O     O_2   0.627420 0.543410 0.667830 -0.366744
O22   O     O_3   0.477592 0.702250 0.672958 -0.549462
C13   C     C_3   0.913868 0.212063 0.703884 0.614072
H26   H     H_    0.812072 0.213524 0.662797 0.133446
H27   H     H_    0.029493 0.224858 0.679948 0.009452
C14   C     C_3   0.917426 0.116819 0.732780 -1.002520
H28   H     H_    0.855942 0.066903 0.693086 0.209082
H29   H     H_    0.044535 0.096039 0.743504 0.249279
H30   H     H_    0.857113 0.115334 0.783123 0.283080
P8    P     P_3+3 0.442323 0.208369 0.599603 0.443420
C15   C     C_3   0.442217 0.193776 0.737105 1.027870
H31   H     H_    0.316370 0.214408 0.720647 -0.142948
O23   O     O_2   0.553135 0.168345 0.545343 -0.412972
O24   O     O_3   0.520729 0.160876 0.678083 -0.565268
C16   C     C_3   0.431113 0.117234 0.790464 0.145531
H32   H     H_    0.546261 0.122126 0.825241 0.056817
C17   C     C_R   0.009426 0.945819 0.542439 0.610610
C18   C     C_R   0.830471 0.805682 0.497636 0.368519
C19   C     C_R   0.687824 0.775436 0.459623 -0.526928
C20   C     C_R   0.577208 0.836488 0.432249 0.203224
C21   C     C_R   0.615772 0.930569 0.435260 -0.271792
C22   C     C_R   0.763391 0.965421 0.468297 0.002607
C23   C     C_R   0.870900 0.904241 0.503290 -0.152280
H33   H     H_    0.655085 0.703240 0.456604 0.164049
C24   C     C_R   0.939483 0.102196 0.504895 -0.026055
C25   C     C_R   0.048905 0.041146 0.537623 -0.102381
C26   C     C_R   0.979554 0.200384 0.508567 0.288409
C27   C     C_R   0.126113 0.230617 0.543413 -0.506118
C28   C     C_R   0.238352 0.168465 0.568463 0.207029
C29   C     C_R   0.201895 0.075286 0.563837 -0.244826
C30   C     C_R   0.798321 0.061679 0.469261 -0.099159
H34   H     H_    0.527796 0.977040 0.413528 0.162502
H35   H     H_    0.295577 0.029140 0.580779 0.198132
H36   H     H_    0.159967 0.302528 0.545003 0.190870
H37   H     H_    0.713763 0.104495 0.441406 0.167635
C31   C     C_R   0.598393 0.546618 0.297300 -0.356264
C32   C     C_R   0.458237 0.494278 0.276755 0.315175
C33   C     C_R   0.404048 0.487872 0.204818 -0.335840
C34   C     C_R   0.496757 0.527042 0.154072 0.079809
C35   C     C_R   0.653191 0.560662 0.175934 -0.224619
C36   C     C_R   0.702832 0.571960 0.247344 0.194325
C37   C     C_R   0.455440 0.606910 0.036519 -0.029589
C38   C     C_R   0.400646 0.601598 0.964912 -0.298847
C39   C     C_R   0.322920 0.522698 0.933099 0.208741
C40   C     C_R   0.300720 0.447351 0.974344 -0.175423
C41   C     C_R   0.355553 0.450733 0.045513 -0.211075
C42   C     C_R   0.434440 0.529510 0.078236 0.138743
C43   C     C_R   0.126569 0.469353 0.831764 -0.332491
C44   C     C_R   0.090168 0.450995 0.759681 0.137381
C45   C     C_R   0.330867 0.536853 0.734890 0.163508
C46   C     C_R   0.367810 0.555483 0.807144 -0.393122
C47   C     C_R   0.270119 0.517646 0.856527 0.025778
C48   C     C_R   0.196846 0.480949 0.712547 0.185822
H38   H     H_    0.476879 0.594248 0.824422 0.184265
H39   H     H_    0.415382 0.660764 0.933892 0.117752
H40   H     H_    0.290064 0.453432 0.188828 0.148139
H41   H     H_    0.244530 0.384394 0.951099 0.153048
H42   H     H_    0.339711 0.390098 0.074687 0.128774
H43   H     H_    0.046112 0.443404 0.868300 0.178261
H44   H     H_    0.733634 0.582171 0.137738 0.142641
H45   H     H_    0.634794 0.559252 0.352635 0.183579
O25   O     O_3   0.792841 0.760280 0.769908 -0.559533
C49   C     C_3   0.796417 0.819048 0.831051 -0.229431
H46   H     H_    0.836163 0.889225 0.818701 0.134346
H47   H     H_    0.875792 0.794686 0.875567 0.124501
H48   H     H_    0.673247 0.821753 0.849068 0.154413
C50   C     C_2   0.223247 0.119431 0.328814 0.710499
H49   H     H_    0.196441 0.150067 0.278944 0.046811
O26   O     O_2   0.157524 0.046972 0.339963 -0.578115
C51   C     C_2   0.675137 0.938189 0.246078 0.553524
H50   H     H_    0.614257 0.948587 0.293729 0.026128
O27   O     O_2   0.618552 0.969980 0.191997 -0.562174
O28   O     O_3   0.542288 0.264072 0.772084 -0.640956
C52   C     C_3   0.458867 0.345686 0.779569 -0.128601
H51   H     H_    0.339473 0.335317 0.799929 0.129018
H52   H     H_    0.448296 0.376642 0.727868 0.186063
H53   H     H_    0.528759 0.392723 0.818715 0.192434
C53   C     C_2   0.301778 0.131282 0.841060 0.381505
H54   H     H_    0.288035 0.081399 0.880322 0.059744
O29   O     O_2   0.212328 0.196437 0.839433 -0.605277
O30   O     O_3   0.403890 0.029669 0.755111 -0.640655
C54   C     C_3   0.533436 0.971628 0.774756 -0.219895
H55   H     H_    0.649605 0.001404 0.758757 0.162999
H56   H     H_    0.516283 0.901824 0.747997 0.201356
H57   H     H_    0.538441 0.961505 0.832608 0.113369
O31   O     O_3   0.109401 0.893907 0.584942 -0.578904
C55   C     C_3   0.096270 0.921947 0.656352 -0.165825
H58   H     H_    0.968793 0.921748 0.669944 0.139059
H59   H     H_    0.153354 0.989650 0.670837 0.152049
H60   H     H_    0.162931 0.873461 0.689762 0.182646
C56   C     C_2   0.528980 0.696333 0.063422 0.463566
H61   H     H_    0.573973 0.743284 0.026845 0.026950
O32   O     O_2   0.534462 0.721012 0.125366 -0.626459
O33   O     O_3   0.174972 0.450180 0.643769 -0.655779
C57   C     C_3   0.067147 0.509213 0.610840 0.152191
H62   H     H_    0.121884 0.574927 0.600239 0.118358
H63   H     H_    0.960144 0.522594 0.639151 0.064263
H64   H     H_    0.020971 0.475465 0.562290 0.215772
C58   C     C_2   0.696687 0.329571 0.311615 0.389739
H65   H     H_    0.590056 0.318212 0.275568 -0.014665
O34   O     O_2   0.706714 0.394968 0.353809 -0.556737
O35   O     O_3   0.972845 0.320555 0.284457 -0.584910
C59   C     C_3   0.950649 0.348265 0.214149 -0.201735
H66   H     H_    0.822137 0.356442 0.194832 0.067862
H67   H     H_    0.011518 0.299345 0.178424 0.144725
H68   H     H_    0.008908 0.416375 0.210454 0.204877

loop_
_geom_bond_atom_site_label_1
_geom_bond_atom_site_label_2
_geom_bond_distance
_ccdc_geom_bond_type
P7    O22   1.748724 S    
C10   H19   1.108733 S    
C58   H65   1.086871 S    
Ba2   O20   2.785769 S    
O2    Ba1   2.934814 S    
C59   H66   1.116808 S    
Ba1   O13   2.845631 S    
C28   C29   1.386737 A    
C54   H57   1.121793 S    
O6    C10   1.401514 S    
C21   C22   1.412804 A    
O25   C49   1.412290 S    
C39   C47   1.494178 S    
O14   P8    1.760382 S    
C16   H32   1.123955 S    
C15   H31   1.123385 S    
C37   C38   1.407792 A    
P1    C18   1.891908 S    
C17   C25   1.435067 A    
C5    H8    1.113555 S    
C56   H61   1.087299 S    
P7    C45   1.858465 S    
P3    O11   1.748718 S    
C34   C42   1.505194 S    
C2    H5    1.103849 S    
C54   H56   1.118892 S    
C41   H42   1.083232 S    
C8    C9    1.528990 S    
C13   H26   1.112734 S    
P8    C28   1.832032 S    
C7    H13   1.114353 S    
C33   H40   1.082048 S    
C35   C36   1.396760 A    
C29   H35   1.083594 S    
C25   C29   1.406493 A    
C45   C46   1.403840 A    
P1    O1    1.524837 D    
C13   H27   1.115181 S    
C39   C40   1.405672 A    
C41   C42   1.408008 A    
C12   H24   1.108628 S    
O19   C13   1.406069 S    
O30   C54   1.426025 S    
O12   Ba2   2.881603 S    
P4    Ba2   3.429443 S    
P5    O18   1.542219 D    
C40   C41   1.400298 A    
C48   O33   1.365241 S    
C16   O30   1.421834 S    
P2    O10   1.754970 S    
C52   H53   1.111954 S    
C1    C10   1.521570 S    
C27   H36   1.081514 S    
C55   H59   1.102585 S    
C1    H2    1.111495 S    
C4    O15   1.406773 S    
C7    H14   1.115252 S    
C22   C30   1.430401 A    
P3    C36   1.846002 S    
C21   H34   1.083520 S    
P2    Ba1   3.400895 S    
P5    O17   1.774802 S    
P7    O21   1.580336 D    
O13   Ba2   2.935662 S    
C11   H21   1.107462 S    
C58   O34   1.215601 D    
C59   H67   1.118716 S    
C27   C28   1.392789 A    
O7    Ba1   2.820695 S    
C14   H30   1.121004 S    
H1    C10   1.106619 S    
C33   C34   1.422734 A    
C57   H63   1.094034 S    
C57   H62   1.090951 S    
C16   C53   1.512958 S    
C4    O35   1.431129 S    
C17   C23   1.433948 A    
Ba1   Ba2   4.603414 S    
C11   H22   1.107079 S    
O17   Ba2   2.791786 S    
O16   P7    1.767203 S    
C40   H41   1.082877 S    
P1    O5    1.776262 S    
P8    O24   1.771646 S    
O4    P6    1.546063 D    
C2    C3    1.527348 S    
C52   H51   1.106934 S    
P2    C32   1.883352 S    
C14   H29   1.114718 S    
C31   H45   1.083662 S    
C46   H38   1.082379 S    
C24   C25   1.422139 A    
P6    C20   1.852448 S    
C43   H43   1.082749 S    
C20   C21   1.403608 A    
O11   C2    1.401144 S    
C37   C56   1.483131 S    
C4    C58   1.490382 S    
C4    C5    1.555996 S    
C19   C20   1.388304 A    
C24   C30   1.417000 A    
C3    C51   1.499073 S    
P1    O2    1.595531 S    
C37   C42   1.434044 A    
C13   C14   1.524771 S    
P4    O12   1.525204 D    
C8    H15   1.105144 S    
C11   O22   1.402703 S    
C24   C26   1.464344 A    
C53   O29   1.220996 D    
P4    O13   1.595532 S    
C6    H11   1.100542 S    
C15   C16   1.559775 S    
O28   C52   1.398749 S    
C12   H23   1.117102 S    
C6    H12   1.096674 S    
C6    C7    1.524576 S    
C31   C36   1.400364 A    
C26   C27   1.398430 A    
O10   C8    1.405213 S    
C18   C19   1.396979 A    
C55   H60   1.108004 S    
C1    H3    1.108550 S    
C43   C47   1.414324 A    
P5    C44   1.855427 S    
C51   O27   1.221660 D    
O35   C59   1.424329 S    
Ba1   O16   2.786179 S    
P2    O7    1.527538 D    
C44   C48   1.394721 A    
P3    O8    1.735882 S    
C50   H49   1.084619 S    
C59   H68   1.107460 S    
C3    H7    1.112607 S    
C18   C23   1.469911 A    
C57   H64   1.069357 S    
O8    Ba1   2.791298 S    
C17   O31   1.384309 S    
C34   C35   1.409680 A    
C15   O24   1.415107 S    
C9    H17   1.108214 S    
C11   C12   1.518854 S    
C12   H25   1.110658 S    
O3    P6    1.767850 S    
C15   O28   1.417319 S    
C52   H52   1.107086 S    
C14   H28   1.113222 S    
C19   H33   1.082524 S    
C7    O25   1.410512 S    
C43   C44   1.399530 A    
C9    C50   1.498991 S    
C35   H44   1.083384 S    
C5    H9    1.108981 S    
C45   C48   1.397791 A    
O1    Ba1   2.881056 S    
C53   H54   1.084663 S    
O33   C57   1.396124 S    
C49   H48   1.108656 S    
C2    H4    1.108981 S    
C49   H46   1.114702 S    
P2    O20   1.553109 S    
C8    H16   1.107923 S    
C38   C39   1.399105 A    
O2    Ba2   2.846222 S    
C38   H39   1.084600 S    
O16   Ba2   2.944863 S    
Ba1   O20   2.945701 S    
O14   Ba2   2.814361 S    
C9    H18   1.110718 S    
P1    Ba1   3.428880 S    
P4    C26   1.889045 S    
O5    C6    1.395846 S    
C1    H20   1.110565 S    
C54   H55   1.124477 S    
C31   C32   1.403118 A    
Ba2   O21   2.820711 S    
O3    Ba1   2.815060 S    
P5    O19   1.747054 S    
P8    O23   1.541690 D    
C22   C23   1.432649 A    
C5    H10   1.114067 S    
C56   O32   1.217406 D    
P3    O9    1.543774 D    
C32   C33   1.412559 A    
C50   O26   1.219520 D    
C3    H6    1.111155 S    
C51   H50   1.082029 S    
O31   C55   1.418227 S    
O6    P6    1.749341 S    
C55   H58   1.113262 S    
C46   C47   1.420331 A    
P4    O15   1.777635 S    
C30   H37   1.080143 S    
C49   H47   1.115333 S    
