data_mof_unit_2221.cif
_audit_creation_date              2012-12-10T17:34:52-0500
_audit_creation_method            fapswitch 2.2
_symmetry_space_group_name_H-M    P1
_symmetry_Int_Tables_number       1
_space_group_crystal_system       triclinic
_cell_length_a                    12.059981
_cell_length_b                    12.781639
_cell_length_c                    15.706476
_cell_angle_alpha                 91.059911
_cell_angle_beta                  85.742294
_cell_angle_gamma                 93.724639
_cell_volume                      2409.08653117

loop_
_atom_site_label
_atom_site_type_symbol
_atom_type_description
_atom_site_fract_x
_atom_site_fract_y
_atom_site_fract_z
_atom_type_partial_charge
C1    C     C_R   0.521950 0.698838 0.486867 0.914193
C2    C     C_R   0.534676 0.807796 0.460454 -0.416914
C3    C     C_R   0.648315 0.969476 0.445001 0.387851
C4    C     C_R   0.499755 0.500446 0.661557 0.884664
C5    C     C_R   0.640130 0.860661 0.445957 0.401388
C6    C     C_R   0.438403 0.862082 0.451614 0.345854
C7    C     C_R   0.443992 0.969789 0.466463 -0.099147
C8    C     C_R   0.550689 0.023919 0.463402 -0.146165
C9    C     C_R   0.558066 0.130487 0.479892 -0.293898
C10   C     C_R   0.356037 0.132774 0.498964 0.400750
C11   C     C_R   0.346477 0.024757 0.485183 0.410055
C12   C     C_3   0.383913 0.473414 0.056528 0.061242
C13   C     C_R   0.959512 0.434224 0.401022 0.412062
C14   C     C_R   0.842832 0.434379 0.413199 0.348247
C15   C     C_R   0.855514 0.522545 0.547311 0.510665
C16   C     C_R   0.477415 0.298804 0.501077 0.907660
C17   C     C_R   0.973914 0.516857 0.540193 -0.220247
C18   C     C_R   0.026085 0.477427 0.463974 -0.253417
C19   C     C_R   0.143869 0.478342 0.453652 -0.031068
C20   C     C_R   0.158324 0.558209 0.590120 0.427251
C21   C     C_R   0.041307 0.549669 0.606604 0.387204
C22   C     C_R   0.500419 0.500015 0.338450 0.860953
C23   C     C_3   0.505934 0.493860 0.082292 -0.145676
C24   C     C_3   0.382916 0.462326 0.957180 0.715143
C25   C     C_3   0.534954 0.615290 0.951277 0.829351
C26   C     C_3   0.552846 0.604478 0.049531 0.070485
C27   C     C_1   0.501543 0.498518 0.249656 -0.181821
C28   C     C_3   0.503104 0.500443 0.917501 -0.190946
C29   C     C_3   0.250022 0.315544 0.956523 0.129948
C30   C     C_3   0.196408 0.270520 0.877945 -0.838291
C31   C     C_3   0.758085 0.333296 0.050680 0.149102
C32   C     C_3   0.823534 0.301691 0.124403 -0.831981
C33   C     C_3   0.232141 0.186911 0.604184 0.143609
C34   C     C_3   0.579227 0.403951 0.042773 0.809134
C35   C     C_3   0.127700 0.246440 0.622811 -0.773774
C36   C     C_3   0.746948 0.774858 0.345956 0.120570
C37   C     C_3   0.854877 0.720167 0.329484 -0.727218
C38   C     C_3   0.017331 0.284725 0.336279 0.131276
C39   C     C_3   0.088098 0.242899 0.260601 -0.809126
C40   C     C_3   0.812961 0.679244 0.608856 0.176781
C41   C     C_3   0.733000 0.729572 0.674510 -0.724203
C42   C     C_3   0.423442 0.769295 0.980635 0.170429
C43   C     C_3   0.519345 0.853142 0.984364 -0.989923
C44   C     C_3   0.651754 0.290563 0.838339 0.129654
C45   C     C_3   0.592461 0.421434 0.942286 0.619659
C46   C     C_3   0.617453 0.181328 0.805786 -0.803451
C47   C     C_3   0.532077 0.259123 0.139458 0.107886
C48   C     C_3   0.418180 0.223086 0.180812 -0.888246
C49   C     C_1   0.503612 0.496035 0.174230 0.086806
C50   C     C_1   0.501093 0.501509 0.825575 0.127590
C51   C     C_1   0.499726 0.501396 0.750340 -0.153388
C52   C     C_R   0.462441 0.185634 0.494602 -0.253657
H1    H     H_    0.348499 0.399382 0.086806 0.143361
H2    H     H_    0.190027 0.333389 0.831040 0.254095
H3    H     H_    0.819952 0.365852 0.000707 0.204130
H4    H     H_    0.715135 0.261956 0.023744 0.141544
H5    H     H_    0.766850 0.266335 0.176430 0.249242
H6    H     H_    0.883605 0.243290 0.101513 0.194153
H7    H     H_    0.870409 0.371468 0.150189 0.309065
H8    H     H_    0.300323 0.226710 0.639349 0.121802
H9    H     H_    0.214645 0.105737 0.628455 0.148631
H10   H     H_    0.058176 0.209257 0.588041 0.256573
H11   H     H_    0.103271 0.245738 0.692366 0.202509
H12   H     H_    0.639218 0.171386 0.481814 0.205635
H13   H     H_    0.143733 0.328877 0.602237 0.250770
H14   H     H_    0.744926 0.082776 0.395666 0.314940
H15   H     H_    0.245562 0.914869 0.532657 0.358141
H16   H     H_    0.750099 0.843268 0.302628 0.142583
H17   H     H_    0.676629 0.718516 0.330502 0.127345
H18   H     H_    0.855034 0.652522 0.372654 0.238788
H19   H     H_    0.863017 0.691474 0.262281 0.218233
H20   H     H_    0.927116 0.775619 0.341126 0.261316
H21   H     H_    0.360028 0.752793 0.388414 0.347897
H22   H     H_    0.288800 0.503687 0.867896 0.355746
H23   H     H_    0.185017 0.445563 0.396654 0.197260
H24   H     H_    0.284416 0.646032 0.619696 0.381685
H25   H     H_    0.933632 0.242248 0.338469 0.172440
H26   H     H_    0.058431 0.268023 0.395478 0.157909
H27   H     H_    0.172540 0.283364 0.257719 0.249455
H28   H     H_    0.095792 0.157424 0.267528 0.230176
H29   H     H_    0.049086 0.256557 0.200280 0.249181
H30   H     H_    0.049315 0.584196 0.728279 0.379128
H31   H     H_    0.713610 0.354380 0.379379 0.361634
H32   H     H_    0.793976 0.702902 0.544465 0.191834
H33   H     H_    0.898779 0.711133 0.619354 0.166939
H34   H     H_    0.509841 0.664463 0.088659 0.130316
H35   H     H_    0.751588 0.708160 0.739927 0.282751
H36   H     H_    0.742143 0.816206 0.668656 0.199544
H37   H     H_    0.645685 0.702676 0.663950 0.244473
H38   H     H_    0.662231 0.719118 0.931682 0.367991
H39   H     H_    0.384401 0.748709 0.044661 0.172855
H40   H     H_    0.356309 0.806689 0.949943 0.190232
H41   H     H_    0.558908 0.868580 0.919315 0.281920
H42   H     H_    0.486426 0.927250 0.010509 0.243878
H43   H     H_    0.581887 0.829690 0.027440 0.247300
H44   H     H_    0.673658 0.638783 0.123921 0.340948
H45   H     H_    0.239886 0.527205 0.091919 0.362550
H46   H     H_    0.734217 0.287386 0.865144 0.147422
H47   H     H_    0.658009 0.344146 0.783039 0.150279
H48   H     H_    0.535632 0.181753 0.777652 0.256915
H49   H     H_    0.680648 0.155786 0.755997 0.207519
H50   H     H_    0.610700 0.124895 0.859155 0.258499
H51   H     H_    0.708277 0.485945 0.859419 0.358862
H52   H     H_    0.575336 0.311358 0.185248 0.176760
H53   H     H_    0.580907 0.188691 0.129158 0.160424
H54   H     H_    0.370686 0.173842 0.135258 0.271549
H55   H     H_    0.428504 0.176325 0.238285 0.228865
H56   H     H_    0.195205 0.373935 0.988013 0.146988
H57   H     H_    0.370614 0.291752 0.201055 0.238836
H58   H     H_    0.254237 0.251227 0.002550 0.160252
H59   H     H_    0.247262 0.208670 0.847595 0.260611
H60   H     H_    0.111498 0.235724 0.896565 0.207551
N1    N     N_R   0.207800 0.519340 0.515510 -0.166328
N2    N     N_R   0.792190 0.480660 0.484490 -0.220700
O1    O     O_R   0.421690 0.658830 0.504140 -0.620551
O2    O     O_3   0.360319 0.355311 0.932541 -0.588040
O3    O     O_3   0.685352 0.411951 0.079312 -0.572517
O4    O     O_3   0.260267 0.186125 0.515210 -0.567864
O5    O     O_3   0.752754 0.019099 0.429137 -0.737625
O6    O     O_3   0.241306 0.975440 0.494781 -0.694680
O7    O     O_3   0.736061 0.807447 0.432428 -0.582682
O8    O     O_3   0.340508 0.812002 0.427206 -0.712866
O9    O     O_3   0.301468 0.525145 0.927607 -0.714572
O10   O     O_3   0.221048 0.607049 0.650551 -0.774732
O11   O     O_3   0.008056 0.393337 0.326114 -0.583920
O12   O     O_R   0.609320 0.646410 0.494190 -0.587903
O13   O     O_3   0.991878 0.571545 0.686778 -0.728234
O14   O     O_3   0.781981 0.387670 0.350756 -0.740503
O15   O     O_3   0.802430 0.569087 0.617874 -0.538299
O16   O     O_3   0.634472 0.652622 0.905439 -0.726468
O17   O     O_3   0.448201 0.679790 0.929480 -0.585868
O18   O     O_3   0.667220 0.619143 0.062920 -0.685971
O19   O     O_3   0.569985 0.321491 0.901360 -0.564157
O20   O     O_3   0.701891 0.465025 0.920125 -0.748967
O21   O     O_3   0.520311 0.303745 0.058633 -0.628353
O22   O     O_R   0.406150 0.506210 0.627840 -0.595956
O23   O     O_R   0.593770 0.493790 0.617880 -0.563616
O24   O     O_R   0.390680 0.353590 0.505810 -0.569713
O25   O     O_R   0.578310 0.341170 0.495860 -0.659160
O26   O     O_R   0.406230 0.506210 0.382120 -0.625924
O27   O     O_R   0.593850 0.493790 0.372160 -0.597352
O28   O     O_3   0.318809 0.555249 0.088079 -0.742391
Zn1   Zn    Zn3+2 0.374720 0.508290 0.506640 0.969620
Zn2   Zn    Zn3+2 0.625280 0.491710 0.493360 0.971155

loop_
_geom_bond_atom_site_label_1
_geom_bond_atom_site_label_2
_ccdc_geom_bond_type
C41   H37   S    
C40   O15   S    
C5    O7    S    
C9    H12   S    
C40   H32   S    
O26   Zn1   S    
C32   H6    S    
H31   O14   S    
C10   C52   A    
C7    C8    A    
C25   C28   S    
C7    C11   A    
C46   H50   S    
C12   C23   S    
C45   O20   S    
C13   C18   A    
C36   C37   S    
H51   O20   S    
C42   H39   S    
O22   Zn1   S    
O24   Zn1   S    
C38   C39   S    
C44   H47   S    
C23   C49   S    
C48   H55   S    
C19   N1    A    
C22   O26   A    
C43   H42   S    
C14   O14   S    
C18   C19   A    
C23   C26   S    
C31   O3    S    
C33   C35   S    
C4    O23   A    
C44   H46   S    
C48   H54   S    
C47   C48   S    
C8    C9    A    
C47   H53   S    
C43   H43   S    
C29   H56   S    
C42   O17   S    
C31   H4    S    
C21   O13   S    
H15   O6    S    
C12   H1    S    
C4    O22   A    
C13   O11   S    
C34   O3    S    
C48   H57   S    
C33   O4    S    
C37   H18   S    
H38   O16   S    
C2    C6    A    
C9    C52   A    
C28   C50   S    
C32   H5    S    
C11   O6    S    
C44   C46   S    
C50   C51   T    
C41   H35   S    
C46   H49   S    
O1    Zn1   S    
C28   C45   S    
C4    C51   S    
H24   O10   S    
C16   C52   S    
C29   H58   S    
C1    O12   A    
C39   H29   S    
C3    C8    A    
O27   Zn2   S    
C38   H26   S    
C25   C26   S    
C14   N2    A    
C24   O9    S    
C17   C21   A    
N1    Zn1   S    
C30   H60   S    
H45   O28   S    
N2    Zn2   S    
C40   H33   S    
C29   C30   S    
C10   O4    S    
C30   H2    S    
O25   Zn2   S    
C31   C32   S    
C15   O15   S    
C26   H34   S    
C23   C34   S    
C17   C18   A    
C15   N2    A    
C34   C45   S    
C25   O16   S    
C3    O5    S    
C40   C41   S    
C29   O2    S    
C24   O2    S    
C33   H8    S    
H14   O5    S    
C37   H19   S    
C16   O25   A    
C42   C43   S    
C6    O8    S    
C25   O17   S    
C38   O11   S    
C26   O18   S    
C36   H17   S    
C44   O19   S    
C15   C17   A    
C41   H36   S    
C46   H48   S    
C47   H52   S    
C47   O21   S    
O23   Zn2   S    
C16   O24   A    
C24   C28   S    
C3    C5    A    
C36   H16   S    
C6    C7    A    
C38   H25   S    
C12   C24   S    
C45   O19   S    
H44   O18   S    
C30   H59   S    
C22   C27   S    
C39   H28   S    
C19   H23   S    
C36   O7    S    
C20   N1    A    
C34   O21   S    
C1    C2    S    
C22   O27   A    
O12   Zn2   S    
C43   H41   S    
C12   O28   S    
H22   O9    S    
C35   H10   S    
C42   H40   S    
H30   O13   S    
C20   O10   S    
C10   C11   A    
C2    C5    A    
C20   C21   A    
C33   H9    S    
H21   O8    S    
C37   H20   S    
C35   H13   S    
C35   H11   S    
C1    O1    A    
C32   H7    S    
C31   H3    S    
C13   C14   A    
C27   C49   T    
C39   H27   S    
