data_mof_unit_1344.cif
_audit_creation_date              2012-12-10T17:29:20-0500
_audit_creation_method            fapswitch 2.2
_symmetry_space_group_name_H-M    P1
_symmetry_Int_Tables_number       1
_space_group_crystal_system       triclinic
_cell_length_a                    12.005402
_cell_length_b                    12.892271
_cell_length_c                    13.083875
_cell_angle_alpha                 87.170066
_cell_angle_beta                  113.654777
_cell_angle_gamma                 93.461235
_cell_volume                      1850.84916762

loop_
_atom_site_label
_atom_site_type_symbol
_atom_type_description
_atom_site_fract_x
_atom_site_fract_y
_atom_site_fract_z
_atom_type_partial_charge
C1    C     C_R   0.476496 0.299578 0.495873 0.909844
C2    C     C_R   0.612591 0.489284 0.830029 -0.117955
C3    C     C_R   0.534632 0.812069 0.497347 -0.108220
C4    C     C_R   0.566891 0.492894 0.708855 0.920777
C5    C     C_R   0.461009 0.188488 0.489006 -0.064156
C6    C     C_R   0.351422 0.029094 0.498181 -0.200237
C7    C     C_R   0.358690 0.136435 0.495891 -0.212251
C8    C     C_R   0.553307 0.134090 0.479302 -0.276905
C9    C     C_R   0.547765 0.026697 0.481511 0.098796
C10   C     C_R   0.446207 0.974409 0.493159 0.157153
C11   C     C_R   0.440901 0.867945 0.501262 -0.283274
C12   C     C_R   0.557517 0.488353 0.988409 0.046287
C13   C     C_R   0.635168 0.862327 0.485022 -0.239486
C14   C     C_R   0.643151 0.970773 0.476370 0.209585
C15   C     C_R   0.005407 0.595401 0.391634 -0.337022
C16   C     C_R   0.522469 0.700592 0.501104 0.901262
C17   C     C_R   0.126290 0.586752 0.403031 0.015989
C18   C     C_R   0.160101 0.459504 0.547922 -0.043271
C19   C     C_R   0.039089 0.465562 0.539540 0.090898
C20   C     C_R   0.960718 0.534520 0.460242 0.093503
C21   C     C_R   0.839692 0.540624 0.451950 -0.050061
C22   C     C_R   0.873695 0.413163 0.596834 0.021557
C23   C     C_R   0.536990 0.449876 0.883149 0.054516
C24   C     C_R   0.994501 0.404567 0.608131 -0.327200
C25   C     C_R   0.433001 0.503992 0.291156 0.867223
C26   C     C_R   0.268412 0.390802 0.011069 -0.181055
C27   C     C_R   0.390008 0.491266 0.171966 -0.058349
C28   C     C_R   0.723772 0.541639 0.891125 -0.209611
C29   C     C_R   0.754861 0.563028 0.002290 -0.143251
C30   C     C_R   0.671348 0.539836 0.050083 -0.169239
C31   C     C_3   0.855248 0.972255 0.486683 -0.805779
C32   C     C_3   0.536749 0.233636 0.790794 -0.796161
C33   C     C_R   0.463998 0.473038 0.027826 0.078372
C34   C     C_R   0.359295 0.408736 0.969519 0.146300
C35   C     C_R   0.350270 0.358225 0.874659 -0.330553
C36   C     C_R   0.440810 0.374621 0.833458 0.203918
C37   C     C_R   0.472051 0.519724 0.124366 -0.238122
C38   C     C_R   0.284999 0.430300 0.113695 -0.202131
H1    H     H_    0.220778 0.407487 0.150692 0.153924
H2    H     H_    0.159728 0.633702 0.349602 0.128486
H3    H     H_    0.275086 0.302914 0.834920 0.137130
H4    H     H_    0.220796 0.406528 0.608286 0.121305
H5    H     H_    0.188622 0.341149 0.967771 0.134691
H6    H     H_    0.546145 0.573582 0.169072 0.132601
H7    H     H_    0.784111 0.569889 0.851653 0.157231
H8    H     H_    0.699629 0.561043 0.135835 0.124646
H9    H     H_    0.841107 0.602792 0.049844 0.138664
H10   H     H_    0.363032 0.828670 0.510938 0.169423
H11   H     H_    0.718554 0.072390 0.389915 0.222022
H12   H     H_    0.704957 0.816443 0.479526 0.173163
H13   H     H_    0.927410 0.030136 0.486264 0.240570
H14   H     H_    0.842557 0.913546 0.423136 0.230999
H15   H     H_    0.885744 0.934819 0.571241 0.252051
H16   H     H_    0.357959 0.272712 0.703407 0.216761
H17   H     H_    0.531863 0.184814 0.721625 0.243631
H18   H     H_    0.525562 0.182020 0.856945 0.243044
H19   H     H_    0.627942 0.274160 0.824627 0.243449
H20   H     H_    0.273191 0.988888 0.506100 0.136555
H21   H     H_    0.286564 0.178348 0.502755 0.156449
H22   H     H_    0.631435 0.175957 0.473314 0.176507
H23   H     H_    0.778705 0.593759 0.391573 0.116198
H24   H     H_    0.840272 0.366133 0.650228 0.131233
H25   H     H_    0.947421 0.649137 0.329529 0.137641
H26   H     H_    0.052509 0.350767 0.670131 0.138317
N1    N     N_R   0.798200 0.480260 0.519790 -0.097099
N2    N     N_R   0.201820 0.519740 0.480210 -0.097533
N3    N     N_2   0.743184 0.024489 0.460274 -0.311136
N4    N     N_2   0.441512 0.307769 0.750026 -0.297309
O1    O     O_R   0.579910 0.341070 0.505280 -0.624685
O2    O     O_R   0.388440 0.353740 0.492580 -0.620440
O3    O     O_R   0.643280 0.490550 0.663120 -0.624086
O4    O     O_R   0.451810 0.503220 0.650420 -0.599079
O5    O     O_R   0.611560 0.646260 0.507420 -0.628197
O6    O     O_R   0.420090 0.658930 0.494720 -0.624341
O7    O     O_R   0.548190 0.496780 0.349580 -0.613966
O8    O     O_R   0.356720 0.509450 0.336880 -0.622321
Zn1   Zn    Zn3+2 0.627850 0.491540 0.508480 0.937973
Zn2   Zn    Zn3+2 0.372150 0.508460 0.491520 0.943833

loop_
_geom_bond_atom_site_label_1
_geom_bond_atom_site_label_2
_ccdc_geom_bond_type
O2    Zn2   S    
C6    H20   S    
O1    Zn1   S    
C35   C36   A    
C4    O4    A    
C31   H14   S    
C31   N3    S    
C12   C23   A    
C17   N2    A    
C29   H9    S    
C16   O6    A    
C28   C29   A    
O8    Zn2   S    
C18   C19   A    
C18   H4    S    
C38   H1    S    
H16   N4    S    
C27   C38   A    
C34   C35   A    
O4    Zn2   S    
C26   C34   A    
C19   C20   A    
C8    C9    A    
C14   N3    S    
C9    C10   A    
C32   H17   S    
C21   H23   S    
C3    C13   A    
C32   N4    S    
C21   N1    A    
C24   H26   S    
C13   C14   A    
C11   H10   S    
C32   H19   S    
C7    H21   S    
C26   H5    S    
C15   C20   A    
N2    Zn2   S    
C28   H7    S    
N1    Zn1   S    
C16   O5    A    
C5    C7    A    
C26   C38   A    
C33   C37   A    
C25   O7    A    
C17   H2    S    
C2    C4    S    
C9    C14   A    
C22   N1    A    
C29   C30   A    
C22   H24   S    
C33   C34   A    
C31   H15   S    
O7    Zn1   S    
C1    C5    S    
C22   C24   A    
C18   N2    A    
O3    Zn1   S    
C15   C17   A    
C15   H25   S    
H11   N3    S    
C12   C30   A    
C30   H8    S    
C31   H13   S    
C6    C10   A    
C5    C8    A    
C36   N4    S    
C6    C7    A    
C25   C27   S    
C1    O2    A    
C25   O8    A    
C37   H6    S    
C19   C24   A    
C8    H22   S    
C27   C37   A    
C35   H3    S    
C1    O1    A    
C3    C11   A    
C10   C11   A    
C13   H12   S    
C20   C21   A    
C23   C36   A    
O6    Zn2   S    
C2    C23   A    
O5    Zn1   S    
C2    C28   A    
C12   C33   A    
C32   H18   S    
C4    O3    A    
C3    C16   S    
