data_mof_unit_4380.cif
_audit_creation_date              2012-12-10T16:53:29-0500
_audit_creation_method            fapswitch 2.2
_symmetry_space_group_name_H-M    P1
_symmetry_Int_Tables_number       1
_space_group_crystal_system       triclinic
_cell_length_a                    7.917783
_cell_length_b                    8.55847
_cell_length_c                    13.521068
_cell_angle_alpha                 93.29001
_cell_angle_beta                  77.015911
_cell_angle_gamma                 93.799821
_cell_volume                      890.002884631

loop_
_atom_site_label
_atom_site_type_symbol
_atom_type_description
_atom_site_fract_x
_atom_site_fract_y
_atom_site_fract_z
_atom_type_partial_charge
C1    C     C_R   0.545764 0.794283 0.497678 0.951568
C2    C     C_1   0.580965 0.521171 0.117587 -0.089185
C3    C     C_2   0.569568 0.958085 0.496392 -0.380635
C4    C     C_2   0.430405 0.041916 0.503720 -0.381431
C5    C     C_3   0.132244 0.644127 0.028054 -0.795965
C6    C     C_3   0.826724 0.642686 0.885629 -0.802306
C7    C     C_3   0.015107 0.305942 0.436067 -0.494252
C8    C     C_3   0.984613 0.693777 0.564455 -0.503678
C9    C     C_R   0.454225 0.205719 0.502368 0.954216
C10   C     C_R   0.468205 0.504183 0.687603 0.889676
C11   C     C_R   0.532112 0.497421 0.312370 0.889596
C12   C     C_1   0.561384 0.507835 0.206515 -0.185331
C13   C     C_1   0.444310 0.522686 0.793568 -0.205836
C14   C     C_2   0.585231 0.539232 0.013230 0.162937
C15   C     C_2   0.435350 0.565664 0.987297 0.199458
C16   C     C_1   0.431573 0.542830 0.882560 0.017177
H1    H     H_    0.701034 0.009080 0.489441 0.171391
H2    H     H_    0.742539 0.694374 0.842227 0.246502
H3    H     H_    0.926368 0.249505 0.390188 0.177245
H4    H     H_    0.144288 0.315824 0.384374 0.210780
H5    H     H_    0.012689 0.229976 0.500269 0.183322
H6    H     H_    0.073295 0.749872 0.610492 0.176458
H7    H     H_    0.986863 0.770260 0.500540 0.184657
H8    H     H_    0.855500 0.683518 0.616174 0.210391
H9    H     H_    0.298936 0.990919 0.510682 0.171306
H10   H     H_    0.300526 0.662223 0.126917 0.234565
H11   H     H_    0.020896 0.658033 0.093921 0.249480
H12   H     H_    0.094838 0.551243 0.975331 0.258178
H13   H     H_    0.162635 0.756913 0.989333 0.238922
H14   H     H_    0.823495 0.440772 0.964698 0.231825
H15   H     H_    0.946148 0.606982 0.830823 0.248222
H16   H     H_    0.862645 0.733613 0.940367 0.240809
N1    N     N_2   0.954190 0.457600 0.473930 0.003067
N2    N     N_2   0.045810 0.542400 0.526070 0.003577
N3    N     N_2   0.281182 0.599339 0.062624 -0.308467
N4    N     N_2   0.739768 0.507305 0.938851 -0.297741
O1    O     O_R   0.388300 0.738660 0.506400 -0.612563
O2    O     O_R   0.611700 0.261340 0.493600 -0.612243
O3    O     O_R   0.679920 0.711490 0.489690 -0.640496
O4    O     O_R   0.320080 0.288510 0.510310 -0.639753
O5    O     O_R   0.333200 0.515510 0.649910 -0.607822
O6    O     O_R   0.666800 0.484490 0.350090 -0.602142
O7    O     O_R   0.624820 0.488340 0.633200 -0.610468
O8    O     O_R   0.375180 0.511660 0.366800 -0.618316
Zn1   Zn    Zn3+2 0.305280 0.518140 0.511160 0.939014
Zn2   Zn    Zn3+2 0.694720 0.481860 0.488840 0.944293

loop_
_geom_bond_atom_site_label_1
_geom_bond_atom_site_label_2
_ccdc_geom_bond_type
C6    H16   S    
C11   C12   S    
C3    H1    S    
C1    O1    A    
C5    H12   S    
C8    H6    S    
H14   N4    S    
C2    C12   T    
C6    H15   S    
C4    C9    S    
C11   O8    A    
N2    Zn1   S    
C8    N2    S    
C10   O5    A    
C7    H5    S    
N1    Zn2   S    
C7    N1    S    
O3    Zn2   S    
C2    C14   S    
C5    N3    S    
C15   N3    S    
C9    O2    A    
C8    H8    S    
C6    N4    S    
N1    N2    D    
C5    H13   S    
C14   N4    S    
O4    Zn1   S    
C6    H2    S    
O7    Zn2   S    
O2    Zn2   S    
C1    O3    A    
O1    Zn1   S    
C3    C4    D    
C4    H9    S    
H10   N3    S    
C8    H7    S    
O8    Zn1   S    
C11   O6    A    
C7    H4    S    
O6    Zn2   S    
C13   C16   T    
O5    Zn1   S    
C14   C15   D    
C7    H3    S    
C10   O7    A    
C5    H11   S    
C9    O4    A    
C15   C16   S    
C1    C3    S    
C10   C13   S    
