data_mof_unit_2391.cif
_audit_creation_date              2012-12-10T20:53:08-0500
_audit_creation_method            fapswitch 2.2
_symmetry_space_group_name_H-M    P1
_symmetry_Int_Tables_number       1
_space_group_crystal_system       triclinic
_cell_length_a                    18.29695
_cell_length_b                    18.284848
_cell_length_c                    18.288075
_cell_angle_alpha                 60.01941
_cell_angle_beta                  60.049897
_cell_angle_gamma                 60.046117
_cell_volume                      4330.13627456

loop_
_atom_site_label
_atom_site_type_symbol
_atom_type_description
_atom_site_fract_x
_atom_site_fract_y
_atom_site_fract_z
_atom_type_partial_charge
C1    C     C_R   0.389770 0.110223 0.110031 0.789068
C2    C     C_R   0.419196 0.771737 0.079571 -0.187968
C3    C     C_R   0.031208 0.561095 0.914374 0.062037
C4    C     C_R   0.438582 0.085379 0.968959 0.062061
C5    C     C_R   0.561430 0.914615 0.031042 0.062319
C6    C     C_R   0.946094 0.945843 0.554413 -0.163403
C7    C     C_R   0.053898 0.054187 0.445502 -0.161189
C8    C     C_R   0.945834 0.554486 0.946100 -0.161631
C9    C     C_R   0.054150 0.445587 0.053927 -0.160367
C10   C     C_R   0.554503 0.946120 0.945805 -0.162297
C11   C     C_R   0.445502 0.053872 0.054200 -0.161922
C12   C     C_3   0.767753 0.439318 0.388898 -0.961182
C13   C     C_R   0.232654 0.916825 0.578223 -0.195564
C14   C     C_3   0.227819 0.568086 0.607518 -0.966622
C15   C     C_3   0.434919 0.388757 0.772514 -0.965599
C16   C     C_3   0.565118 0.611323 0.227437 -0.965041
C17   C     C_3   0.393622 0.769833 0.431576 -0.962586
C18   C     C_3   0.606091 0.230970 0.567569 -0.963588
C19   C     C_R   0.767377 0.083053 0.421891 -0.195342
C20   C     C_R   0.957402 0.570106 0.285521 -0.062040
C21   C     C_R   0.043014 0.430805 0.713838 -0.093765
C22   C     C_R   0.571095 0.284509 0.957767 -0.091200
C23   C     C_R   0.428875 0.715485 0.042263 -0.090665
C24   C     C_R   0.288308 0.955028 0.568152 -0.063643
C25   C     C_R   0.711757 0.044757 0.432053 -0.062301
C26   C     C_R   0.934310 0.515841 0.375605 0.137730
C27   C     C_R   0.610231 0.889770 0.889974 0.789728
C28   C     C_R   0.063998 0.485919 0.623892 0.062412
C29   C     C_R   0.516225 0.374457 0.935903 0.053662
C30   C     C_R   0.483781 0.625549 0.064105 0.053879
C31   C     C_R   0.378058 0.934034 0.512833 0.146182
C32   C     C_R   0.621932 0.065974 0.487141 0.147092
C33   C     C_R   0.873420 0.472444 0.408425 -0.156562
C34   C     C_R   0.123095 0.531647 0.590137 -0.182347
C35   C     C_R   0.470897 0.407514 0.876649 -0.185606
C36   C     C_R   0.529134 0.592519 0.123332 -0.184347
C37   C     C_R   0.411538 0.874602 0.467544 -0.153316
C38   C     C_R   0.110243 0.110008 0.389787 0.786399
C39   C     C_R   0.588342 0.125733 0.532096 -0.152573
C40   C     C_R   0.834657 0.484165 0.352048 0.255329
C41   C     C_R   0.162536 0.521044 0.645352 0.259851
C42   C     C_R   0.481573 0.351593 0.837967 0.261107
C43   C     C_R   0.518439 0.648452 0.162013 0.260747
C44   C     C_R   0.356165 0.835130 0.478508 0.254076
C45   C     C_R   0.643679 0.165305 0.521025 0.254684
C46   C     C_R   0.858123 0.538864 0.262038 -0.130606
C47   C     C_R   0.141409 0.465251 0.735134 -0.131895
C48   C     C_R   0.537015 0.261765 0.860049 -0.131773
C49   C     C_R   0.889777 0.889980 0.610198 0.789966
C50   C     C_R   0.462958 0.738265 0.139955 -0.131671
C51   C     C_R   0.266541 0.856375 0.534415 -0.130582
C52   C     C_R   0.733380 0.143831 0.465354 -0.130802
C53   C     C_R   0.914423 0.561194 0.493060 0.417620
C54   C     C_R   0.083141 0.435818 0.508534 0.414478
C55   C     C_R   0.565482 0.490404 0.917082 0.410932
C56   C     C_R   0.434529 0.509592 0.082931 0.410941
C57   C     C_R   0.494434 0.914039 0.559575 0.417736
C58   C     C_R   0.505584 0.085933 0.440400 0.417669
C59   C     C_R   0.945515 0.552984 0.554713 -0.205104
C60   C     C_R   0.110003 0.389805 0.110242 0.785519
C61   C     C_R   0.052770 0.446406 0.445813 -0.186381
C62   C     C_R   0.553684 0.553916 0.947294 -0.140684
C63   C     C_R   0.446323 0.446083 0.052717 -0.143870
C64   C     C_R   0.554862 0.945478 0.553027 -0.244990
C65   C     C_R   0.445147 0.054501 0.446960 -0.247479
C66   C     C_R   0.029608 0.490502 0.562887 -0.151258
C67   C     C_R   0.969149 0.508873 0.437482 -0.131382
C68   C     C_R   0.489238 0.563857 0.029980 -0.188810
C69   C     C_R   0.510776 0.436136 0.970036 -0.187752
C70   C     C_R   0.561075 0.030695 0.492878 -0.089504
C71   C     C_R   0.890016 0.610203 0.889744 0.789518
C72   C     C_R   0.438935 0.969284 0.507103 -0.090087
C73   C     C_R   0.109135 0.390075 0.389905 0.910659
C74   C     C_R   0.890660 0.609872 0.610138 0.826954
C75   C     C_R   0.390027 0.389988 0.109048 0.916423
C76   C     C_R   0.609975 0.610013 0.890956 0.911493
C77   C     C_R   0.389794 0.109494 0.390121 0.817178
C78   C     C_R   0.610206 0.890496 0.609876 0.809649
C79   C     C_R   0.171284 0.935725 0.379487 -0.137544
C80   C     C_R   0.828598 0.064457 0.620196 -0.137794
C81   C     C_R   0.935614 0.379812 0.171679 -0.138588
C82   C     C_R   0.919933 0.580867 0.228847 -0.193974
C83   C     C_R   0.064142 0.620720 0.828612 -0.137147
C84   C     C_R   0.378723 0.170968 0.936113 -0.135609
C85   C     C_R   0.621297 0.829029 0.063883 -0.137361
C86   C     C_R   0.201457 0.851386 0.374153 -0.148744
C87   C     C_R   0.798216 0.149039 0.625098 -0.148246
C88   C     C_R   0.851162 0.374738 0.202101 -0.145115
C89   C     C_R   0.148526 0.625910 0.798280 -0.146739
C90   C     C_R   0.373093 0.201040 0.851935 -0.148529
C91   C     C_R   0.626947 0.798966 0.148050 -0.145930
C92   C     C_R   0.148760 0.796875 0.429622 -0.159457
C93   C     C_R   0.081086 0.421210 0.769354 -0.190381
C94   C     C_R   0.850789 0.203674 0.569358 -0.161184
C95   C     C_R   0.796635 0.430280 0.149419 -0.157308
C96   C     C_R   0.203158 0.570161 0.850846 -0.157508
C97   C     C_R   0.428663 0.148430 0.797368 -0.160402
C98   C     C_R   0.571387 0.851579 0.202612 -0.157102
C99   C     C_R   0.065152 0.826899 0.489910 -0.159935
C100  C     C_R   0.934567 0.173445 0.509390 -0.160300
C101  C     C_R   0.826798 0.490299 0.065535 -0.162598
C102  C     C_R   0.173121 0.509894 0.934572 -0.162337
C103  C     C_R   0.489305 0.064974 0.827209 -0.160457
C104  C     C_R   0.580757 0.228268 0.920457 -0.188461
C105  C     C_R   0.510730 0.935029 0.172781 -0.162434
C106  C     C_R   0.031425 0.913836 0.494394 0.063843
C107  C     C_R   0.968468 0.086306 0.505312 0.065334
C108  C     C_R   0.913800 0.494568 0.031602 0.063782
C109  C     C_R   0.086145 0.505576 0.968470 0.064083
C110  C     C_R   0.494072 0.031296 0.914018 0.063300
C111  C     C_R   0.505944 0.968700 0.085982 0.063648
C112  C     C_R   0.085563 0.968737 0.438979 0.062842
C113  C     C_R   0.914376 0.031361 0.560826 0.062504
C114  C     C_R   0.968690 0.439144 0.085748 0.062369
H1    H     H_    0.826240 0.270124 0.571975 0.141983
H2    H     H_    0.026184 0.663093 0.783216 0.145566
H3    H     H_    0.336484 0.216443 0.973966 0.145050
H4    H     H_    0.663530 0.783552 0.026032 0.145111
H5    H     H_    0.266783 0.827602 0.327896 0.143408
H6    H     H_    0.732807 0.172924 0.671198 0.143326
H7    H     H_    0.827285 0.328668 0.267629 0.144764
H8    H     H_    0.172274 0.672228 0.732900 0.145131
H9    H     H_    0.326590 0.266279 0.828267 0.143002
H10   H     H_    0.673459 0.733730 0.171713 0.145030
H11   H     H_    0.028087 0.780674 0.533157 0.140318
H12   H     H_    0.173123 0.730637 0.426596 0.144182
H13   H     H_    0.971618 0.219681 0.466004 0.134496
H14   H     H_    0.780611 0.533577 0.028442 0.136955
H15   H     H_    0.219367 0.466508 0.971596 0.137223
H16   H     H_    0.532639 0.028026 0.780908 0.138742
H17   H     H_    0.467402 0.971978 0.219082 0.138620
H18   H     H_    0.828585 0.549200 0.217559 0.147497
H19   H     H_    0.171642 0.455617 0.778654 0.147486
H20   H     H_    0.546600 0.217666 0.830495 0.146697
H21   H     H_    0.453360 0.782374 0.169505 0.146511
H22   H     H_    0.222881 0.826168 0.544288 0.148374
H23   H     H_    0.269467 0.572992 0.826322 0.146357
H24   H     H_    0.777013 0.174120 0.455389 0.148462
H25   H     H_    0.937999 0.622683 0.159322 0.156876
H26   H     H_    0.064796 0.378591 0.838715 0.156319
H27   H     H_    0.623118 0.158876 0.937480 0.156365
H28   H     H_    0.376805 0.841118 0.062566 0.156138
H29   H     H_    0.163413 0.933211 0.620935 0.156438
H30   H     H_    0.836676 0.066496 0.379358 0.156980
H31   H     H_    0.003753 0.604527 0.259548 0.148138
H32   H     H_    0.998088 0.394585 0.740475 0.153643
H33   H     H_    0.606920 0.258384 0.002909 0.154856
H34   H     H_    0.730290 0.427512 0.173990 0.146417
H35   H     H_    0.393035 0.741590 0.997141 0.154679
H36   H     H_    0.261850 0.000228 0.604025 0.146462
H37   H     H_    0.738298 0.999326 0.396412 0.147816
H38   H     H_    0.854922 0.431038 0.478196 0.134886
H39   H     H_    0.140014 0.573640 0.520458 0.145446
H40   H     H_    0.429022 0.477182 0.859120 0.146614
H41   H     H_    0.571039 0.522862 0.140843 0.146814
H42   H     H_    0.481058 0.857711 0.425328 0.136711
H43   H     H_    0.518762 0.142811 0.574113 0.134839
H44   H     H_    0.790995 0.635068 0.540240 0.331768
H45   H     H_    0.574608 0.827249 0.268757 0.146507
H46   H     H_    0.176578 0.364510 0.564823 0.344395
H47   H     H_    0.638401 0.432945 0.824505 0.346633
H48   H     H_    0.361630 0.567034 0.175521 0.347355
H49   H     H_    0.542079 0.790358 0.633207 0.334561
H50   H     H_    0.457965 0.209613 0.366743 0.340038
H51   H     H_    0.738580 0.459401 0.338319 0.250566
H52   H     H_    0.800689 0.365532 0.410254 0.234698
H53   H     H_    0.712360 0.458314 0.447521 0.255639
H54   H     H_    0.258667 0.547814 0.656791 0.250380
H55   H     H_    0.282204 0.551292 0.547407 0.252976
H56   H     H_    0.425456 0.172765 0.731216 0.143273
H57   H     H_    0.192930 0.641560 0.588305 0.237998
H58   H     H_    0.454846 0.338814 0.742626 0.250456
H59   H     H_    0.361435 0.408762 0.807010 0.237256
H60   H     H_    0.452399 0.448305 0.717388 0.253961
H61   H     H_    0.545115 0.661248 0.257381 0.250780
H62   H     H_    0.547745 0.551709 0.282529 0.254147
H63   H     H_    0.638594 0.591435 0.192898 0.237060
H64   H     H_    0.344092 0.739368 0.451702 0.249875
H65   H     H_    0.413045 0.804677 0.358088 0.235235
H66   H     H_    0.453506 0.715112 0.448587 0.256727
H67   H     H_    0.216738 0.973615 0.337277 0.144420
H68   H     H_    0.655637 0.261414 0.547440 0.249643
H69   H     H_    0.546374 0.285669 0.550206 0.255953
H70   H     H_    0.586376 0.196460 0.641105 0.235515
H71   H     H_    0.783223 0.026483 0.662558 0.144256
H72   H     H_    0.973540 0.337573 0.217110 0.143271
O1    O     O_3   0.250000 0.250000 0.250000 -0.496486
O2    O     O_R   0.865800 0.694910 0.573470 -0.634345
O3    O     O_R   0.305090 0.426530 0.134200 -0.609768
O4    O     O_R   0.694910 0.573470 0.865800 -0.612276
O5    O     O_R   0.426530 0.134200 0.305090 -0.630604
O6    O     O_R   0.573470 0.865800 0.694910 -0.629752
O7    O     O_R   0.134190 0.426530 0.134200 -0.644947
O8    O     O_R   0.865810 0.573470 0.865800 -0.639780
O9    O     O_R   0.426530 0.134200 0.134190 -0.638312
O10   O     O_R   0.573470 0.865800 0.865810 -0.637705
O11   O     O_R   0.134200 0.134190 0.426530 -0.643448
O12   O     O_3   0.750000 0.750000 0.750000 -0.493134
O13   O     O_R   0.865800 0.865810 0.573470 -0.638203
O14   O     O_R   0.426530 0.305080 0.134210 -0.648108
O15   O     O_R   0.573470 0.694920 0.865790 -0.648702
O16   O     O_R   0.305080 0.134210 0.426530 -0.631582
O17   O     O_R   0.694920 0.865790 0.573470 -0.638988
O18   O     O_R   0.134210 0.426530 0.305080 -0.646432
O19   O     O_R   0.865790 0.573470 0.694920 -0.627552
O20   O     O_3   0.830973 0.618780 0.485423 -0.746032
O21   O     O_3   0.166410 0.373094 0.512430 -0.756163
O22   O     O_3   0.629549 0.485540 0.834551 -0.762822
O23   O     O_R   0.305080 0.134200 0.134200 -0.646564
O24   O     O_3   0.370457 0.514460 0.165459 -0.754516
O25   O     O_3   0.488069 0.829717 0.615415 -0.747324
O26   O     O_3   0.511975 0.170242 0.384531 -0.746022
O27   O     O_R   0.694920 0.865800 0.865800 -0.646443
O28   O     O_R   0.134200 0.134200 0.305080 -0.645754
O29   O     O_R   0.865800 0.865800 0.694920 -0.645299
O30   O     O_R   0.134200 0.305080 0.134200 -0.645805
O31   O     O_R   0.865800 0.694920 0.865800 -0.646331
O32   O     O_R   0.134200 0.305090 0.426530 -0.610869
Zn1   Zn    Zn3+2 0.206620 0.206630 0.380140 0.987088
Zn2   Zn    Zn3+2 0.793380 0.793370 0.619860 0.970861
Zn3   Zn    Zn3+2 0.206630 0.380140 0.206620 0.990594
Zn4   Zn    Zn3+2 0.793370 0.619860 0.793380 0.987656
Zn5   Zn    Zn3+2 0.380140 0.206620 0.206630 0.980534
Zn6   Zn    Zn3+2 0.619860 0.793380 0.793370 0.974341
Zn7   Zn    Zn3+2 0.206620 0.206620 0.206620 0.945090
Zn8   Zn    Zn3+2 0.793380 0.793380 0.793380 0.949510

loop_
_geom_bond_atom_site_label_1
_geom_bond_atom_site_label_2
_ccdc_geom_bond_type
C10   C27   S    
C17   H64   S    
O9    Zn5   S    
C57   O25   S    
C19   H30   S    
C22   C29   A    
C20   C82   A    
O18   Zn3   S    
C100  H13   S    
C90   H9    S    
C94   C100  A    
C1    C11   S    
C35   H40   S    
C77   O16   A    
C12   H53   S    
C92   C99   A    
C53   C59   A    
C99   H11   S    
O1    Zn1   S    
C75   O14   A    
C40   C46   A    
C55   O22   S    
C98   C105  A    
O23   Zn7   S    
O17   Zn2   S    
C103  C110  A    
C26   C67   S    
C48   H20   S    
O12   Zn4   S    
C3    C109  A    
C102  C109  A    
C80   C87   A    
C96   C102  A    
C50   H21   S    
O4    Zn4   S    
C59   C66   A    
C12   H52   S    
O1    Zn7   S    
O3    Zn3   S    
C89   H8    S    
C18   H68   S    
C59   C74   S    
C48   C104  A    
C87   C94   A    
O19   Zn4   S    
C101  H14   S    
C22   C104  A    
C7    C112  A    
C32   C39   A    
C108  C114  A    
C35   C42   A    
O28   Zn7   S    
C107  C113  A    
O27   Zn8   S    
C2    C50   A    
C46   C82   A    
O1    Zn3   S    
C19   C52   A    
C63   C69   A    
C84   H3    S    
C8    C71   S    
C81   C114  A    
C73   O32   A    
C52   H24   S    
C80   H71   S    
C102  H15   S    
H47   O22   S    
C86   H5    S    
C64   C70   A    
O10   Zn6   S    
C90   C97   A    
C74   O2    A    
O31   Zn8   S    
C39   C45   A    
C5    C85   A    
C16   H62   S    
C101  C108  A    
O7    Zn3   S    
C23   H35   S    
C88   C95   A    
C28   C34   A    
C91   C98   A    
C13   C51   A    
C39   H43   S    
C37   H42   S    
C62   C76   S    
C34   C41   A    
C84   C90   A    
C38   O28   A    
C14   H55   S    
C53   C67   A    
C8    C108  A    
C41   C47   A    
C60   O7    A    
C14   H57   S    
C29   C69   S    
O2    Zn2   S    
C9    C109  A    
C83   C89   A    
C73   O18   A    
C38   O11   A    
C33   C40   A    
C65   C77   S    
C15   H59   S    
C1    O23   A    
H44   O20   S    
C23   C30   A    
C78   O6    A    
C78   O17   A    
O6    Zn6   S    
C105  H17   S    
C3    C8    A    
C96   H23   S    
H49   O25   S    
C76   O15   A    
C58   C70   A    
C71   O8    A    
C106  C112  A    
H48   O24   S    
C45   C52   A    
C61   C73   S    
C56   C68   A    
C11   C111  A    
C97   H56   S    
C79   H67   S    
C13   C24   A    
C17   H66   S    
C77   O5    A    
O16   Zn1   S    
C12   C40   S    
C28   C66   S    
C6    C113  A    
C56   O24   S    
C82   H25   S    
C97   C103  A    
C51   H22   S    
C61   C67   A    
C58   C65   A    
C4    C84   A    
C18   H70   S    
O1    Zn5   S    
C53   O20   S    
C6    C106  A    
C56   C63   A    
C42   C48   A    
C22   H33   S    
C4    C11   A    
C16   C43   S    
C55   C69   A    
C24   H36   S    
C14   C41   S    
C79   C112  A    
C16   H61   S    
C55   C62   A    
C31   C72   S    
C21   C28   A    
C58   O26   S    
C91   H10   S    
C3    C83   A    
O12   Zn6   S    
C2    H28   S    
C7    C107  A    
C98   H45   S    
C21   C93   A    
C9    C114  A    
C14   H54   S    
C85   C91   A    
C18   C45   S    
O5    Zn5   S    
C81   H72   S    
C12   H51   S    
C16   H63   S    
C44   C51   A    
C57   C64   A    
C49   O13   A    
C34   H39   S    
C99   C106  A    
C4    C110  A    
C100  C107  A    
C47   C93   A    
C15   H60   S    
C1    O9    A    
C104  H27   S    
O14   Zn5   S    
C64   C78   S    
C83   H2    S    
O12   Zn2   S    
O13   Zn2   S    
C15   C42   S    
C88   H7    S    
C20   C26   A    
C33   H38   S    
C92   H12   S    
C32   C70   S    
C94   H1    S    
C43   C50   A    
C54   C66   A    
C54   C61   A    
C30   C36   A    
C65   C72   A    
C5    C111  A    
C49   O29   A    
C29   C35   A    
O12   Zn8   S    
O30   Zn7   S    
C71   O31   A    
O8    Zn4   S    
C25   H37   S    
O29   Zn8   S    
C21   H32   S    
C9    C60   S    
C89   C96   A    
C60   O30   A    
C17   C44   S    
C87   H6    S    
C93   H26   S    
C86   C92   A    
H46   O21   S    
C46   H18   S    
C17   H65   S    
O32   Zn1   S    
C63   C75   S    
C18   H69   S    
H50   O26   S    
C75   O3    A    
C7    C38   S    
C15   H58   S    
C10   C110  A    
C62   C68   A    
C13   H29   S    
C57   C72   A    
C105  C111  A    
C85   H4    S    
C19   C25   A    
C103  H16   S    
C30   C68   S    
C24   C31   A    
C81   C88   A    
C76   O4    A    
C37   C44   A    
C31   C37   A    
C5    C10   A    
C95   H34   S    
C80   C113  A    
C36   H41   S    
C54   O21   S    
C2    C23   A    
C27   O27   A    
C20   H31   S    
C36   C43   A    
C27   O10   A    
O15   Zn6   S    
O11   Zn1   S    
C74   O19   A    
C79   C86   A    
C47   H19   S    
C6    C49   S    
C95   C101  A    
C26   C33   A    
C25   C32   A    
