data_mof_unit_4462.cif
_audit_creation_date              2012-12-11T16:53:32-0500
_audit_creation_method            fapswitch 2.2
_symmetry_space_group_name_H-M    P1
_symmetry_Int_Tables_number       1
_space_group_crystal_system       triclinic
_cell_length_a                    14.91668
_cell_length_b                    14.747392
_cell_length_c                    16.929083
_cell_angle_alpha                 108.617205
_cell_angle_beta                  106.227121
_cell_angle_gamma                 108.519431
_cell_volume                      3031.04634246

loop_
_atom_site_label
_atom_site_type_symbol
_atom_type_description
_atom_site_fract_x
_atom_site_fract_y
_atom_site_fract_z
_atom_type_partial_charge
C1    C     C_R   0.087784 0.282168 0.070009 -0.127685
C2    C     C_R   0.028676 0.463492 0.725790 0.011534
C3    C     C_R   0.659766 0.223746 0.750657 0.063306
C4    C     C_R   0.362953 0.570414 0.061525 -0.043067
C5    C     C_R   0.238277 0.704639 0.266122 -0.126922
C6    C     C_R   0.751654 0.566352 0.975384 -0.137278
C7    C     C_R   0.892122 0.395760 0.176503 -0.138144
C8    C     C_R   0.084369 0.802093 0.005951 -0.084241
C9    C     C_R   0.913690 0.718002 0.928675 -0.135096
C10   C     C_R   0.064875 0.481058 0.253594 -0.134538
C11   C     C_R   0.236417 0.800017 0.186980 -0.138338
C12   C     C_R   0.936159 0.450503 0.735121 -0.125475
C13   C     C_R   0.743060 0.469345 0.053168 -0.128187
C14   C     C_R   0.271564 0.808767 0.275127 0.053018
C15   C     C_R   0.715773 0.545486 0.037330 0.079623
C16   C     C_R   0.973947 0.419601 0.255522 0.068577
C17   C     C_R   0.999567 0.814409 0.960301 0.044358
C18   C     C_R   0.507210 0.627954 0.020612 0.143745
C19   C     C_R   0.473216 0.602034 0.082966 -0.085592
C20   C     C_R   0.542210 0.592018 0.153007 -0.037281
C21   C     C_R   0.630163 0.582072 0.143369 -0.190796
C22   C     C_R   0.649912 0.587511 0.068100 -0.006184
C23   C     C_R   0.717843 0.217215 0.826345 -0.125666
C24   C     C_R   0.594672 0.622721 0.014208 0.155719
C25   C     C_3   0.546566 0.580575 0.911503 -0.503370
C26   C     C_3   0.449977 0.586155 0.918647 -0.498265
C27   C     C_R   0.966610 0.377683 0.322698 0.124109
C28   C     C_R   0.038173 0.418652 0.639191 0.135773
C29   C     C_R   0.143325 0.437076 0.553814 -0.220197
C30   C     C_R   0.136425 0.451962 0.636887 -0.170763
C31   C     C_R   0.947702 0.355372 0.556219 -0.265997
C32   C     C_R   0.953693 0.346141 0.473731 0.181488
C33   C     C_R   0.052189 0.391985 0.473420 0.190853
C34   C     C_R   0.303551 0.605758 0.012885 0.001718
C35   C     C_R   0.057870 0.403750 0.396406 -0.288943
C36   C     C_R   0.868798 0.321544 0.319567 -0.159826
C37   C     C_R   0.862469 0.304133 0.394262 -0.219956
C38   C     C_R   0.549320 0.154952 0.686810 0.122485
C39   C     C_R   0.326983 0.908354 0.361378 0.039723
C40   C     C_R   0.423830 0.100939 0.449745 -0.251105
C41   C     C_R   0.386035 0.009793 0.367371 0.201852
C42   C     C_R   0.321458 0.901057 0.440897 -0.293755
C43   C     C_R   0.382455 0.989463 0.526098 0.182973
C44   C     C_R   0.432176 0.090364 0.530048 0.141161
C45   C     C_R   0.724489 0.314212 0.750071 -0.140894
C46   C     C_R   0.507153 0.175445 0.613326 -0.253865
C47   C     C_R   0.492934 0.058302 0.686672 -0.171611
C48   C     C_R   0.405896 0.976756 0.606888 -0.201342
C49   C     C_R   0.083140 0.113587 0.139035 0.147827
C50   C     C_R   0.996792 0.100603 0.067965 0.039723
C51   C     C_R   0.903393 0.005528 0.029799 -0.203053
C52   C     C_R   0.893939 0.935617 0.070933 -0.184204
C53   C     C_R   0.977582 0.958619 0.149840 0.035569
C54   C     C_R   0.073629 0.043406 0.178288 0.147743
C55   C     C_3   0.147593 0.129988 0.272554 -0.474105
C56   C     C_R   0.296365 0.498846 0.080056 -0.131638
C57   C     C_3   0.157826 0.207516 0.230419 -0.518667
C58   C     C_R   0.110051 0.533741 0.812469 -0.048361
C59   C     C_R   0.914703 0.197569 0.992955 -0.119077
C60   C     C_R   0.000666 0.186045 0.038653 0.059264
H1    H     H_    0.166193 0.307200 0.117952 0.101288
H2    H     H_    0.745000 0.622406 0.948934 0.102105
H3    H     H_    0.812111 0.336838 0.148617 0.087608
H4    H     H_    0.164912 0.856757 0.029077 0.126183
H5    H     H_    0.836105 0.694669 0.880141 0.095667
H6    H     H_    0.143906 0.501815 0.296860 0.085335
H7    H     H_    0.242454 0.863227 0.167073 0.098671
H8    H     H_    0.726531 0.433932 0.097429 0.104320
H9    H     H_    0.678677 0.563601 0.190394 0.169836
H10   H     H_    0.585942 0.638249 0.888698 0.182609
H11   H     H_    0.857352 0.401342 0.682534 0.102070
H12   H     H_    0.534058 0.497255 0.873979 0.206039
H13   H     H_    0.434158 0.646582 0.899240 0.185762
H14   H     H_    0.381822 0.506154 0.885712 0.202773
H15   H     H_    0.134001 0.443250 0.398890 0.118000
H16   H     H_    0.796780 0.297175 0.262610 0.118635
H17   H     H_    0.219568 0.470298 0.554105 0.130122
H18   H     H_    0.786299 0.267061 0.393044 0.135393
H19   H     H_    0.208021 0.496638 0.699257 0.117207
H20   H     H_    0.871457 0.323886 0.555925 0.119763
H21   H     H_    0.544854 0.251729 0.614167 0.113681
H22   H     H_    0.688429 0.164893 0.855081 0.085987
H23   H     H_    0.520629 0.042029 0.744380 0.116349
H24   H     H_    0.463284 0.179479 0.454685 0.145788
H25   H     H_    0.367117 0.899860 0.605185 0.127372
H26   H     H_    0.278427 0.824823 0.438260 0.134130
H27   H     H_    0.835605 0.988126 0.971886 0.126322
H28   H     H_    0.819940 0.866843 0.044622 0.127602
H29   H     H_    0.109523 0.141799 0.320345 0.203076
H30   H     H_    0.220540 0.122276 0.299059 0.191036
H31   H     H_    0.125350 0.264070 0.253589 0.203156
H32   H     H_    0.237135 0.245108 0.233777 0.194380
H33   H     H_    0.703102 0.353607 0.709415 0.088546
H34   H     H_    0.317224 0.462765 0.124173 0.098448
H35   H     H_    0.192452 0.559690 0.831271 0.108557
H36   H     H_    0.833683 0.145624 0.971555 0.089229
H37   H     H_    0.251857 0.679413 0.319810 0.096684
N1    N     N_R   0.055640 0.348550 0.045600 -0.041659
N2    N     N_R   0.798340 0.505430 0.954400 -0.041788
N3    N     N_R   0.931580 0.439470 0.128350 -0.038858
N4    N     N_R   0.051950 0.704140 0.002340 -0.032880
N5    N     N_R   0.944360 0.651450 0.954400 -0.046502
N6    N     N_R   0.039170 0.492150 0.176290 -0.038241
N7    N     N_R   0.188710 0.696600 0.128350 -0.031348
N8    N     N_R   0.794820 0.447010 0.002340 -0.042436
N9    N     N_R   0.960830 0.507850 0.823710 -0.047979
N10   N     N_R   0.811290 0.303400 0.871650 -0.040072
N11   N     N_R   0.205180 0.552990 0.997660 -0.047888
N12   N     N_R   0.814810 0.361830 0.823710 -0.041730
N13   N     N_R   0.201660 0.494570 0.045600 -0.051552
N14   N     N_R   0.068420 0.560530 0.871650 -0.019881
N15   N     N_R   0.948050 0.295860 0.997660 -0.041441
N16   N     N_R   0.185190 0.638170 0.176290 -0.046091
Ni1   Ni    Ni4+2 0.119330 0.493420 0.109950 0.202696
Ni2   Ni    Ni4+2 0.880670 0.506580 0.890050 0.209093
Ni3   Ni    Ni4+2 0.872590 0.372590 0.000000 0.206001
Ni4   Ni    Ni4+2 0.127410 0.627410 0.000000 0.279703
C61   C     C_2   0.522802 0.589558 0.233649 0.502930
H38   H     H_    0.465717 0.613582 0.249136 0.003315
O1    O     O_2   0.571845 0.562841 0.284953 -0.589102
C62   C     C_3   0.420826 0.023124 0.293394 -0.375350
C63   C     C_3   0.535592 0.103192 0.331432 -0.907784
H39   H     H_    0.547151 0.186796 0.363794 0.253302
H40   H     H_    0.586436 0.087920 0.382300 0.264514
H41   H     H_    0.559960 0.094516 0.274204 0.251934
H42   H     H_    0.415644 0.947071 0.247320 0.201544
H43   H     H_    0.370523 0.048412 0.252459 0.186484
C64   C     C_2   0.343749 0.712304 0.014370 0.416872
H44   H     H_    0.426806 0.764983 0.047711 0.024743
O2    O     O_2   0.284100 0.744050 0.980674 -0.608939

loop_
_geom_bond_atom_site_label_1
_geom_bond_atom_site_label_2
_ccdc_geom_bond_type
N4    N5    A    
C23   H22   S    
C50   C60   S    
C40   H24   S    
N8    Ni3   S    
C3    C23   A    
C19   C20   A    
N3    Ni3   S    
C58   H35   S    
C2    C12   A    
C64   H44   S    
C20   C61   S    
C31   H20   S    
C39   C41   A    
C53   C54   A    
C56   H34   S    
C35   H15   S    
C18   C24   A    
C36   C37   A    
C57   H32   S    
N7    Ni4   S    
C55   H30   S    
N2    Ni2   S    
C11   C14   A    
C45   N12   A    
N1    Ni1   S    
C49   C54   A    
C29   C33   A    
C26   H13   S    
C49   C57   S    
C18   C19   A    
C41   C62   S    
C61   H38   S    
N5    Ni2   S    
C36   H16   S    
C33   C35   A    
C14   C39   S    
C4    C19   S    
C15   C22   S    
C31   C32   A    
C3    C38   S    
C44   C46   A    
C9    N5    A    
C18   C26   S    
C11   N7    A    
C42   H26   S    
C47   H23   S    
C5    C14   A    
C8    N4    A    
N13   Ni1   S    
C16   C27   S    
C6    C15   A    
C45   H33   S    
C59   C60   A    
C21   C22   A    
C4    C56   A    
N10   N12   A    
C56   N13   A    
C11   H7    S    
C50   C51   A    
C39   C42   A    
C61   O1    D    
N9    N14   A    
C10   H6    S    
N2    N8    A    
C4    C34   A    
N1    N15   A    
C7    N3    A    
C51   C52   A    
C52   H28   S    
N6    Ni1   S    
C24   C25   S    
C13   N8    A    
C1    C60   A    
C51   H27   S    
C27   C35   A    
C25   C26   S    
C3    C45   A    
N3    N6    A    
C58   N14   A    
C1    H1    S    
C43   C44   A    
C29   C30   A    
C46   H21   S    
C47   C48   A    
C23   N10   A    
C10   N6    A    
C59   N15   A    
C38   C47   A    
C25   H12   S    
C32   C37   A    
C7    H3    S    
C62   C63   S    
C8    H4    S    
C30   H19   S    
C9    C17   A    
C40   C41   A    
C12   H11   S    
C5    H37   S    
C55   C57   S    
C22   C24   A    
C42   C43   A    
C63   H40   S    
N15   Ni3   S    
C52   C53   A    
N16   Ni1   S    
C43   C48   A    
C54   C55   S    
C7    C16   A    
C57   H31   S    
C5    N16   A    
N11   Ni4   S    
C28   C31   A    
C64   O2    D    
C1    N1    A    
C2    C58   A    
C62   H43   S    
C27   C36   A    
C37   H18   S    
C8    C17   A    
N9    Ni2   S    
N14   Ni4   S    
C34   N11   A    
C32   C33   A    
C6    H2    S    
C63   H41   S    
C13   C15   A    
N4    Ni4   S    
C62   H42   S    
C55   H29   S    
C10   C16   A    
C6    N2    A    
C12   N9    A    
C28   C30   A    
C26   H14   S    
N11   N13   A    
C9    H5    S    
N10   Ni3   S    
C38   C46   A    
N12   Ni2   S    
N7    N16   A    
C40   C44   A    
C29   H17   S    
C20   C21   A    
C34   C64   S    
C49   C50   A    
C59   H36   S    
C21   H9    S    
C48   H25   S    
C2    C28   S    
C25   H10   S    
C63   H39   S    
C13   H8    S    
