data_mof_unit_130.cif
_audit_creation_date              2012-12-10T17:24:42-0500
_audit_creation_method            fapswitch 2.2
_symmetry_space_group_name_H-M    P1
_symmetry_Int_Tables_number       1
_space_group_crystal_system       triclinic
_cell_length_a                    23.531729
_cell_length_b                    10.854897
_cell_length_c                    9.587356
_cell_angle_alpha                 90.986454
_cell_angle_beta                  90.17047
_cell_angle_gamma                 93.309296
_cell_volume                      2444.47606653

loop_
_atom_site_label
_atom_site_type_symbol
_atom_type_description
_atom_site_fract_x
_atom_site_fract_y
_atom_site_fract_z
_atom_type_partial_charge
C1    C     C_R   0.504842 0.263466 0.499684 0.800639
C2    C     C_R   0.964531 0.300018 0.579482 -0.126506
C3    C     C_R   0.023497 0.297001 0.573524 -0.130372
C4    C     C_R   0.057099 0.404270 0.544123 -0.023369
C5    C     C_R   0.030874 0.516009 0.521873 -0.014428
C6    C     C_R   0.064528 0.623557 0.492864 -0.059097
C7    C     C_R   0.038539 0.735095 0.474960 -0.127999
C8    C     C_R   0.979252 0.741797 0.484159 -0.020064
C9    C     C_R   0.116563 0.402698 0.536470 0.546353
C10   C     C_R   0.123946 0.617586 0.485915 0.548347
C11   C     C_R   0.239604 0.494205 0.629380 -0.095944
C12   C     C_R   0.390997 0.499621 0.499962 0.809021
C13   C     C_R   0.298714 0.491993 0.627596 -0.196097
C14   C     C_R   0.328434 0.500463 0.500759 -0.048096
C15   C     C_R   0.297827 0.510814 0.375729 -0.203575
C16   C     C_R   0.238598 0.513546 0.377933 -0.084914
C17   C     C_R   0.209379 0.505279 0.504787 0.347159
C18   C     C_R   0.764930 0.472941 0.391163 0.005902
C19   C     C_R   0.704577 0.465944 0.382582 -0.074888
C20   C     C_R   0.672280 0.499863 0.500953 -0.184616
C21   C     C_R   0.700598 0.540154 0.623917 -0.175266
C22   C     C_R   0.759928 0.549141 0.632704 0.025760
C23   C     C_R   0.497567 0.737786 0.502154 0.789650
C24   C     C_R   0.792096 0.515957 0.515889 0.176335
C25   C     C_R   0.544499 0.129154 0.748075 -0.137696
C26   C     C_R   0.541200 0.073648 0.877853 -0.105305
C27   C     C_R   0.513684 0.957841 0.889946 -0.132496
C28   C     C_R   0.494820 0.892426 0.770529 -0.161299
C29   C     C_R   0.503564 0.942183 0.635672 0.096096
C30   C     C_R   0.520225 0.068603 0.627949 0.096250
C31   C     C_R   0.510902 0.130201 0.501225 -0.116231
C32   C     C_R   0.499362 0.061921 0.378480 -0.195483
C33   C     C_R   0.494669 0.934584 0.381211 -0.201544
C34   C     C_R   0.609141 0.498688 0.499862 0.765714
C35   C     C_R   0.496335 0.872794 0.508282 -0.113077
C36   C     C_R   0.576367 0.664983 0.147466 -0.225799
C37   C     C_R   0.614157 0.745707 0.077179 -0.008284
C38   C     C_R   0.613807 0.744384 0.932548 -0.130899
C39   C     C_R   0.576097 0.664238 0.859304 -0.205347
C40   C     C_R   0.537349 0.581091 0.927082 0.199340
C41   C     C_R   0.537390 0.581294 0.076521 0.204039
C42   C     C_R   0.464680 0.420076 0.070158 0.053477
C43   C     C_R   0.465085 0.421959 0.922115 -0.031719
C44   C     C_R   0.884129 0.626500 0.498101 0.489859
C45   C     C_R   0.878588 0.413050 0.556900 0.532363
C46   C     C_R   0.937872 0.410265 0.555677 -0.015922
C47   C     C_R   0.970999 0.519642 0.527783 -0.011879
C48   C     C_R   0.944418 0.631631 0.504725 -0.093868
Cu1   Cu    Cu3+1 0.500000 0.499990 0.640660 0.932871
Cu2   Cu    Cu3+1 0.500000 0.500010 0.359340 0.920190
H1    H     H_    0.566829 0.218823 0.742943 0.168463
H2    H     H_    0.507911 0.917390 0.991764 0.136875
H3    H     H_    0.488408 0.884544 0.283089 0.165568
H4    H     H_    0.042598 0.210184 0.591381 0.204295
H5    H     H_    0.579519 0.671256 0.257647 0.191714
H6    H     H_    0.215360 0.521875 0.281220 0.146728
N1    N     N_R   0.853160 0.519170 0.525939 -0.485610
N2    N     N_R   0.148588 0.508359 0.507737 -0.471076
N3    N     N_R   0.500540 0.501210 0.147910 -0.240054
N4    N     N_R   0.500560 0.501290 0.852040 -0.226251
O1    O     O_R   0.500000 0.319640 0.618810 -0.580919
O2    O     O_2   0.846306 0.309905 0.586007 -0.506541
O3    O     O_2   0.142238 0.296443 0.556999 -0.514626
O4    O     O_2   0.156917 0.720254 0.459067 -0.518783
O5    O     O_R   0.500000 0.319660 0.381240 -0.612368
O6    O     O_R   0.417880 0.499950 0.618810 -0.577897
O7    O     O_R   0.417880 0.499980 0.381240 -0.606924
O8    O     O_R   0.500000 0.680340 0.618760 -0.611305
O9    O     O_R   0.500000 0.680360 0.381190 -0.595745
O10   O     O_R   0.582120 0.500020 0.618760 -0.587702
O11   O     O_R   0.582120 0.500050 0.381190 -0.605891
O12   O     O_2   0.856271 0.725398 0.459130 -0.536777
H7    H     H_    0.939878 0.215200 0.601275 0.201345
C49   C     C_2   0.675559 0.423025 0.251317 0.499372
H8    H     H_    0.641089 0.352247 0.253980 0.067153
O13   O     O_2   0.688945 0.468909 0.139864 -0.483472
H9    H     H_    0.676158 0.566554 0.714003 0.202358
C50   C     C_2   0.788265 0.591797 0.765112 0.461532
H10   H     H_    0.834303 0.597788 0.773808 0.071513
O14   O     O_2   0.760511 0.620834 0.866741 -0.494356
H11   H     H_    0.493558 0.106852 0.279816 0.171043
H12   H     H_    0.558376 0.122192 0.969613 0.147996
H13   H     H_    0.471410 0.805887 0.787912 0.175632
C51   C     C_2   0.424750 0.327172 0.135823 0.336492
H14   H     H_    0.418372 0.323445 0.246180 0.152842
O15   O     O_2   0.397306 0.250366 0.064657 -0.566570
C52   C     C_2   0.653779 0.831282 0.157235 0.436907
H15   H     H_    0.653572 0.830844 0.270480 0.052928
O16   O     O_2   0.687037 0.903254 0.098111 -0.490242
H16   H     H_    0.642551 0.806298 0.875169 0.198181
H17   H     H_    0.578930 0.672226 0.749391 0.205008
H18   H     H_    0.436875 0.359287 0.861669 0.192081
H19   H     H_    0.064784 0.818867 0.458145 0.221991
C53   C     C_2   0.956476 0.866632 0.481826 0.449830
H20   H     H_    0.919220 0.887356 0.542019 0.127644
O17   O     O_2   0.980439 0.949592 0.415844 -0.530645
H21   H     H_    0.217193 0.487924 0.727721 0.145494
H22   H     H_    0.321059 0.483705 0.725609 0.166455
H23   H     H_    0.319587 0.517472 0.276528 0.162855
C54   C     C_2   0.801165 0.431947 0.273823 0.512411
H24   H     H_    0.843357 0.475389 0.259081 0.067786
O18   O     O_2   0.785627 0.345851 0.196595 -0.484025

loop_
_geom_bond_atom_site_label_1
_geom_bond_atom_site_label_2
_ccdc_geom_bond_type
C52   H15   S    
C40   N4    A    
Cu1   O8    S    
C23   O9    A    
C19   C20   A    
C16   H6    S    
C7    C8    A    
C45   C46   A    
C2    C46   A    
C32   H11   S    
C5    C47   A    
C45   N1    A    
C26   C27   A    
C29   C30   A    
Cu1   N4    S    
C49   O13   D    
C18   C24   A    
Cu2   N3    S    
C28   C29   A    
C10   N2    A    
Cu2   O9    S    
C51   O15   D    
C18   C19   A    
C38   C39   A    
C3    H4    S    
C50   O14   D    
C15   C16   A    
C45   O2    S    
C1    C31   S    
C9    N2    A    
C13   H22   S    
C11   C17   A    
C47   C48   A    
C16   C17   A    
C1    O5    A    
Cu2   O7    S    
C34   O10   A    
C17   N2    S    
C20   C34   S    
C26   H12   S    
C21   C22   A    
C28   H13   S    
C36   C41   A    
C18   C54   S    
C39   H17   S    
C33   H3    S    
C7    H19   S    
C12   O7    A    
Cu1   O1    S    
Cu1   O6    S    
C8    C53   S    
C51   H14   S    
C22   C50   S    
C49   H8    S    
C39   C40   A    
C50   H10   S    
C24   N1    S    
C25   C26   A    
C12   O6    A    
C23   O8    A    
Cu2   O11   S    
C25   H1    S    
C37   C38   A    
C31   C32   A    
C44   N1    A    
C54   O18   D    
C42   C51   S    
C53   O17   D    
C41   N3    A    
C2    H7    S    
C43   N4    A    
C40   C41   A    
C12   C14   S    
C23   C35   S    
Cu1   O10   S    
C52   O16   D    
C22   C24   A    
C42   C43   A    
C3    C4    A    
C27   H2    S    
C25   C30   A    
C38   H16   S    
C46   C47   A    
C36   C37   A    
C9    O3    S    
C37   C52   S    
C19   C49   S    
C10   O4    S    
C15   H23   S    
C4    C5    A    
C1    O1    A    
C42   N3    A    
C6    C10   A    
C6    C7    A    
C29   C35   A    
C43   H18   S    
C11   H21   S    
C32   C33   A    
C2    C3    A    
C36   H5    S    
C8    C48   A    
C11   C13   A    
C30   C31   A    
C54   H24   S    
C33   C35   A    
C44   O12   S    
C53   H20   S    
Cu2   O5    S    
C20   C21   A    
Cu1   Cu2   S    
C21   H9    S    
C27   C28   A    
C5    C6    A    
C14   C15   A    
C4    C9    A    
C13   C14   A    
C34   O11   A    
C44   C48   A    
