data_mof_unit_254.cif
_audit_creation_date              2012-12-10T17:10:21-0500
_audit_creation_method            fapswitch 2.2
_symmetry_space_group_name_H-M    P1
_symmetry_Int_Tables_number       1
_space_group_crystal_system       triclinic
_cell_length_a                    15.710215
_cell_length_b                    10.711427
_cell_length_c                    9.997929
_cell_angle_alpha                 89.588462
_cell_angle_beta                  92.603604
_cell_angle_gamma                 89.303722
_cell_volume                      1680.52846417

loop_
_atom_site_label
_atom_site_type_symbol
_atom_type_description
_atom_site_fract_x
_atom_site_fract_y
_atom_site_fract_z
_atom_type_partial_charge
C1    C     C_R   0.494353 0.263260 0.499872 0.947369
C2    C     C_2   0.508379 0.869979 0.494712 -0.205903
C3    C     C_2   0.479968 0.069972 0.386449 -0.218902
C4    C     C_R   0.337849 0.503154 0.496923 0.888210
C5    C     C_2   0.474329 0.134679 0.498662 -0.327249
C6    C     C_2   0.544580 0.577087 0.927373 -0.142932
C7    C     C_2   0.540342 0.581971 0.077255 -0.095560
C8    C     C_R   0.499830 0.737687 0.499057 0.877072
C9    C     C_R   0.662152 0.499867 0.503110 0.915172
C10   C     C_3   0.978526 0.408077 0.546277 -0.018496
C11   C     C_3   0.022408 0.428345 0.411909 -0.058658
C12   C     C_3   0.082652 0.522613 0.482986 0.038593
C13   C     C_1   0.249046 0.514172 0.488802 -0.194218
C14   C     C_1   0.751008 0.504408 0.511004 -0.193690
C15   C     C_3   0.038673 0.502924 0.615882 -0.001335
C16   C     C_R   0.038359 0.322777 0.316224 0.086836
C17   C     C_R   0.968877 0.251509 0.268446 -0.159945
C18   C     C_R   0.980980 0.153382 0.179599 -0.094663
C19   C     C_R   0.062562 0.124905 0.138050 -0.080027
C20   C     C_R   0.132076 0.194513 0.185411 -0.145372
C21   C     C_R   0.120191 0.293211 0.273814 -0.175411
C22   C     C_R   0.957228 0.289393 0.620126 0.101459
C23   C     C_3   0.975656 0.611663 0.580735 -0.294973
C24   C     C_R   0.999417 0.175765 0.595545 -0.152005
C25   C     C_R   0.986032 0.070642 0.675300 -0.111662
C26   C     C_R   0.932301 0.078615 0.782456 -0.153940
C27   C     C_R   0.891167 0.191424 0.809072 -0.144228
C28   C     C_R   0.903000 0.295840 0.727874 -0.124819
C29   C     C_R   0.912350 0.575378 0.245587 0.107778
C30   C     C_R   0.936674 0.528723 0.121807 -0.159486
C31   C     C_R   0.892516 0.565503 0.003131 -0.142726
C32   C     C_R   0.824451 0.650232 0.006140 -0.126487
C33   C     C_R   0.801086 0.699863 0.127969 -0.145394
C34   C     C_3   0.916802 0.516841 0.509318 0.093739
C35   C     C_R   0.845270 0.663799 0.246781 -0.063148
C36   C     C_2   0.043709 0.758751 0.398560 0.883114
C37   C     C_R   0.087752 0.484888 0.748389 0.134680
C38   C     C_R   0.083986 0.575058 0.849458 -0.159455
C39   C     C_R   0.132276 0.559673 0.969487 -0.162761
C40   C     C_R   0.185396 0.455092 0.989166 -0.113690
C41   C     C_R   0.189802 0.365114 0.889172 -0.121471
C42   C     C_R   0.141375 0.379946 0.769157 -0.120574
C43   C     C_R   0.415510 0.881153 0.281638 0.160174
C44   C     C_R   0.342362 0.812948 0.309821 -0.092081
C45   C     C_3   0.020657 0.631518 0.448152 -0.003893
C46   C     C_R   0.295443 0.754271 0.206453 -0.108044
C47   C     C_R   0.319498 0.766222 0.074256 -0.139604
C48   C     C_R   0.390717 0.836342 0.045049 -0.133678
C49   C     C_R   0.438793 0.893327 0.148064 -0.171770
C50   C     C_R   0.573661 0.920965 0.592168 0.133501
C51   C     C_R   0.560613 0.916098 0.730262 -0.141646
C52   C     C_R   0.623713 0.956416 0.822297 -0.166239
C53   C     C_R   0.700293 0.002003 0.777295 -0.103851
C54   C     C_R   0.713746 0.008138 0.640081 -0.132382
C55   C     C_R   0.650804 0.967371 0.547613 -0.147197
C56   C     C_3   0.959989 0.538934 0.375877 -0.053087
C57   C     C_1   0.173732 0.521653 0.482588 -0.012055
C58   C     C_1   0.826219 0.509934 0.514783 -0.076589
C59   C     C_2   0.469937 0.936582 0.391557 -0.032021
H1    H     H_    0.455387 0.091803 0.591387 0.157188
H2    H     H_    0.071914 0.048929 0.069223 0.127016
H3    H     H_    0.195301 0.172346 0.153112 0.129801
H4    H     H_    0.175071 0.345525 0.307528 0.135770
H5    H     H_    0.045145 0.168456 0.518602 0.150929
H6    H     H_    0.018827 0.983637 0.655766 0.147035
H7    H     H_    0.923026 0.997718 0.845408 0.125096
H8    H     H_    0.850562 0.198459 0.893340 0.127415
H9    H     H_    0.871175 0.382453 0.751035 0.128809
H10   H     H_    0.990589 0.466188 0.115328 0.164848
H11   H     H_    0.911806 0.529515 0.908454 0.135786
H12   H     H_    0.585971 0.642801 0.879988 0.161174
H13   H     H_    0.790573 0.678605 0.913972 0.132422
H14   H     H_    0.749126 0.767020 0.130315 0.116233
H15   H     H_    0.827316 0.705845 0.339641 0.144083
H16   H     H_    0.136283 0.878051 0.352457 0.338222
H17   H     H_    0.044366 0.657802 0.835937 0.124820
H18   H     H_    0.128644 0.629179 0.047129 0.138325
H19   H     H_    0.223358 0.444078 0.081653 0.127259
H20   H     H_    0.231180 0.284241 0.904295 0.119031
H21   H     H_    0.146645 0.310584 0.691683 0.121764
H22   H     H_    0.323120 0.802656 0.411949 0.125610
H23   H     H_    0.457696 0.444332 0.895262 0.163497
H24   H     H_    0.240923 0.698416 0.228726 0.168175
H25   H     H_    0.283227 0.720823 0.994377 0.141772
H26   H     H_    0.409221 0.845135 0.942662 0.126475
H27   H     H_    0.495144 0.944606 0.123945 0.107693
H28   H     H_    0.501610 0.880806 0.766279 0.127402
H29   H     H_    0.613415 0.951660 0.928532 0.117488
H30   H     H_    0.749137 0.031893 0.849144 0.120749
H31   H     H_    0.773183 0.043393 0.605347 0.156918
H32   H     H_    0.662450 0.970450 0.441695 0.128765
H33   H     H_    0.573815 0.656810 0.128854 0.156008
H34   H     H_    0.473216 0.426391 0.100668 0.154005
H35   H     H_    0.953265 0.686477 0.647369 0.144156
H36   H     H_    0.492871 0.113931 0.291292 0.172221
H37   H     H_    0.905215 0.272462 0.299864 0.142774
H38   H     H_    0.927095 0.099410 0.142979 0.131238
N1    N     N_2   0.500900 0.501330 0.852150 -0.189390
N2    N     N_2   0.500930 0.501360 0.147810 -0.188234
O1    O     O_R   0.499990 0.319060 0.613040 -0.615134
O2    O     O_R   0.129032 0.789294 0.385617 -0.842729
O3    O     O_R   0.500010 0.319100 0.386900 -0.622137
O4    O     O_R   0.376760 0.499970 0.613050 -0.607628
O5    O     O_R   0.376790 0.500010 0.386910 -0.617556
O6    O     O_R   0.499990 0.680900 0.613100 -0.618619
O7    O     O_R   0.500010 0.680940 0.386960 -0.604935
O8    O     O_R   0.623210 0.499990 0.613090 -0.606015
O9    O     O_R   0.623240 0.500030 0.386950 -0.606488
O10   O     O_2   0.987572 0.836305 0.372656 -0.652280
Zn1   Zn    Zn3+2 0.499980 0.499970 0.650990 0.945042
Zn2   Zn    Zn3+2 0.500020 0.500030 0.349010 0.943747

loop_
_geom_bond_atom_site_label_1
_geom_bond_atom_site_label_2
_ccdc_geom_bond_type
O6    Zn1   S    
C35   H15   S    
C34   C56   S    
C16   C21   A    
C23   C45   S    
C41   C42   A    
C19   C20   A    
C43   C44   A    
C8    O6    A    
C32   H13   S    
C38   H17   S    
C53   C54   A    
C10   C22   S    
C9    O9    A    
O1    Zn1   S    
C26   C27   A    
C37   C38   A    
C7    N2    D    
O4    Zn1   S    
C1    C5    S    
C39   H18   S    
C28   H9    S    
C54   H31   S    
C10   C15   S    
C30   C31   A    
C13   C57   T    
C4    O4    A    
C4    C13   S    
C18   C19   A    
C37   C42   A    
C15   C37   S    
C55   H32   S    
C2    C50   S    
C54   C55   A    
C31   H11   S    
C31   C32   A    
C45   C56   S    
C16   C17   A    
C18   H38   S    
H34   N2    S    
C43   C59   S    
C15   C23   S    
C24   H5    S    
C22   C28   A    
H23   N1    S    
O3    Zn2   S    
N1    Zn1   S    
C1    O1    A    
C44   C46   A    
C50   C51   A    
O7    Zn2   S    
C6    H12   S    
C14   C58   T    
C51   C52   A    
C26   H7    S    
C52   H29   S    
C25   H6    S    
C24   C25   A    
C44   H22   S    
C51   H28   S    
C39   C40   A    
C2    C59   D    
C43   C49   A    
C25   C26   A    
C36   O2    S    
C9    C14   S    
C29   C30   A    
C11   C16   S    
C47   C48   A    
C12   C15   S    
C23   C34   S    
N2    Zn2   S    
C17   C18   A    
C36   C45   S    
C10   C34   S    
C17   H37   S    
C47   H25   S    
C12   C57   S    
C33   H14   S    
C48   C49   A    
C53   H30   S    
O8    Zn1   S    
C22   C24   A    
C6    N1    D    
C36   O10   D    
C30   H10   S    
C52   C53   A    
C34   C58   S    
C46   C47   A    
C40   C41   A    
C5    H1    S    
C49   H27   S    
C2    C8    S    
C12   C45   S    
C3    C5    D    
C8    O7    A    
C41   H20   S    
O5    Zn2   S    
C11   C12   S    
C23   H35   S    
C6    C7    S    
C29   C56   S    
C9    O8    A    
C29   C35   A    
C50   C55   A    
O9    Zn2   S    
C32   C33   A    
C42   H21   S    
C38   C39   A    
C19   H2    S    
C7    H33   S    
C4    O5    A    
C33   C35   A    
C40   H19   S    
C20   H3    S    
C21   H4    S    
C27   H8    S    
C10   C11   S    
C46   H24   S    
C20   C21   A    
C27   C28   A    
H16   O2    S    
C48   H26   S    
C3    H36   S    
C1    O3    A    
C11   C56   S    
C3    C59   S    
