data_mof_unit_1436.cif
_audit_creation_date              2012-12-10T16:50:57-0500
_audit_creation_method            fapswitch 2.2
_symmetry_space_group_name_H-M    P1
_symmetry_Int_Tables_number       1
_space_group_crystal_system       triclinic
_cell_length_a                    7.889334
_cell_length_b                    8.555588
_cell_length_c                    10.498856
_cell_angle_alpha                 91.084002
_cell_angle_beta                  87.271376
_cell_angle_gamma                 93.156605
_cell_volume                      706.678847284

loop_
_atom_site_label
_atom_site_type_symbol
_atom_type_description
_atom_site_fract_x
_atom_site_fract_y
_atom_site_fract_z
_atom_type_partial_charge
C1    C     C_R   0.544886 0.794002 0.497725 0.993483
C2    C     C_R   0.972573 0.629157 0.072468 -0.117554
C3    C     C_R   0.097922 0.751107 0.074031 -0.174958
C4    C     C_R   0.987265 0.615243 0.939616 -0.237547
C5    C     C_R   0.242550 0.713847 0.137224 -0.226208
C6    C     C_R   0.839374 0.614381 0.869984 -0.224336
C7    C     C_R   0.371923 0.636952 0.070388 0.008930
C8    C     C_R   0.678292 0.592435 0.932622 0.016333
C9    C     C_R   0.380953 0.641916 0.936456 -0.041823
C10   C     C_R   0.668600 0.602306 0.066117 -0.057217
C11   C     C_R   0.510262 0.583729 0.131299 -0.184147
C12   C     C_R   0.454965 0.206003 0.500746 0.946732
C13   C     C_R   0.524317 0.584986 0.869448 -0.185866
C14   C     C_3   0.412791 0.951310 0.817561 -0.355522
C15   C     C_3   0.730786 0.894974 0.206332 -0.365077
C16   C     C_2   0.568127 0.957658 0.498473 -0.382287
C17   C     C_2   0.431478 0.042242 0.496029 -0.391471
C18   C     C_R   0.508202 0.525828 0.738356 0.896545
C19   C     C_R   0.501069 0.524520 0.261669 0.890513
C20   C     C_R   0.261198 0.728892 0.876285 0.563869
C21   C     C_R   0.813794 0.657311 0.129096 0.552782
C22   C     C_R   0.101906 0.747877 0.938438 -0.211120
H1    H     H_    0.047424 0.509010 0.906625 0.175736
H2    H     H_    0.991661 0.629314 0.584744 0.188319
H3    H     H_    0.546621 0.918381 0.822299 0.170389
H4    H     H_    0.366833 0.998874 0.911949 0.145995
H5    H     H_    0.409965 0.048466 0.749941 0.201110
H6    H     H_    0.590418 0.883446 0.220708 0.171570
H7    H     H_    0.764970 0.934582 0.107292 0.140761
H8    H     H_    0.779100 0.988895 0.271412 0.192715
H9    H     H_    0.056472 0.860862 0.115115 0.181096
H10   H     H_    0.046369 0.849600 0.899315 0.170010
H11   H     H_    0.006577 0.521526 0.116973 0.134724
H12   H     H_    0.251364 0.745966 0.237093 0.185473
H13   H     H_    0.852933 0.639791 0.770163 0.179230
H14   H     H_    0.697386 0.008075 0.502558 0.179507
H15   H     H_    0.302110 0.991764 0.492843 0.196549
H16   H     H_    0.009978 0.375407 0.410330 0.183554
N1    N     N_2   0.950330 0.457950 0.466250 -0.170891
N2    N     N_2   0.049670 0.542050 0.533750 -0.168192
O1    O     O_R   0.389250 0.738570 0.508280 -0.591460
O2    O     O_3   0.803498 0.753404 0.236947 -0.586109
O3    O     O_R   0.610750 0.261430 0.491720 -0.613382
O4    O     O_R   0.678390 0.711630 0.486650 -0.597690
O5    O     O_R   0.321610 0.288370 0.513350 -0.624246
O6    O     O_R   0.355430 0.513480 0.694040 -0.595934
O7    O     O_R   0.644570 0.486520 0.305960 -0.594181
O8    O     O_R   0.644570 0.486540 0.672410 -0.637742
O9    O     O_R   0.355430 0.513460 0.327590 -0.638424
O10   O     O_3   0.309925 0.822562 0.773435 -0.603051
Zn1   Zn    Zn3+2 0.306940 0.517990 0.514440 0.957569
Zn2   Zn    Zn3+2 0.693060 0.482010 0.485560 0.952943

loop_
_geom_bond_atom_site_label_1
_geom_bond_atom_site_label_2
_ccdc_geom_bond_type
C12   C17   S    
C2    C4    A    
C5    C7    A    
O7    Zn2   S    
C14   H5    S    
N2    Zn1   S    
C4    C22   A    
C19   O9    A    
C1    O4    A    
C7    C11   A    
C5    H12   S    
O4    Zn2   S    
C2    C21   A    
N1    Zn2   S    
C14   H3    S    
C1    C16   S    
C17   H15   S    
C14   H4    S    
C3    H9    S    
C11   C19   S    
C15   H6    S    
C8    C13   A    
C22   H10   S    
C13   C18   S    
C20   O10   S    
C18   O6    A    
C2    H11   S    
C4    C6    A    
H2    N2    S    
C20   C22   A    
C15   H7    S    
C12   O3    A    
C2    C3    A    
C10   C21   A    
H16   N1    S    
C19   O7    A    
O3    Zn2   S    
C10   C11   A    
C14   O10   S    
C21   O2    S    
O8    Zn2   S    
C9    C13   A    
C6    H13   S    
C15   H8    S    
C8    C10   A    
C1    O1    A    
N1    N2    D    
C7    C9    A    
C4    H1    S    
O5    Zn1   S    
C12   O5    A    
C3    C22   A    
C6    C8    A    
C9    C20   A    
C3    C5    A    
O6    Zn1   S    
O1    Zn1   S    
C16   H14   S    
C15   O2    S    
C16   C17   D    
O9    Zn1   S    
C18   O8    A    
