data_mof_unit_3911.cif
_audit_creation_date              2012-12-11T14:34:08-0500
_audit_creation_method            fapswitch 2.2
_symmetry_space_group_name_H-M    P1
_symmetry_Int_Tables_number       1
_space_group_crystal_system       triclinic
_cell_length_a                    13.852349
_cell_length_b                    13.990511
_cell_length_c                    27.347823
_cell_angle_alpha                 90.00035
_cell_angle_beta                  90.09957
_cell_angle_gamma                 119.63348
_cell_volume                      4606.82466467

loop_
_atom_site_label
_atom_site_type_symbol
_atom_type_description
_atom_site_fract_x
_atom_site_fract_y
_atom_site_fract_z
_atom_type_partial_charge
C1    C     C_R   0.234331 0.786801 0.568911 0.539550
C2    C     C_1   0.703600 0.860467 0.860805 -0.029673
C3    C     C_1   0.117685 0.874712 0.853827 -0.028910
C4    C     C_1   0.118462 0.241534 0.853535 -0.026775
C5    C     C_1   0.625574 0.812629 0.659560 -0.073622
C6    C     C_1   0.180871 0.814527 0.657598 -0.074475
C7    C     C_1   0.181326 0.366135 0.657603 -0.074137
C8    C     C_1   0.599180 0.795130 0.617133 -0.016540
C9    C     C_1   0.201452 0.803767 0.615999 -0.015556
C10   C     C_1   0.194755 0.397626 0.616017 -0.016025
C11   C     C_R   0.065847 0.151579 0.096136 0.568905
C12   C     C_R   0.212891 0.447260 0.568945 0.542302
C13   C     C_R   0.776428 0.883607 0.087718 0.549368
C14   C     C_R   0.116551 0.893929 0.088282 0.562151
C15   C     C_R   0.070632 0.162643 0.943013 0.532758
C16   C     C_R   0.779442 0.886991 0.950885 0.543576
C17   C     C_R   0.091516 0.928190 0.943159 0.529509
C18   C     C_R   0.608607 0.889371 0.358822 -0.131472
C19   C     C_R   0.099502 0.726729 0.362125 -0.130646
C20   C     C_R   0.274878 0.378699 0.360494 -0.131929
C21   C     C_R   0.627761 0.901507 0.308487 -0.011621
C22   C     C_R   0.083039 0.737783 0.312502 -0.011428
C23   C     C_R   0.552337 0.765037 0.569145 0.539742
C24   C     C_R   0.254916 0.331425 0.313952 -0.010826
C25   C     C_R   0.662926 0.921536 0.206703 0.017835
C26   C     C_R   0.063847 0.754409 0.210699 0.022296
C27   C     C_R   0.216416 0.253751 0.216878 0.020299
C28   C     C_R   0.232310 0.787980 0.431833 0.547565
C29   C     C_R   0.212214 0.445067 0.431384 0.549470
C30   C     C_R   0.553701 0.766056 0.431152 0.547070
C31   C     C_R   0.638682 0.995220 0.231926 0.064488
C32   C     C_R   0.986274 0.659023 0.235938 0.082086
C33   C     C_R   0.324979 0.304779 0.236652 0.076480
C34   C     C_3   0.632144 0.724357 0.792278 0.010097
C35   C     C_R   0.621424 0.984699 0.282536 -0.118613
C36   C     C_R   0.996796 0.651340 0.286488 -0.107449
C37   C     C_R   0.343049 0.342311 0.284979 -0.107134
C38   C     C_R   0.693925 0.935915 0.157137 -0.134831
C39   C     C_R   0.055149 0.767785 0.160250 -0.116517
C40   C     C_R   0.195217 0.220242 0.167817 -0.109674
C41   C     C_R   0.716677 0.859936 0.133968 -0.014711
C42   C     C_R   0.135564 0.863002 0.136708 -0.013432
C43   C     C_R   0.087941 0.178108 0.148151 -0.013979
C44   C     C_R   0.636565 0.730899 0.359011 -0.129706
C45   C     C_3   0.259282 0.928511 0.788008 0.011624
C46   C     C_R   0.258708 0.911517 0.363256 -0.128097
C47   C     C_R   0.078496 0.317847 0.369948 -0.129118
C48   C     C_R   0.652041 0.739635 0.308866 0.012613
C49   C     C_R   0.246204 0.922056 0.313673 0.013779
C50   C     C_R   0.057190 0.269760 0.323678 0.016978
C51   C     C_R   0.647416 0.825069 0.283327 0.058218
C52   C     C_R   0.159414 0.834008 0.287814 0.057033
C53   C     C_R   0.146080 0.278719 0.295010 0.057222
C54   C     C_R   0.665956 0.660385 0.283639 -0.122089
C55   C     C_R   0.324485 0.016128 0.289036 -0.120927
C56   C     C_3   0.067630 0.335332 0.788489 0.011700
C57   C     C_R   0.949402 0.218787 0.304497 -0.119303
C58   C     C_R   0.676084 0.666013 0.233181 -0.103875
C59   C     C_R   0.319287 0.021554 0.238602 -0.104682
C60   C     C_R   0.930434 0.181206 0.256453 -0.106556
C61   C     C_R   0.676268 0.752948 0.207812 0.011809
C62   C     C_R   0.233981 0.934617 0.212619 0.011731
C63   C     C_R   0.018218 0.192733 0.227154 0.020300
C64   C     C_3   0.576042 0.871504 0.736829 -0.225759
C65   C     C_3   0.115617 0.717278 0.737403 -0.226783
C66   C     C_3   0.277733 0.391580 0.737196 -0.227525
C67   C     C_3   0.613452 0.712755 0.735849 -0.200489
C68   C     C_R   0.661607 0.833078 0.232572 0.044112
C69   C     C_R   0.151901 0.840997 0.237049 0.041870
C70   C     C_R   0.126755 0.240042 0.246562 0.043816
C71   C     C_R   0.697552 0.764042 0.158340 -0.111112
C72   C     C_R   0.227992 0.942154 0.162575 -0.118129
C73   C     C_R   0.999692 0.162012 0.178147 -0.124270
C74   C     C_R   0.608290 0.801159 0.383714 -0.000182
C75   C     C_R   0.191503 0.811096 0.386634 -0.000741
C76   C     C_R   0.187605 0.376099 0.387681 -0.000595
C77   C     C_3   0.770586 0.905510 0.723627 -0.223622
C78   C     C_3   0.275988 0.910712 0.733127 -0.200354
C79   C     C_3   0.082463 0.873559 0.714760 -0.219455
C80   C     C_3   0.113234 0.208820 0.714293 -0.221502
C81   C     C_3   0.789723 0.920680 0.779581 -0.214178
C82   C     C_3   0.059535 0.881910 0.769393 -0.212639
C83   C     C_3   0.101412 0.176589 0.768833 -0.216900
C84   C     C_1   0.732406 0.872128 0.902970 -0.006580
C85   C     C_1   0.105319 0.897097 0.894977 -0.001073
C86   C     C_1   0.099413 0.206866 0.894713 -0.003921
C87   C     C_3   0.646468 0.825877 0.712552 0.059853
C88   C     C_3   0.163528 0.828237 0.709376 0.059256
C89   C     C_3   0.086171 0.369679 0.733492 -0.200556
C90   C     C_3   0.165229 0.334696 0.709307 0.059960
C91   C     C_3   0.595621 0.883415 0.793031 -0.248401
C92   C     C_3   0.101608 0.734129 0.792701 -0.245925
C93   C     C_3   0.260089 0.359930 0.792219 -0.246053
C94   C     C_3   0.680588 0.846978 0.807923 0.104047
C95   C     C_3   0.134552 0.855779 0.802440 0.104070
C96   C     C_3   0.135740 0.277637 0.802235 0.103283
Cr1   Cr    Cr6+3 0.164410 0.584450 0.499910 1.019948
Cr2   Cr    Cr6+3 0.415550 0.579960 0.499910 1.019023
Cr3   Cr    Cr6+3 0.420040 0.835590 0.499910 1.017302
Cr4   Cr    Cr6+3 0.155170 0.075460 0.019960 1.047077
Cr5   Cr    Cr6+3 0.924540 0.079710 0.019960 1.038077
Cr6   Cr    Cr6+3 0.920290 0.844830 0.019960 1.036673
H1    H     H_    0.626660 0.970461 0.803956 0.122187
H2    H     H_    0.706458 0.007890 0.137183 0.156633
H3    H     H_    0.984616 0.707782 0.139463 0.160067
H4    H     H_    0.261990 0.230034 0.144215 0.168970
H5    H     H_    0.586528 0.943890 0.377785 0.128447
H6    H     H_    0.046194 0.649487 0.380416 0.129588
H7    H     H_    0.359451 0.423719 0.374079 0.129331
H8    H     H_    0.603538 0.042047 0.301614 0.132135
H9    H     H_    0.938603 0.576695 0.305310 0.135452
H10   H     H_    0.427022 0.383798 0.299336 0.132254
H11   H     H_    0.710930 0.702765 0.140008 0.154937
H12   H     H_    0.013913 0.678606 0.803771 0.122182
H13   H     H_    0.291204 0.015375 0.144380 0.155954
H14   H     H_    0.916894 0.128029 0.162839 0.127372
H15   H     H_    0.686513 0.603970 0.214078 0.174071
H16   H     H_    0.381782 0.093798 0.219869 0.176357
H17   H     H_    0.847857 0.146627 0.241592 0.150857
H18   H     H_    0.667499 0.593353 0.302830 0.123908
H19   H     H_    0.391790 0.083768 0.308543 0.123891
H20   H     H_    0.880456 0.211450 0.326041 0.117362
H21   H     H_    0.598310 0.953006 0.720862 0.120047
H22   H     H_    0.033714 0.656870 0.721596 0.120456
H23   H     H_    0.312160 0.322883 0.802658 0.125600
H24   H     H_    0.335633 0.366662 0.720998 0.120065
H25   H     H_    0.637047 0.663067 0.378006 0.129539
H26   H     H_    0.328265 0.977924 0.382334 0.130545
H27   H     H_    0.010826 0.314706 0.391095 0.127089
H28   H     H_    0.822515 0.872619 0.708044 0.108984
H29   H     H_    0.118437 0.956284 0.697562 0.109960
H30   H     H_    0.030035 0.166570 0.696474 0.110822
H31   H     H_    0.797475 0.986771 0.706248 0.109358
H32   H     H_    0.002800 0.818742 0.695679 0.110941
H33   H     H_    0.166004 0.180518 0.695609 0.109419
H34   H     H_    0.486265 0.815374 0.729291 0.108886
H35   H     H_    0.819932 0.008159 0.789149 0.111581
H36   H     H_    0.971025 0.822429 0.777261 0.098974
H37   H     H_    0.157131 0.143222 0.776920 0.109006
H38   H     H_    0.856039 0.902478 0.790682 0.111546
H39   H     H_    0.071417 0.964178 0.777590 0.110045
H40   H     H_    0.015319 0.110749 0.776564 0.109974
H41   H     H_    0.524354 0.653867 0.728167 0.092318
H42   H     H_    0.334807 0.878347 0.730349 0.091757
H43   H     H_    0.122749 0.460488 0.730770 0.091935
H44   H     H_    0.662039 0.677868 0.718614 0.117701
H45   H     H_    0.171859 0.682194 0.733287 0.108085
H46   H     H_    0.314357 0.989723 0.712606 0.117278
H47   H     H_    0.005950 0.332523 0.713213 0.118354
H48   H     H_    0.549845 0.675472 0.810382 0.133916
H49   H     H_    0.308579 0.901211 0.810417 0.134329
H50   H     H_    0.099308 0.411366 0.811076 0.137051
H51   H     H_    0.774531 0.711604 0.787050 0.223979
H52   H     H_    0.659986 0.594768 0.802910 0.222699
H53   H     H_    0.274418 0.079478 0.771695 0.221570
H54   H     H_    0.387295 0.086146 0.797384 0.222699
H55   H     H_    0.912272 0.202517 0.773702 0.222779
H56   H     H_    0.317195 0.482487 0.733541 0.107790
H57   H     H_    0.910556 0.313118 0.796323 0.223197
H58   H     H_    0.515484 0.832505 0.812344 0.103406
H59   H     H_    0.154437 0.711215 0.814934 0.108353
H60   H     H_    0.288157 0.435254 0.814851 0.108782
I1    I     I_    0.628357 0.125516 0.196884 -0.385376
I2    I     I_    0.855778 0.519558 0.200553 -0.362165
I3    I     I_    0.468436 0.338332 0.195457 -0.395025
N1    N     N_3   0.703072 0.679847 0.808580 -0.634638
N2    N     N_3   0.300514 0.045067 0.798934 -0.642173
N3    N     N_3   0.949221 0.265400 0.799629 -0.639971
O1    O     O_R   0.137150 0.468200 0.553200 -0.512205
O2    O     O_R   0.140110 0.470540 0.446010 -0.518594
O3    O     O_R   0.529460 0.669570 0.446010 -0.523135
O4    O     O_R   0.330430 0.859890 0.446010 -0.521917
O5    O     O_R   0.176710 0.690910 0.450560 -0.503000
O6    O     O_R   0.309090 0.485800 0.450560 -0.503954
O7    O     O_R   0.514200 0.823290 0.450560 -0.502580
O8    O     O_3   0.333333 0.666667 0.499990 -0.265163
O9    O     O_R   0.176750 0.985260 0.074180 -0.522260
O10   O     O_R   0.014740 0.191490 0.074180 -0.472745
O11   O     O_R   0.808510 0.823250 0.074180 -0.510425
O12   O     O_R   0.531800 0.668950 0.553200 -0.510590
O13   O     O_R   0.146100 0.172630 0.068980 -0.476292
O14   O     O_R   0.827370 0.973470 0.068980 -0.518401
O15   O     O_R   0.026530 0.853900 0.068980 -0.486797
O16   O     O_3   0.000000 0.000000 0.020040 -0.295672
O17   O     O_R   0.148270 0.170520 0.969620 -0.487864
O18   O     O_R   0.829480 0.977750 0.969620 -0.520328
O19   O     O_R   0.022250 0.851730 0.969620 -0.481000
O20   O     O_R   0.331050 0.862850 0.553200 -0.510534
O21   O     O_R   0.179100 0.982980 0.967000 -0.492915
O22   O     O_R   0.017020 0.196120 0.967000 -0.472462
O23   O     O_R   0.803880 0.820900 0.967000 -0.500656
O24   O     O_R   0.173970 0.688730 0.549930 -0.501110
O25   O     O_R   0.311270 0.485240 0.549930 -0.500011
O26   O     O_R   0.514760 0.826030 0.549930 -0.498661

loop_
_geom_bond_atom_site_label_1
_geom_bond_atom_site_label_2
_ccdc_geom_bond_type
C92   H59   S    
C25   C31   A    
C65   C92   S    
C55   H19   S    
C44   H25   S    
C26   C32   A    
C80   H30   S    
C54   H18   S    
H51   N1    S    
C81   H38   S    
C18   C21   A    
C12   O25   A    
C2    C84   T    
Cr4   O21   S    
C11   O13   A    
C21   C51   A    
C29   O6    A    
C67   H41   S    
C6    C9    T    
C13   C41   S    
C14   O15   A    
C34   H48   S    
Cr1   O1    S    
C66   C90   S    
C29   C76   S    
C27   C33   A    
C81   H35   S    
C15   O17   A    
C72   H13   S    
C20   C76   A    
C80   H33   S    
C47   H27   S    
C60   C63   A    
C17   C85   S    
Cr6   O15   S    
C32   C36   A    
C22   C52   A    
C51   C68   A    
C47   C76   A    
C55   C59   A    
C82   H39   S    
Cr2   O6    S    
C35   H8    S    
C28   O5    A    
C4    C86   T    
C53   C70   A    
C16   C84   S    
C8    C23   S    
C6    C88   S    
H57   N3    S    
C71   H11   S    
C60   H17   S    
C39   H3    S    
C65   H22   S    
C18   H5    S    
C46   C75   A    
C37   H10   S    
C38   H2    S    
Cr5   O10   S    
C57   H20   S    
C4    C96   S    
C43   C73   A    
C28   O4    A    
Cr1   O24   S    
Cr3   O8    S    
C20   C24   A    
H53   N2    S    
C11   C43   S    
C45   C78   S    
C52   C69   A    
C29   O2    A    
C65   H45   S    
C64   C87   S    
C78   H46   S    
C41   C71   A    
C19   H6    S    
C61   C71   A    
C58   C61   A    
C89   H47   S    
C89   H43   S    
C18   C74   A    
Cr1   O8    S    
Cr6   O11   S    
C25   C68   A    
C77   H31   S    
C67   H44   S    
C80   C83   S    
Cr4   O16   S    
Cr4   O9    S    
C10   C12   S    
H55   N3    S    
C83   H37   S    
Cr3   O20   S    
C83   H40   S    
Cr6   O23   S    
C39   C42   A    
C40   C43   A    
C31   I1    S    
C48   C51   A    
C50   C53   A    
Cr1   O5    S    
C2    C94   S    
C19   C22   A    
C1    C9    S    
C38   C41   A    
Cr5   O22   S    
C57   C60   A    
Cr3   O4    S    
C63   C73   A    
H54   N2    S    
C17   O21   A    
C24   C53   A    
C13   O11   A    
C7    C90   S    
C92   C95   S    
C33   C37   A    
Cr1   O2    S    
C66   H24   S    
C62   C69   A    
C45   H49   S    
C48   C54   A    
C1    O24   A    
C16   O23   A    
C78   H42   S    
C25   C38   A    
C5    C8    T    
C45   N2    S    
Cr3   O26   S    
C63   C70   A    
C77   C81   S    
C27   C40   A    
C49   C52   A    
C79   H29   S    
C56   N3    S    
C36   H9    S    
C42   C72   A    
C24   C37   A    
C91   H58   S    
C62   C72   A    
C11   O10   A    
C44   C74   A    
Cr4   O13   S    
C73   H14   S    
C77   C87   S    
C23   O12   A    
C27   C70   A    
C79   C88   S    
C15   C86   S    
Cr2   O3    S    
C56   C89   S    
C15   O22   A    
C93   C96   S    
C66   C93   S    
C31   C35   A    
C3    C85   T    
C56   H50   S    
Cr2   O12   S    
Cr5   O18   S    
C45   C95   S    
C30   O7    A    
C66   H56   S    
C65   C88   S    
C40   H4    S    
C54   C58   A    
C1    O20   A    
C78   C88   S    
C56   C96   S    
C79   H32   S    
C59   C62   A    
Cr5   O16   S    
C82   C95   S    
Cr2   O8    S    
C50   C57   A    
C33   I3    S    
C34   C94   S    
C91   H1    S    
C34   C67   S    
C79   C82   S    
C3    C95   S    
C12   O1    A    
C21   C35   A    
C59   H16   S    
C64   H21   S    
C22   C36   A    
C67   C87   S    
Cr6   O19   S    
C14   C42   S    
C47   C50   A    
Cr6   O16   S    
C7    C10   T    
C19   C75   A    
Cr4   O17   S    
C82   H36   S    
C49   C55   A    
C91   C94   S    
C81   C94   S    
C61   C68   A    
C93   H60   S    
C17   O19   A    
C30   C74   S    
C83   C96   S    
C32   I2    S    
C23   O26   A    
C77   H28   S    
C58   H15   S    
C80   C90   S    
C26   C39   A    
C93   H23   S    
C30   O3    A    
C14   O9    A    
C20   H7    S    
C5    C87   S    
C46   C49   A    
Cr3   O7    S    
Cr2   O25   S    
C13   O14   A    
C46   H26   S    
C26   C69   A    
H52   N1    S    
C16   O18   A    
C64   H34   S    
C64   C91   S    
C89   C90   S    
C34   N1    S    
C28   C75   S    
C92   H12   S    
Cr5   O14   S    
C44   C48   A    
