data_mof_unit_1359.cif
_audit_creation_date              2012-10-26T20:51:08-0400
_audit_creation_method            fapswitch 2.2
_symmetry_space_group_name_H-M    P1
_symmetry_Int_Tables_number       1
_space_group_crystal_system       triclinic
_cell_length_a                    12.999268
_cell_length_b                    10.820441
_cell_length_c                    9.534357
_cell_angle_alpha                 89.75679
_cell_angle_beta                  96.678311
_cell_angle_gamma                 90.239282
_cell_volume                      1331.96105863

loop_
_atom_site_label
_atom_site_type_symbol
_atom_type_description
_atom_site_fract_x
_atom_site_fract_y
_atom_site_fract_z
_atom_type_partial_charge
C1    C     C_R   0.501445 0.262380 0.500550 0.551203
C2    C     C_R   0.541325 0.936625 0.387521 -0.162902
C3    C     C_R   0.509875 0.871089 0.502784 0.006700
C4    C     C_R   0.300158 0.504867 0.472405 0.538254
C5    C     C_R   0.492339 0.936025 0.623918 0.016610
C6    C     C_3   0.402339 0.929445 0.708084 -0.270163
C7    C     C_3   0.403302 0.069704 0.708859 -0.271676
C8    C     C_R   0.580758 0.550912 0.085993 0.164169
C9    C     C_R   0.426477 0.437483 0.063164 -0.021968
C10   C     C_R   0.426237 0.437807 0.914147 -0.014558
C11   C     C_R   0.581208 0.550027 0.938678 0.157287
C12   C     C_R   0.028050 0.493323 0.564160 0.042250
C13   C     C_3   0.619065 0.679990 0.936675 -0.277914
C14   C     C_3   0.616388 0.681984 0.095293 -0.282941
C15   C     C_R   0.501346 0.737767 0.500147 0.545967
C16   C     C_R   0.699504 0.500454 0.526963 0.547440
C17   C     C_R   0.812300 0.501235 0.543111 0.003491
C18   C     C_R   0.186450 0.514957 0.454046 -0.005598
C19   C     C_R   0.020299 0.559070 0.318785 -0.111090
C20   C     C_R   0.128690 0.555344 0.325213 0.003286
C21   C     C_R   0.135071 0.486063 0.571795 -0.145925
C22   C     C_3   0.182221 0.595180 0.197668 -0.255546
C23   C     C_R   0.970545 0.528261 0.436109 0.027715
C24   C     C_3   0.113683 0.653926 0.073832 -0.467880
C25   C     C_R   0.863187 0.531724 0.426293 -0.131543
C26   C     C_R   0.869619 0.469669 0.672036 -0.137806
C27   C     C_R   0.977330 0.465194 0.682367 -0.137429
C28   C     C_R   0.492855 0.063298 0.624273 0.026619
C29   C     C_R   0.510451 0.129414 0.503396 0.008430
C30   C     C_R   0.541295 0.065462 0.387499 -0.161139
Cu1   Cu    Cu3+1 0.499990 0.499980 0.640670 0.933605
Cu2   Cu    Cu3+1 0.500010 0.500020 0.359330 0.922871
H1    H     H_    0.819201 0.557951 0.327028 0.113002
H2    H     H_    0.555727 0.744482 0.126547 0.141742
H3    H     H_    0.831265 0.446221 0.763594 0.126069
H4    H     H_    0.973010 0.586096 0.222833 0.107151
H5    H     H_    0.020739 0.438939 0.781930 0.097959
H6    H     H_    0.178434 0.456693 0.670305 0.115429
H7    H     H_    0.561617 0.114425 0.295226 0.136005
H8    H     H_    0.562471 0.889192 0.295912 0.121138
H9    H     H_    0.331881 0.889309 0.647455 0.137482
H10   H     H_    0.057052 0.585549 0.023758 0.141476
H11   H     H_    0.072736 0.735827 0.109629 0.152368
H12   H     H_    0.423410 0.888601 0.814584 0.130401
H13   H     H_    0.162900 0.684938 0.992546 0.142185
H14   H     H_    0.243081 0.664428 0.232971 0.169666
H15   H     H_    0.219037 0.513055 0.155654 0.158768
H16   H     H_    0.333286 0.111341 0.649025 0.131201
H17   H     H_    0.425779 0.109384 0.815448 0.135674
H18   H     H_    0.366415 0.388057 0.109778 0.107167
H19   H     H_    0.365568 0.389157 0.849071 0.109404
H20   H     H_    0.698752 0.686073 0.905613 0.124433
H21   H     H_    0.562233 0.743758 0.879014 0.154205
H22   H     H_    0.694189 0.692222 0.156140 0.116868
N1    N     N_R   0.500660 0.500930 0.148010 -0.231100
N2    N     N_R   0.500660 0.500890 0.852110 -0.230283
O1    O     O_R   0.500000 0.319640 0.618810 -0.497144
O2    O     O_R   0.500010 0.319680 0.381230 -0.504746
O3    O     O_R   0.348990 0.499960 0.599490 -0.511074
O4    O     O_R   0.349000 0.500000 0.361910 -0.518263
O5    O     O_R   0.499990 0.680320 0.618770 -0.500719
O6    O     O_R   0.500000 0.680360 0.381190 -0.511057
O7    O     O_R   0.651000 0.500000 0.638090 -0.502325
O8    O     O_R   0.651010 0.500040 0.400510 -0.502900

loop_
_geom_bond_atom_site_label_1
_geom_bond_atom_site_label_2
_ccdc_geom_bond_type
C14   H2    S    
C19   C23   A    
C4    O3    A    
C24   H13   S    
C6    C7    S    
C9    N1    A    
C16   O7    A    
Cu1   O7    S    
Cu1   N2    S    
C5    C28   A    
C24   H10   S    
C9    C10   A    
Cu1   O5    S    
Cu2   N1    S    
C13   H21   S    
C19   C20   A    
Cu2   O2    S    
C2    C30   A    
C17   C25   A    
C7    H16   S    
C4    O4    A    
C1    C29   S    
C2    C3    A    
C15   O5    A    
C3    C5    A    
C4    C18   S    
C6    H12   S    
C13   C14   S    
Cu1   O1    S    
C18   C21   A    
C11   C13   S    
C12   C23   A    
Cu2   O8    S    
C26   C27   A    
C29   C30   A    
C27   H5    S    
C8    C11   A    
C17   C26   A    
C8    N1    A    
C28   C29   A    
C14   H22   S    
C15   O6    A    
C20   C22   S    
C30   H7    S    
C22   H15   S    
C18   C20   A    
C19   H4    S    
C23   C25   A    
C5    C6    S    
C22   C24   S    
C10   H19   S    
C12   C27   A    
Cu2   O6    S    
C13   H20   S    
C2    H8    S    
C26   H3    S    
C3    C15   S    
C7    H17   S    
C10   N2    A    
Cu1   O3    S    
C24   H11   S    
Cu2   O4    S    
C21   H6    S    
C8    C14   S    
C16   O8    A    
C7    C28   S    
C22   H14   S    
C1    O2    A    
C12   C21   A    
C11   N2    A    
Cu1   Cu2   S    
C25   H1    S    
C16   C17   S    
C9    H18   S    
C6    H9    S    
C1    O1    A    
