data_mof_unit_2722.cif
_audit_creation_date              2012-12-10T16:54:54-0500
_audit_creation_method            fapswitch 2.2
_symmetry_space_group_name_H-M    P1
_symmetry_Int_Tables_number       1
_space_group_crystal_system       triclinic
_cell_length_a                    7.896217
_cell_length_b                    8.656176
_cell_length_c                    15.684973
_cell_angle_alpha                 92.026396
_cell_angle_beta                  86.021891
_cell_angle_gamma                 92.064731
_cell_volume                      1068.22611576

loop_
_atom_site_label
_atom_site_type_symbol
_atom_type_description
_atom_site_fract_x
_atom_site_fract_y
_atom_site_fract_z
_atom_type_partial_charge
C1    C     C_R   0.542725 0.793174 0.493974 1.008368
C2    C     C_3   0.350985 0.550778 0.054024 -0.504622
C3    C     C_3   0.511037 0.472586 0.082647 0.165137
C4    C     C_3   0.529375 0.297720 0.045641 0.302282
C5    C     C_3   0.518397 0.303021 0.943815 -0.059835
C6    C     C_1   0.497306 0.479349 0.174742 -0.039697
C7    C     C_1   0.514870 0.485204 0.824316 -0.096864
C8    C     C_1   0.508176 0.493059 0.749502 -0.169845
C9    C     C_2   0.555116 0.951420 0.471997 -0.077809
C10   C     C_2   0.439900 0.045123 0.513127 0.215782
C11   C     C_R   0.502220 0.499926 0.661157 0.908455
C12   C     C_R   0.456773 0.206532 0.501606 0.790966
C13   C     C_R   0.497646 0.497792 0.338858 0.865529
C14   C     C_3   0.352982 0.553150 0.955797 -0.070089
C15   C     C_3   0.678238 0.567786 0.947989 0.245535
C16   C     C_3   0.670403 0.572906 0.047718 -0.028259
C17   C     C_1   0.492729 0.488675 0.250267 -0.212878
C18   C     C_3   0.518837 0.476868 0.916027 0.080954
H1    H     H_    0.344034 0.668894 0.083699 0.176899
H2    H     H_    0.243395 0.477877 0.936897 0.200305
H3    H     H_    0.231045 0.496571 0.080011 0.198926
H4    H     H_    0.681093 0.687891 0.924655 0.122854
H5    H     H_    0.785982 0.521688 0.068938 0.201423
H6    H     H_    0.392480 0.254644 0.927566 0.167309
N1    N     N_2   0.950340 0.457950 0.477370 0.031275
N2    N     N_2   0.049660 0.542050 0.522630 0.128528
O1    O     O_R   0.389240 0.738570 0.505550 -0.570966
O2    O     O_R   0.678400 0.711630 0.491050 -0.598232
O3    O     O_R   0.355360 0.513470 0.630110 -0.626665
O4    O     O_R   0.644510 0.486530 0.615610 -0.553435
O5    O     O_R   0.321600 0.288370 0.508950 -0.624040
O6    O     O_R   0.610760 0.261430 0.494450 -0.633325
O7    O     O_R   0.355490 0.513470 0.384390 -0.639608
O8    O     O_R   0.644640 0.486530 0.369890 -0.661875
Zn1   Zn    Zn3+2 0.306930 0.517990 0.509680 0.994091
Zn2   Zn    Zn3+2 0.693070 0.482010 0.490320 0.995052
C19   C     C_3   0.706164 0.230290 0.067705 -0.423376
C20   C     C_3   0.752742 0.236592 0.161567 -0.938458
H7    H     H_    0.792299 0.355331 0.182322 0.262908
H8    H     H_    0.649668 0.190944 0.206003 0.265875
H9    H     H_    0.864169 0.165027 0.168079 0.247305
H10   H     H_    0.709284 0.107094 0.046923 0.227600
H11   H     H_    0.815125 0.285951 0.031299 0.236939
C21   C     C_3   0.681373 0.996935 0.397422 -0.449453
C22   C     C_3   0.671473 0.887140 0.319366 -0.938976
H12   H     H_    0.723656 0.773643 0.331672 0.286836
H13   H     H_    0.538108 0.871323 0.301452 0.254710
H14   H     H_    0.749493 0.936507 0.264700 0.258258
H15   H     H_    0.658912 0.112297 0.372900 0.236171
H16   H     H_    0.811986 0.997558 0.419401 0.242757
O9    O     O_3   0.322548 0.989905 0.576089 -0.766190
H17   H     H_    0.260232 0.077001 0.604632 0.343041
C23   C     C_3   0.010828 0.406306 0.391621 -0.143186
C24   C     C_3   0.080939 0.243401 0.386951 -0.831150
H18   H     H_    0.054632 0.184545 0.448462 0.269656
H19   H     H_    0.020264 0.171155 0.336715 0.207991
H20   H     H_    0.218460 0.246968 0.367580 0.257073
H21   H     H_    0.902274 0.394039 0.352051 0.184559
H22   H     H_    0.085333 0.496706 0.356872 0.168706
O10   O     O_3   0.972278 0.606996 0.592873 -0.635441
H23   H     H_    0.065584 0.655094 0.624706 0.354295
C25   C     C_3   0.326164 0.719264 0.923269 -0.396124
C26   C     C_3   0.167056 0.727688 0.874169 -0.862011
H24   H     H_    0.170573 0.642959 0.819252 0.274958
H25   H     H_    0.054109 0.703290 0.917578 0.296844
H26   H     H_    0.157927 0.845688 0.849617 0.249501
H27   H     H_    0.318184 0.808751 0.975697 0.209166
H28   H     H_    0.433471 0.755836 0.878914 0.225135
O11   O     O_3   0.828425 0.497768 0.915835 -0.827199
H29   H     H_    0.846146 0.522583 0.854482 0.344201
C27   C     C_3   0.680855 0.741491 0.085209 -0.462314
C28   C     C_3   0.856753 0.818245 0.066900 -0.906829
H30   H     H_    0.959735 0.738123 0.077030 0.269869
H31   H     H_    0.870463 0.859479 0.000553 0.264076
H32   H     H_    0.872507 0.919037 0.111182 0.252060
H33   H     H_    0.584286 0.813860 0.059782 0.199900
H34   H     H_    0.656371 0.741372 0.155549 0.235459
C29   C     C_3   0.645670 0.200829 0.885852 -0.325262
C30   C     C_3   0.588533 0.031380 0.879124 -0.999562
H35   H     H_    0.584913 0.976967 0.941723 0.250474
H36   H     H_    0.460909 0.021163 0.853424 0.279107
H37   H     H_    0.679017 0.967541 0.834665 0.267667
H38   H     H_    0.655864 0.238357 0.818944 0.233598
H39   H     H_    0.778085 0.208958 0.904275 0.239335
C31   C     C_3   0.390149 0.178909 0.084912 -0.353767
C32   C     C_3   0.200749 0.203681 0.076604 -0.953935
H40   H     H_    0.148754 0.275995 0.131413 0.262155
H41   H     H_    0.171871 0.253453 0.015623 0.258383
H42   H     H_    0.131107 0.090172 0.080615 0.256881
H43   H     H_    0.415775 0.062605 0.055980 0.191533
H44   H     H_    0.403797 0.167887 0.154178 0.216626

loop_
_geom_bond_atom_site_label_1
_geom_bond_atom_site_label_2
_ccdc_geom_bond_type
C21   H15   S    
C15   C18   S    
C26   H25   S    
C14   C18   S    
C3    C6    S    
C31   H44   S    
C7    C8    T    
C23   C24   S    
C19   C20   S    
C25   H27   S    
O6    Zn2   S    
N1    C23   S    
C31   C32   S    
C20   H7    S    
C32   H41   S    
C15   C16   S    
C14   C25   S    
C19   H10   S    
C29   H38   S    
C15   H4    S    
C11   O4    A    
C1    O2    A    
C9    C10   D    
C26   H26   S    
C12   O6    A    
C16   C27   S    
C28   H32   S    
C10   O9    S    
C22   H13   S    
C23   H22   S    
C15   O11   S    
C24   H19   S    
O9    H17   S    
C14   H2    S    
C1    C9    S    
C20   H9    S    
C28   H31   S    
C30   H36   S    
C29   C30   S    
C4    C5    S    
C5    C18   S    
O1    Zn1   S    
N1    N2    D    
C22   H12   S    
C26   H24   S    
O10   H23   S    
C19   H11   S    
C13   O7    A    
C25   C26   S    
C31   H43   S    
C7    C18   S    
C2    H3    S    
O2    Zn2   S    
C10   C12   S    
C16   H5    S    
C12   O5    A    
O5    Zn1   S    
C3    C4    S    
C27   H34   S    
C21   C22   S    
C22   H14   S    
C21   H16   S    
C6    C17   T    
C24   H18   S    
C9    C21   S    
C2    H1    S    
C32   H40   S    
C28   H30   S    
C32   H42   S    
C30   H37   S    
C23   H21   S    
C4    C31   S    
C13   C17   S    
O3    Zn1   S    
O4    Zn2   S    
C2    C3    S    
C27   C28   S    
C20   H8    S    
C27   H33   S    
C5    H6    S    
C8    C11   S    
O7    Zn1   S    
O8    Zn2   S    
C25   H28   S    
O11   H29   S    
C2    C14   S    
N1    Zn2   S    
C30   H35   S    
C29   H39   S    
N2    Zn1   S    
C13   O8    A    
C4    C19   S    
C11   O3    A    
C1    O1    A    
C5    C29   S    
N2    O10   S    
C3    C16   S    
C24   H20   S    
