data_mof_unit_110.cif
_audit_creation_date              2012-12-10T20:46:23-0500
_audit_creation_method            fapswitch 2.2
_symmetry_space_group_name_H-M    P1
_symmetry_Int_Tables_number       1
_space_group_crystal_system       triclinic
_cell_length_a                    10.662529
_cell_length_b                    8.933814
_cell_length_c                    8.109724
_cell_angle_alpha                 89.9675
_cell_angle_beta                  90.928749
_cell_angle_gamma                 90.178189
_cell_volume                      772.403064842

loop_
_atom_site_label
_atom_site_type_symbol
_atom_type_description
_atom_site_fract_x
_atom_site_fract_y
_atom_site_fract_z
_atom_type_partial_charge
C1    C     C_R   0.501601 0.218028 0.500013 0.975449
C2    C     C_1   0.501212 0.934828 0.499882 -0.119983
C3    C     C_R   0.500288 0.782003 0.499935 0.917374
C4    C     C_R   0.261616 0.498267 0.498121 1.027227
C5    C     C_R   0.738273 0.488284 0.500972 0.981604
C6    C     C_2   0.935733 0.397189 0.381146 0.370430
C7    C     C_2   0.069075 0.378760 0.414152 0.334985
C8    C     C_2   0.868306 0.448788 0.508021 -0.538848
C9    C     C_2   0.128971 0.493142 0.488944 -0.458186
C10   C     C_1   0.501796 0.065209 0.499960 -0.075059
H1    H     H_    0.911788 0.456666 0.630248 0.164520
H2    H     H_    0.080548 0.595196 0.523137 0.142975
H3    H     H_    0.952216 0.290117 0.945088 0.376488
H4    H     H_    0.980139 0.064183 0.426700 0.346723
N1    N     N_1   0.500000 0.500000 0.073640 0.027288
N2    N     N_1   0.500000 0.500000 0.926360 0.011061
O1    O     O_R   0.500000 0.285350 0.636850 -0.618896
O2    O     O_2   0.834545 0.514337 0.104411 -0.284838
O3    O     O_3   0.991573 0.299526 0.056111 -0.462369
O4    O     O_2   0.230130 0.218395 0.234781 -0.206762
O5    O     O_2   0.212583 0.153477 0.526737 -0.343106
O6    O     O_3   0.031920 0.073719 0.326890 -0.459674
O7    O     O_R   0.500000 0.714650 0.636850 -0.620014
O8    O     O_R   0.500000 0.285360 0.363100 -0.581605
O9    O     O_R   0.500000 0.714640 0.363100 -0.616855
O10   O     O_R   0.319080 0.500000 0.636840 -0.603743
O11   O     O_R   0.680920 0.500000 0.636840 -0.619465
O12   O     O_R   0.319090 0.500000 0.363090 -0.589413
O13   O     O_R   0.680910 0.500000 0.363090 -0.545248
O14   O     O_2   0.770410 0.259077 0.178491 -0.287865
S1    S     S_3+6 0.878173 0.367929 0.176234 0.082843
S2    S     S_3+6 0.141004 0.203471 0.375492 0.086102
Zn1   Zn    Zn3+2 0.500000 0.500000 0.682780 1.067560
Zn2   Zn    Zn3+2 0.500000 0.500000 0.317220 1.119297

loop_
_geom_bond_atom_site_label_1
_geom_bond_atom_site_label_2
_ccdc_geom_bond_type
C5    C8    S    
C4    O10   A    
C6    C7    S    
C7    S2    S    
N2    Zn1   S    
O6    S2    S    
N1    Zn2   S    
C3    O7    A    
O9    Zn2   S    
O3    S1    S    
H4    O6    S    
C6    S1    S    
O12   Zn2   S    
O11   Zn1   S    
O1    Zn1   S    
C8    H1    S    
C4    O12   A    
C2    C3    S    
C5    O13   A    
O14   S1    D    
O5    S2    D    
C9    H2    S    
H3    O3    S    
N1    N2    T    
C2    C10   T    
C3    O9    A    
C1    O8    A    
O4    S2    D    
C7    C9    D    
C6    C8    D    
O2    S1    D    
O10   Zn1   S    
C4    C9    S    
C5    O11   A    
C1    O1    A    
O13   Zn2   S    
O8    Zn2   S    
C1    C10   S    
O7    Zn1   S    
