data_mof_unit_1172.cif
_audit_creation_date              2012-10-26T19:06:49-0400
_audit_creation_method            fapswitch 2.2
_symmetry_space_group_name_H-M    P1
_symmetry_Int_Tables_number       1
_space_group_crystal_system       triclinic
_cell_length_a                    12.353681
_cell_length_b                    12.994158
_cell_length_c                    27.750846
_cell_angle_alpha                 77.55114
_cell_angle_beta                  100.451536
_cell_angle_gamma                 116.601373
_cell_volume                      3871.09183713

loop_
_atom_site_label
_atom_site_type_symbol
_atom_type_description
_atom_site_fract_x
_atom_site_fract_y
_atom_site_fract_z
_atom_type_partial_charge
C1    C     C_R   0.855122 0.285268 0.504774 0.597085
C2    C     C_R   0.892984 0.422650 0.025205 0.025654
C3    C     C_R   0.112891 0.548824 0.028858 0.013586
C4    C     C_R   0.999445 0.500547 0.592256 0.555254
C5    C     C_R   0.004276 0.486788 0.052455 -0.003052
C6    C     C_R   0.785358 0.367624 0.049304 -0.145202
C7    C     C_R   0.787631 0.371940 0.098947 -0.115408
C8    C     C_R   0.897182 0.430883 0.126512 0.031532
C9    C     C_R   0.006578 0.488153 0.103596 -0.071450
C10   C     C_R   0.117370 0.546691 0.131820 0.016556
C11   C     C_R   0.114049 0.547182 0.182574 0.408712
C12   C     C_R   0.921751 0.543279 0.710075 0.304058
C13   C     C_R   0.899185 0.433900 0.176753 0.392492
C14   C     C_R   0.065495 0.440704 0.291554 -0.072008
C15   C     C_R   0.064940 0.443397 0.341396 -0.177820
C16   C     C_R   0.145066 0.714482 0.492892 0.544865
C17   C     C_R   0.943003 0.553085 0.318341 -0.145797
C18   C     C_R   0.944384 0.551007 0.268469 -0.064035
C19   C     C_R   0.005469 0.494698 0.254875 0.235721
C20   C     C_R   0.892495 0.416727 0.974692 0.027328
C21   C     C_R   0.997652 0.490798 0.949884 0.011200
C22   C     C_R   0.105124 0.562271 0.976263 -0.021709
C23   C     C_R   0.988367 0.494015 0.745900 0.285006
C24   C     C_R   0.790004 0.340096 0.947865 -0.143736
C25   C     C_R   0.198588 0.653032 0.898163 0.268053
C26   C     C_R   0.225702 0.592741 0.058704 0.128581
C27   C     C_R   0.227634 0.598199 0.109204 0.150639
C28   C     C_R   0.001351 0.500446 0.407738 0.560567
C29   C     C_R   0.199383 0.649353 0.948904 -0.105020
C30   C     C_R   0.279231 0.030997 0.435074 0.274866
C31   C     C_R   0.228540 0.838279 0.483008 -0.045055
C32   C     C_R   0.809286 0.076864 0.539671 0.265772
C33   C     C_R   0.728941 0.958797 0.545317 0.281145
C34   C     C_R   0.994764 0.494609 0.898183 -0.076797
C35   C     C_R   0.607030 0.925620 0.526981 -0.150680
C36   C     C_R   0.566014 0.007376 0.497760 -0.078968
C37   C     C_R   0.653907 0.120556 0.482405 -0.073497
C38   C     C_R   0.441010 0.978854 0.482163 -0.038716
C39   C     C_R   0.405660 0.058816 0.446995 0.016930
C40   C     C_R   0.889365 0.420933 0.821573 0.410253
C41   C     C_R   0.497945 0.161760 0.424355 0.155955
C42   C     C_R   0.620784 0.189372 0.440894 0.303891
C43   C     C_R   0.350001 0.872190 0.501195 -0.132512
C44   C     C_R   0.192558 0.918593 0.451265 -0.115170
C45   C     C_R   0.890137 0.418650 0.872314 0.025809
C46   C     C_R   0.773575 0.159170 0.507372 -0.054685
C47   C     C_R   0.304858 0.281926 0.551651 0.095458
C48   C     C_R   0.771117 0.658562 0.438197 -0.000342
C49   C     C_R   0.677892 0.693520 0.422216 -0.165939
C50   C     C_R   0.564073 0.629494 0.440589 0.121173
C51   C     C_R   0.545287 0.530360 0.477854 -0.029020
C52   C     C_R   0.090587 0.573382 0.821224 0.454689
C53   C     C_R   0.642880 0.494847 0.491916 0.133809
C54   C     C_R   0.434985 0.464354 0.502359 -0.049767
C55   C     C_R   0.411204 0.350066 0.527210 0.005342
C56   C     C_R   0.789221 0.340979 0.897674 -0.113751
C57   C     C_R   0.498523 0.308720 0.530851 -0.138986
C58   C     C_R   0.618848 0.388763 0.525700 0.161638
C59   C     C_R   0.348510 0.506568 0.504692 0.040203
C60   C     C_R   0.224206 0.329229 0.551820 0.056723
C61   C     C_R   0.056704 0.445233 0.731534 0.135173
C62   C     C_R   0.060307 0.448300 0.681210 -0.163461
C63   C     C_R   0.929036 0.548185 0.659584 -0.157940
C64   C     C_3   0.053968 0.275166 0.787953 -0.303223
C65   C     C_3   0.396433 0.713495 0.885959 -0.083497
C66   C     C_3   0.357407 0.520607 0.037036 -0.314744
C67   C     C_R   0.096056 0.574380 0.872337 0.023092
C68   C     C_3   0.386236 0.776176 0.134723 -0.265795
C69   C     C_3   0.481355 0.342545 0.388205 -0.239361
C70   C     C_3   0.177766 0.142365 0.432328 -0.125501
C71   C     C_3   0.740890 0.560620 0.701548 -0.095148
C72   C     C_3   0.921997 0.124227 0.612490 -0.102540
C73   C     C_3   0.765639 0.802043 0.544723 -0.101548
C74   C     C_3   0.740961 0.226838 0.380607 -0.100822
C75   C     C_3   0.316851 0.158230 0.628592 -0.306535
C76   C     C_3   0.385729 0.588891 0.381861 -0.294810
C77   C     C_3   0.689656 0.274072 0.597487 -0.299542
C78   C     C_R   0.996421 0.499257 0.645062 -0.065493
C79   C     C_R   0.003727 0.499667 0.355160 -0.003278
Cu1   Cu    Cu3+1 0.098270 0.475420 0.511360 0.937234
Cu2   Cu    Cu3+1 0.901730 0.524580 0.488640 0.971056
H1    H     H_    0.884450 0.592321 0.631657 0.118756
H2    H     H_    0.360753 0.593319 0.488135 0.178748
H3    H     H_    0.857332 0.708508 0.422652 0.130001
H4    H     H_    0.708581 0.280370 0.878764 0.161635
H5    H     H_    0.693228 0.769246 0.393966 0.102594
H6    H     H_    0.110944 0.400150 0.369148 0.117898
H7    H     H_    0.112129 0.396250 0.281382 0.136584
H8    H     H_    0.702400 0.328731 0.115643 0.158734
H9    H     H_    0.696869 0.323425 0.030309 0.103667
H10   H     H_    0.709858 0.275960 0.965000 0.105818
H11   H     H_    0.112366 0.409764 0.670507 0.129970
H12   H     H_    0.895152 0.596948 0.328068 0.130281
H13   H     H_    0.204703 0.407596 0.756479 0.253129
H14   H     H_    0.111782 0.244664 0.817270 0.145019
H15   H     H_    0.021696 0.219541 0.758338 0.133640
H16   H     H_    0.974674 0.265928 0.804835 0.185333
H17   H     H_    0.374547 0.625230 0.878225 0.128725
H18   H     H_    0.432632 0.721035 0.925398 0.101720
H19   H     H_    0.469607 0.777516 0.862755 0.155559
H20   H     H_    0.412939 0.688357 0.051829 0.249977
H21   H     H_    0.441142 0.549852 0.018592 0.136425
H22   H     H_    0.280075 0.459026 0.015196 0.163709
H23   H     H_    0.898076 0.593204 0.240313 0.131148
H24   H     H_    0.369094 0.475244 0.075063 0.149052
H25   H     H_    0.406575 0.625496 0.134246 0.249995
H26   H     H_    0.408269 0.820835 0.096518 0.111274
H27   H     H_    0.469902 0.808866 0.160581 0.151157
H28   H     H_    0.317385 0.797888 0.145450 0.182540
H29   H     H_    0.402434 0.189490 0.355566 0.290212
H30   H     H_    0.459145 0.389640 0.352268 0.132941
H31   H     H_    0.575507 0.397260 0.402556 0.194704
H32   H     H_    0.417234 0.329227 0.414695 0.152081
H33   H     H_    0.231121 0.169094 0.467891 0.139451
H34   H     H_    0.273494 0.718862 0.966014 0.161939
H35   H     H_    0.086403 0.071065 0.439262 0.119656
H36   H     H_    0.164253 0.218543 0.410345 0.131599
H37   H     H_    0.696158 0.466399 0.697837 0.122193
H38   H     H_    0.741534 0.615287 0.664742 0.116943
H39   H     H_    0.684818 0.575168 0.724042 0.155984
H40   H     H_    0.853004 0.045398 0.632904 0.155815
H41   H     H_    0.905305 0.201672 0.611944 0.096482
H42   H     H_    0.011951 0.139463 0.633438 0.120782
H43   H     H_    0.815974 0.850265 0.511448 0.121099
H44   H     H_    0.670884 0.741503 0.533538 0.108798
H45   H     H_    0.097641 0.893270 0.437643 0.121475
H46   H     H_    0.811480 0.748168 0.566826 0.142186
H47   H     H_    0.660160 0.163556 0.360559 0.123554
H48   H     H_    0.799447 0.184149 0.401611 0.098283
H49   H     H_    0.793790 0.296342 0.351957 0.161908
H50   H     H_    0.188964 0.108682 0.568820 0.271635
H51   H     H_    0.263056 0.183189 0.648021 0.135609
H52   H     H_    0.414996 0.216138 0.635381 0.151816
H53   H     H_    0.302373 0.067269 0.644012 0.167240
H54   H     H_    0.495922 0.748585 0.404759 0.251486
H55   H     H_    0.311570 0.616811 0.367540 0.166551
H56   H     H_    0.370961 0.811436 0.529788 0.133900
H57   H     H_    0.344231 0.496026 0.399054 0.148302
H58   H     H_    0.434988 0.597993 0.350306 0.153601
H59   H     H_    0.720469 0.446649 0.588641 0.234930
H60   H     H_    0.774986 0.285747 0.621661 0.133198
H61   H     H_    0.669742 0.207336 0.574110 0.143558
H62   H     H_    0.615773 0.243529 0.621852 0.120867
H63   H     H_    0.547743 0.834512 0.535285 0.121531
H64   H     H_    0.141312 0.277572 0.569293 0.169431
H65   H     H_    0.479692 0.221279 0.549608 0.161715
N1    N     N_R   0.989191 0.496336 0.797421 -0.365642
N2    N     N_2   0.467954 0.660889 0.417927 -0.544737
N3    N     N_2   0.703932 0.384561 0.567149 -0.445181
N4    N     N_R   0.006222 0.492071 0.203498 -0.401799
N5    N     N_R   0.246290 0.438210 0.528570 -0.270573
N6    N     N_R   0.754320 0.561170 0.471730 -0.232753
N7    N     N_2   0.124112 0.395355 0.767770 -0.500411
N8    N     N_2   0.336515 0.620391 0.039241 -0.549254
N9    N     N_2   0.341077 0.651390 0.137677 -0.460172
N10   N     N_2   0.471991 0.231843 0.380924 -0.470168
N11   N     N_2   0.278424 0.166246 0.576036 -0.547717
O1    O     O_R   0.972510 0.318140 0.514280 -0.478288
O2    O     O_R   0.082990 0.479230 0.439860 -0.508027
O3    O     O_R   0.917010 0.520730 0.420680 -0.477468
O4    O     O_2   0.790271 0.347461 0.796571 -0.520478
O5    O     O_3   0.294685 0.739793 0.873394 -0.515921
O6    O     O_3   0.240093 0.110007 0.404864 -0.586611
O7    O     O_3   0.859827 0.594827 0.725809 -0.534698
O8    O     O_3   0.925215 0.109813 0.563863 -0.553415
O9    O     O_3   0.767680 0.878418 0.574495 -0.549828
O10   O     O_3   0.708106 0.277564 0.412333 -0.533657
O11   O     O_2   0.794943 0.378123 0.198966 -0.513642
O12   O     O_2   0.185425 0.648142 0.795278 -0.428726
O13   O     O_2   0.216985 0.602337 0.211061 -0.479232
O14   O     O_R   0.806530 0.359640 0.495100 -0.428650
O15   O     O_R   0.082990 0.479270 0.579320 -0.503701
O16   O     O_R   0.917010 0.520770 0.560140 -0.484078
O17   O     O_R   0.193470 0.640360 0.504900 -0.507637
O18   O     O_R   0.027490 0.681860 0.485720 -0.518818

loop_
_geom_bond_atom_site_label_1
_geom_bond_atom_site_label_2
_ccdc_geom_bond_type
C10   C27   A    
Cu1   N5    S    
C8    C13   A    
C22   C29   A    
C72   H40   S    
C55   C57   A    
C72   O8    S    
C66   H21   S    
C33   O9    S    
C25   C67   A    
C17   C79   A    
C68   N9    S    
C70   O6    S    
C76   H55   S    
C75   H53   S    
C7    C8    A    
C39   C41   A    
C70   H33   S    
C16   C31   S    
C4    C78   S    
C12   C23   A    
C69   H32   S    
C26   C27   A    
C31   C43   A    
C71   H39   S    
Cu2   O18   S    
C47   C55   A    
C36   C37   A    
C59   H2    S    
C65   H17   S    
C38   C39   A    
C69   H31   S    
C1    C46   S    
C70   H36   S    
C50   N2    S    
C7    H8    S    
C28   O3    A    
C19   N4    S    
C65   H19   S    
C18   C19   A    
C41   C42   A    
C37   C42   A    
H50   N11   S    
C28   C79   S    
C77   H61   S    
C47   C60   A    
C15   C79   A    
C20   C24   A    
C45   C56   A    
C8    C9    A    
C62   H11   S    
C65   O5    S    
C53   N6    A    
C68   H26   S    
C9    C10   A    
C71   H37   S    
C58   N3    S    
C35   H63   S    
C41   N10   S    
C75   N11   S    
C29   H34   S    
Cu2   O3    S    
C57   H65   S    
C25   C29   A    
C30   C44   A    
C2    C6    A    
C30   O6    S    
C14   C19   A    
C74   O10   S    
C50   C51   A    
C54   C59   A    
C27   N9    S    
C40   C45   A    
C74   H47   S    
C69   N10   S    
C31   C44   A    
C63   H1    S    
C2    C20   A    
C65   H18   S    
C71   O7    S    
C77   N3    S    
C66   N8    S    
C12   C63   A    
Cu1   Cu2   S    
C13   O11   S    
C40   O4    S    
C21   C34   A    
C70   H35   S    
C6    H9    S    
C23   N1    S    
C64   N7    S    
C1    O14   A    
C28   O2    A    
C48   H3    S    
C51   C53   A    
C35   C36   A    
Cu2   O16   S    
C52   O12   S    
C77   H62   S    
C5    C9    A    
C12   O7    S    
C11   N4    A    
Cu1   O1    S    
C25   O5    S    
C73   H43   S    
C44   H45   S    
C17   C18   A    
C34   C45   A    
C18   H23   S    
C64   H15   S    
C52   C67   A    
C16   O18   A    
C48   C49   A    
H54   N2    S    
C52   N1    A    
C59   N5    A    
C4    O16   A    
C48   N6    A    
C72   H42   S    
C49   C50   A    
C26   N8    S    
C2    C5    A    
C17   H12   S    
C60   H64   S    
Cu1   O15   S    
C66   H24   S    
C24   H10   S    
C3    C5    A    
C75   H51   S    
C15   H6    S    
C47   N11   S    
C76   H58   S    
C16   O17   A    
C54   C55   A    
C64   H16   S    
C4    O15   A    
C40   N1    A    
C72   H41   S    
C32   C46   A    
C49   H5    S    
C62   C78   A    
C3    C26   A    
C64   H14   S    
C73   O9    S    
Cu1   O2    S    
C61   N7    S    
C34   C67   A    
C13   N4    A    
C53   C58   A    
C75   H52   S    
C6    C7    A    
C76   H57   S    
C24   C56   A    
Cu2   N6    S    
C56   H4    S    
C21   C22   A    
C71   H38   S    
C51   C54   A    
C32   C33   A    
C74   H49   S    
C14   H7    S    
C38   C43   A    
C73   H46   S    
C66   H22   S    
C69   H30   S    
C1    O1    A    
C57   C58   A    
H20   N8    S    
H13   N7    S    
C73   H44   S    
C36   C38   A    
C33   C35   A    
C30   C39   A    
C43   H56   S    
C68   H28   S    
Cu2   O14   S    
C61   C62   A    
C77   H60   S    
H29   N10   S    
C10   C11   A    
Cu1   O17   S    
C42   O10   S    
C23   C61   A    
C20   C21   A    
C76   N2    S    
C11   O13   S    
H25   N9    S    
C74   H48   S    
C14   C15   A    
C3    C22   A    
C68   H27   S    
C37   C46   A    
C32   O8    S    
H59   N3    S    
C60   N5    A    
C63   C78   A    
