data_mof_unit_1437.cif
_audit_creation_date              2012-12-11T17:44:05-0500
_audit_creation_method            fapswitch 2.2
_symmetry_space_group_name_H-M    P1
_symmetry_Int_Tables_number       1
_space_group_crystal_system       triclinic
_cell_length_a                    20.260089
_cell_length_b                    22.796641
_cell_length_c                    6.932084
_cell_angle_alpha                 90.00325
_cell_angle_beta                  87.217356
_cell_angle_gamma                 90.000046
_cell_volume                      3197.89088641

loop_
_atom_site_label
_atom_site_type_symbol
_atom_type_description
_atom_site_fract_x
_atom_site_fract_y
_atom_site_fract_z
_atom_type_partial_charge
O1    O     O_R   0.751270 0.447300 0.600030 -0.518936
O2    O     O_R   0.248730 0.947300 0.399970 -0.518942
O3    O     O_R   0.613530 0.440160 0.952150 -0.542288
O4    O     O_R   0.386470 0.940160 0.047850 -0.542292
O5    O     O_R   0.613050 0.552700 0.122560 -0.533038
O6    O     O_R   0.386950 0.052700 0.877440 -0.533147
C1    C     C_R   0.591671 0.425395 0.786261 0.692220
C2    C     C_R   0.408329 0.925396 0.213725 0.692216
O7    O     O_R   0.750780 0.440350 0.929820 -0.517593
O8    O     O_R   0.249220 0.940350 0.070180 -0.517590
O9    O     O_R   0.751280 0.552900 0.100070 -0.546449
O10   O     O_R   0.248720 0.052900 0.899930 -0.546486
C3    C     C_R   0.773960 0.426008 0.757850 0.800407
C4    C     C_R   0.226036 0.926010 0.242144 0.800389
O11   O     O_R   0.613040 0.447100 0.622520 -0.548363
O12   O     O_R   0.386960 0.947100 0.377480 -0.548364
O13   O     O_3   0.682160 0.536920 0.777780 -0.367369
O14   O     O_3   0.317840 0.036920 0.222220 -0.367384
V1    V     V_3+5 0.682160 0.493150 0.052630 1.521732
V2    V     V_3+5 0.317840 0.993150 0.947370 1.521690
O15   O     O_R   0.750790 0.559840 0.429870 -0.507605
O16   O     O_R   0.249210 0.059840 0.570130 -0.507546
C5    C     C_R   0.773392 0.574617 0.258065 0.862557
C6    C     C_R   0.226605 0.074614 0.741940 0.862641
O17   O     O_R   0.613540 0.559650 0.452200 -0.545903
O18   O     O_R   0.386460 0.059650 0.547800 -0.545826
C7    C     C_R   0.592302 0.575026 0.286226 0.779083
C8    C     C_R   0.407702 0.075021 0.713785 0.779139
V3    V     V_3+5 0.682160 0.506850 0.552630 1.534376
V4    V     V_3+5 0.317840 0.006850 0.447370 1.534458
O19   O     O_3   0.682150 0.463080 0.277610 -0.367239
O20   O     O_3   0.317850 0.963080 0.722390 -0.367244
C9    C     C_R   0.581580 0.866961 0.223043 0.429775
C10   C     C_R   0.418442 0.366981 0.775704 0.429797
H1    H     H_    0.536567 0.951856 0.208520 0.130689
H2    H     H_    0.463457 0.451876 0.790180 0.130674
C11   C     C_R   0.463713 0.883542 0.216178 -0.110400
C12   C     C_R   0.536286 0.383544 0.783717 -0.110401
C13   C     C_R   0.475105 0.599039 0.326233 -0.196753
C14   C     C_R   0.524925 0.099009 0.674441 -0.196821
C15   C     C_R   0.422131 0.637471 0.339835 -0.098563
C16   C     C_R   0.577915 0.137429 0.661142 -0.098553
C17   C     C_R   0.431851 0.697332 0.313246 -0.112946
C18   C     C_R   0.568188 0.197299 0.687487 -0.112965
C19   C     C_R   0.495539 0.720829 0.268881 0.034825
C20   C     C_R   0.504473 0.220819 0.731272 0.034807
C21   C     C_R   0.550490 0.681222 0.255150 0.001974
C22   C     C_R   0.449506 0.181227 0.744660 0.001967
C23   C     C_R   0.505830 0.782561 0.242214 -0.032012
C24   C     C_R   0.494175 0.282561 0.757679 -0.032020
C25   C     C_R   0.571578 0.804912 0.225327 -0.046523
C26   C     C_R   0.428426 0.304930 0.773832 -0.046569
C27   C     C_R   0.625404 0.765393 0.206351 0.267603
C28   C     C_R   0.374578 0.265427 0.792485 0.267510
C29   C     C_R   0.614394 0.704004 0.209662 0.214124
C30   C     C_R   0.385575 0.204036 0.789556 0.214254
C31   C     C_R   0.452530 0.823091 0.232584 -0.175426
C32   C     C_R   0.547467 0.323083 0.767716 -0.175495
C33   C     C_R   0.527956 0.904920 0.213310 -0.204063
C34   C     C_R   0.472058 0.404935 0.785777 -0.204024
C35   C     C_R   0.539199 0.619599 0.285022 -0.057660
C36   C     C_R   0.460806 0.119593 0.715070 -0.057663
H3    H     H_    0.401689 0.809189 0.233534 0.110647
H4    H     H_    0.598294 0.309167 0.767329 0.110699
H5    H     H_    0.466114 0.552677 0.350489 0.112229
H6    H     H_    0.533926 0.052636 0.650427 0.112222
H7    H     H_    0.388377 0.724194 0.333817 0.111777
H8    H     H_    0.611679 0.224151 0.667187 0.111772
H9    H     H_    0.372929 0.620770 0.374268 0.135807
H10   H     H_    0.627137 0.120709 0.627159 0.135785
C37   C     C_R   0.170867 0.882090 0.259191 -0.147904
C38   C     C_R   0.829128 0.382085 0.740792 -0.147937
C39   C     C_R   0.160625 0.841470 0.108173 0.145497
C40   C     C_R   0.839354 0.341455 0.891776 0.145558
C41   C     C_R   0.109029 0.798946 0.128222 0.266184
C42   C     C_R   0.890959 0.298940 0.871743 0.266087
C43   C     C_R   0.064285 0.800759 0.291265 0.332210
C44   C     C_R   0.935724 0.300767 0.708751 0.332180
C45   C     C_R   0.074940 0.840953 0.438410 -0.327769
C46   C     C_R   0.925075 0.340962 0.561619 -0.327656
C47   C     C_R   0.127435 0.881393 0.425328 0.258220
C48   C     C_R   0.872571 0.381394 0.574680 0.258252
C49   C     C_R   0.889495 0.702314 0.369865 0.201950
C50   C     C_R   0.110514 0.202319 0.630184 0.201983
C51   C     C_R   0.838840 0.659072 0.393601 0.213970
C52   C     C_R   0.161165 0.159074 0.606436 0.213915
C53   C     C_R   0.931998 0.702206 0.200875 0.343258
C54   C     C_R   0.068003 0.202209 0.799158 0.343279
N1    N     N_2   0.010694 0.760410 0.321266 -0.172990
N2    N     N_2   0.989322 0.260424 0.678761 -0.172996
N3    N     N_2   0.985671 0.742650 0.170716 -0.143440
N4    N     N_2   0.014326 0.242651 0.829317 -0.143432
C55   C     C_R   0.826843 0.619806 0.240990 -0.141087
C56   C     C_R   0.173155 0.119804 0.759026 -0.141165
H11   H     H_    0.041415 0.840831 0.565102 0.186168
H12   H     H_    0.958610 0.340845 0.434949 0.186178
C57   C     C_R   0.866633 0.623200 0.069910 -0.410380
C58   C     C_R   0.133359 0.123197 0.930097 -0.410383
C59   C     C_R   0.919125 0.663510 0.049699 0.315944
C60   C     C_R   0.080869 0.163509 0.950316 0.315958
H13   H     H_    0.857821 0.593357 0.952265 0.168497
H14   H     H_    0.142166 0.093351 0.047728 0.168488
O21   O     O_3   0.896418 0.746387 0.504230 -0.604242
H15   H     H_    0.852764 0.754601 0.569068 0.314700
O22   O     O_3   0.103603 0.246397 0.495843 -0.604235
H16   H     H_    0.147260 0.254609 0.431029 0.314676
O23   O     O_3   0.135700 0.921734 0.571138 -0.626950
H17   H     H_    0.101478 0.915289 0.676198 0.298526
O24   O     O_3   0.864307 0.421731 0.428873 -0.626928
H18   H     H_    0.898528 0.415283 0.323813 0.298564
O25   O     O_3   0.103303 0.753923 0.996631 -0.600660
H19   H     H_    0.147513 0.745027 0.936594 0.307280
O26   O     O_3   0.896668 0.253912 0.003297 -0.600675
H20   H     H_    0.852427 0.244952 0.062993 0.307223
O27   O     O_3   0.959058 0.665966 0.882560 -0.587666
H21   H     H_    0.943783 0.636415 0.789659 0.304963
O28   O     O_3   0.040930 0.165962 0.117444 -0.587679
H22   H     H_    0.056201 0.136410 0.210334 0.304956
O29   O     O_3   0.202008 0.843583 0.943957 -0.627579
H23   H     H_    0.177319 0.829984 0.832473 0.310975
O30   O     O_3   0.797943 0.343548 0.055940 -0.627602
H24   H     H_    0.822592 0.329889 0.167421 0.311027
O31   O     O_3   0.688648 0.787200 0.174938 -0.625208
H25   H     H_    0.720086 0.760494 0.236209 0.306725
O32   O     O_3   0.311316 0.287257 0.823209 -0.625193
H26   H     H_    0.279950 0.260534 0.761695 0.306774
O33   O     O_3   0.642762 0.892479 0.235498 -0.607858
H27   H     H_    0.663519 0.874097 0.347144 0.324622
O34   O     O_3   0.357294 0.392502 0.762460 -0.607847
H28   H     H_    0.336665 0.374052 0.650711 0.324594
O35   O     O_3   0.665742 0.665863 0.164571 -0.657476
H29   H     H_    0.696269 0.684290 0.066302 0.302816
O36   O     O_3   0.334186 0.165920 0.834437 -0.657485
H30   H     H_    0.303548 0.184411 0.932283 0.302738
O37   O     O_3   0.800137 0.654982 0.562715 -0.631438
H31   H     H_    0.826063 0.668721 0.671425 0.299471
O38   O     O_3   0.199873 0.154986 0.437329 -0.631412
H32   H     H_    0.173950 0.168726 0.328619 0.299484

loop_
_geom_bond_atom_site_label_1
_geom_bond_atom_site_label_2
_ccdc_geom_bond_type
C49   C53   A    
C47   O23   S    
C39   O29   S    
C53   N3    S    
O13   V3    S    
C4    C37   S    
C51   C55   A    
O25   H19   S    
C9    O33   S    
O4    C2    A    
V1    O19   S    
C30   O36   S    
C23   C31   A    
O31   H25   S    
C13   C15   A    
C44   N2    S    
O9    V1    S    
C40   C42   A    
C15   H9    S    
C42   C44   A    
O34   H28   S    
O3    C1    A    
C59   O27   S    
C44   C46   A    
C56   C58   A    
O12   V4    S    
O27   H21   S    
C16   H10   S    
C14   C36   A    
O17   V3    S    
H1    C33   S    
O10   C6    A    
C2    O12   A    
O7    C3    A    
C52   C56   A    
C52   O38   S    
C12   C32   A    
C22   C36   A    
O7    V1    S    
O6    C8    A    
C54   N4    S    
C10   O34   S    
C18   C20   A    
C23   C25   A    
C24   C26   A    
O23   H17   S    
O3    V1    S    
O14   V4    S    
C46   H12   S    
C7    C35   S    
C27   C29   A    
O38   H32   S    
C9    C33   A    
O5    C7    A    
C10   C34   A    
C15   C17   A    
C16   C18   A    
O18   C8    A    
C57   C59   A    
C26   C28   A    
O11   V3    S    
C53   C59   A    
C19   C21   A    
C32   H4    S    
C13   C35   A    
C28   O32   S    
C28   C30   A    
C24   C32   A    
C48   O24   S    
O37   H31   S    
C38   C40   A    
O8    C4    A    
O8    V2    S    
C45   C47   A    
C1    O11   A    
C58   H14   S    
O15   V3    S    
C5    C55   S    
C25   C27   A    
C45   H11   S    
C6    C56   S    
C17   C19   A    
N2    N4    D    
C19   C23   A    
C43   N1    S    
O10   V2    S    
O1    V3    S    
C50   O22   S    
C43   C45   A    
C54   C60   A    
C41   C43   A    
O30   H24   S    
C11   C33   A    
C49   O21   S    
C51   O37   S    
C12   C34   A    
C46   C48   A    
C49   C51   A    
O18   V4    S    
C29   O35   S    
O15   C5    A    
C27   O31   S    
O36   H30   S    
O16   C6    A    
C18   H8    S    
O1    C3    A    
C2    C11   S    
C39   C41   A    
O33   H27   S    
C55   C57   A    
C21   C29   A    
O26   H20   S    
V2    O20   S    
C22   C30   A    
C20   C24   A    
O16   V4    S    
C41   O25   S    
C50   C54   A    
C31   H3    S    
C50   C52   A    
C14   C16   A    
H2    C34   S    
C21   C35   A    
O29   H23   S    
C11   C31   A    
O5    V1    S    
C3    C38   S    
C9    C25   A    
O6    V2    S    
O22   H16   S    
C13   H5    S    
C10   C26   A    
O2    V4    S    
C42   O26   S    
V3    O19   S    
O28   H22   S    
V4    O20   S    
O32   H26   S    
O9    C5    A    
O13   V1    S    
C1    C12   S    
O14   V2    S    
O2    C4    A    
C58   C60   A    
C57   H13   S    
O4    V2    S    
C20   C22   A    
C40   O30   S    
C17   H7    S    
N1    N3    D    
C37   C39   A    
O21   H15   S    
C14   H6    S    
C60   O28   S    
O24   H18   S    
C38   C48   A    
O35   H29   S    
C37   C47   A    
O17   C7    A    
C8    C36   S    
