data_mof_unit_1989.cif
_audit_creation_date              2012-12-10T18:05:59-0500
_audit_creation_method            fapswitch 2.2
_symmetry_space_group_name_H-M    P1
_symmetry_Int_Tables_number       1
_space_group_crystal_system       triclinic
_cell_length_a                    12.688073
_cell_length_b                    13.000615
_cell_length_c                    14.939
_cell_angle_alpha                 91.793148
_cell_angle_beta                  102.864182
_cell_angle_gamma                 81.635372
_cell_volume                      2376.82116351

loop_
_atom_site_label
_atom_site_type_symbol
_atom_type_description
_atom_site_fract_x
_atom_site_fract_y
_atom_site_fract_z
_atom_type_partial_charge
Br1   Br    Br    0.763728 0.059707 0.789809 -0.484319
Br2   Br    Br    0.531768 0.127524 0.359274 -0.449995
Br3   Br    Br    0.295614 0.301700 0.322260 -0.378840
Br4   Br    Br    0.159107 0.647267 0.515347 -0.463295
C1    C     C_R   0.438887 0.691644 0.491154 0.901770
C2    C     C_R   0.406042 0.549740 0.799356 -0.100660
C3    C     C_R   0.500882 0.507002 0.769237 -0.060995
C4    C     C_R   0.500472 0.502442 0.672830 0.929999
C5    C     C_R   0.594728 0.462509 0.830674 -0.272151
C6    C     C_R   0.670981 0.083857 0.669699 0.285518
C7    C     C_R   0.599697 0.201929 0.541253 -0.146061
C8    C     C_R   0.310728 0.838598 0.411995 -0.157109
C9    C     C_R   0.289531 0.943263 0.387974 -0.127085
C10   C     C_R   0.362496 0.010260 0.429031 -0.117232
C11   C     C_R   0.455449 0.973914 0.497772 0.104781
C12   C     C_R   0.595511 0.455419 0.109387 0.112628
C13   C     C_R   0.465427 0.873038 0.532540 0.093245
C14   C     C_R   0.535369 0.036949 0.536556 -0.021591
C15   C     C_R   0.604926 0.011278 0.623977 0.056913
C16   C     C_R   0.561419 0.308705 0.512643 0.927189
C17   C     C_R   0.605684 0.914545 0.662967 -0.175197
C18   C     C_R   0.539555 0.844878 0.616294 -0.179166
C19   C     C_R   0.548532 0.124917 0.490884 0.195739
C20   C     C_R   0.663008 0.181154 0.629922 -0.272281
C21   C     C_R   0.400682 0.802625 0.482314 -0.068810
C22   C     C_R   0.092783 0.331715 0.381067 -0.157993
C23   C     C_R   0.298820 0.532199 0.010284 -0.142064
C24   C     C_R   0.801724 0.623648 0.616169 0.022379
C25   C     C_R   0.909692 0.636801 0.651773 -0.189814
C26   C     C_R   0.991205 0.582482 0.612869 -0.122845
C27   C     C_R   0.964710 0.519040 0.535041 0.056388
C28   C     C_R   0.499479 0.497702 0.327079 0.892466
C29   C     C_R   0.855343 0.499695 0.508471 0.228500
C30   C     C_R   0.043332 0.468848 0.486929 -0.064847
C31   C     C_R   0.015676 0.385153 0.427001 0.018686
C32   C     C_R   0.908269 0.361955 0.408305 -0.233372
C33   C     C_R   0.829191 0.420712 0.445851 -0.179942
C34   C     C_R   0.297140 0.535101 0.916553 -0.036667
C35   C     C_R   0.145142 0.503146 0.490728 0.276920
C36   C     C_R   0.196004 0.364123 0.394376 0.340968
C37   C     C_R   0.596032 0.460124 0.202322 -0.214881
C38   C     C_R   0.498397 0.490620 0.230739 -0.047486
C39   C     C_R   0.399227 0.512710 0.167193 -0.192961
C40   C     C_R   0.397635 0.510131 0.074188 0.060266
C41   C     C_R   0.496174 0.483369 0.044991 0.075300
C42   C     C_2   0.065957 0.241511 0.320826 0.444865
C43   C     C_2   0.191038 0.534967 0.850070 0.391618
C44   C     C_2   0.330373 0.638644 0.748470 0.424824
C45   C     C_R   0.397836 0.523589 0.887997 -0.075754
C46   C     C_R   0.495987 0.487429 0.951823 0.074537
C47   C     C_R   0.594916 0.458516 0.923050 0.127086
C48   C     C_R   0.692023 0.425109 0.986792 -0.164875
C49   C     C_R   0.692639 0.424991 0.079938 -0.183518
H1    H     H_    0.672107 0.440194 0.252392 0.153691
H2    H     H_    0.074676 0.587826 0.646474 0.169981
H3    H     H_    0.930389 0.686748 0.710507 0.189896
H4    H     H_    0.748425 0.400862 0.426292 0.209038
H5    H     H_    0.222852 0.544387 0.033569 0.195724
H6    H     H_    0.668028 0.432884 0.806636 0.168069
H7    H     H_    0.767829 0.401822 0.964782 0.175774
H8    H     H_    0.768915 0.401996 0.128882 0.170197
H9    H     H_    0.702917 0.241611 0.669316 0.190204
H10   H     H_    0.030080 0.180213 0.345558 0.058016
H11   H     H_    0.189560 0.508724 0.780265 0.048115
H12   H     H_    0.658418 0.890990 0.728584 0.196302
H13   H     H_    0.257262 0.672489 0.770426 0.080406
H14   H     H_    0.259414 0.785285 0.373589 0.179891
H15   H     H_    0.343901 0.090995 0.408734 0.199610
H16   H     H_    0.219153 0.971676 0.334767 0.175360
H17   H     H_    0.543376 0.770400 0.648238 0.176570
H18   H     H_    0.882226 0.301366 0.360773 0.153136
H19   H     H_    0.323750 0.534604 0.190208 0.171400
H20   H     H_    0.737939 0.663491 0.647260 0.140700
N1    N     N_R   0.222190 0.444670 0.452360 -0.157770
N2    N     N_R   0.776970 0.554790 0.547140 -0.136077
O1    O     O_R   0.366740 0.627160 0.477250 -0.547481
O2    O     O_2   0.104460 0.562181 0.872769 -0.558603
O3    O     O_2   0.353626 0.681888 0.685602 -0.555773
O4    O     O_R   0.544830 0.662520 0.507680 -0.626898
O5    O     O_R   0.410940 0.482340 0.616930 -0.586809
O6    O     O_R   0.589030 0.517700 0.647360 -0.642491
O7    O     O_R   0.455170 0.337480 0.492320 -0.577124
O8    O     O_R   0.633260 0.372840 0.522750 -0.642447
O9    O     O_R   0.410970 0.482300 0.352640 -0.576346
O10   O     O_R   0.589060 0.517660 0.383070 -0.643081
O11   O     O_2   0.079486 0.236912 0.242342 -0.498030
Zn1   Zn    Zn3+2 0.381090 0.476390 0.479680 1.039795
Zn2   Zn    Zn3+2 0.618910 0.523610 0.520320 0.946272

loop_
_geom_bond_atom_site_label_1
_geom_bond_atom_site_label_2
_ccdc_geom_bond_type
C11   C14   A    
C39   H19   S    
C16   O7    A    
C37   C38   A    
C31   C32   A    
C5    C47   A    
O9    Zn1   S    
C3    C4    S    
C34   C45   A    
C40   C41   A    
C2    C44   S    
C32   C33   A    
C15   C17   A    
C14   C15   A    
O5    Zn1   S    
C26   C27   A    
C23   C34   A    
O7    Zn1   S    
C7    C20   A    
C3    C5    A    
C30   C31   A    
C35   N1    A    
C44   O3    D    
C4    O6    A    
C12   C49   A    
C48   H7    S    
C49   H8    S    
C23   C40   A    
C29   N2    A    
C27   C29   A    
N1    Zn1   S    
C1    O4    A    
C32   H18   S    
O8    Zn2   S    
C9    C10   A    
C24   H20   S    
O4    Zn2   S    
C28   O9    A    
C8    H14   S    
C7    C16   S    
C30   C35   A    
C43   H11   S    
C6    C20   A    
C29   C33   A    
C14   C19   A    
C5    H6    S    
C39   C40   A    
C25   C26   A    
N2    Zn2   S    
Br4   C35   S    
C6    C15   A    
C46   C47   A    
C27   C30   A    
O1    Zn1   S    
C34   C43   S    
C1    C21   S    
Br3   C36   S    
C38   C39   A    
C43   O2    D    
C48   C49   A    
O10   Zn2   S    
C11   C13   A    
C24   C25   A    
C20   H9    S    
C17   H12   S    
Br1   C6    S    
C23   H5    S    
C12   C41   A    
C2    C3    A    
C25   H3    S    
C26   H2    S    
C42   H10   S    
C13   C18   A    
C8    C21   A    
C13   C21   A    
C1    O1    A    
C47   C48   A    
C22   C36   A    
C9    H16   S    
C41   C46   A    
C28   O10   A    
C7    C19   A    
C36   N1    A    
C2    C45   A    
C10   H15   S    
C37   H1    S    
O6    Zn2   S    
C22   C42   S    
C22   C31   A    
C8    C9    A    
C45   C46   A    
C16   O8    A    
Br2   C19   S    
C4    O5    A    
C28   C38   S    
C10   C11   A    
C44   H13   S    
C17   C18   A    
C24   N2    A    
C12   C37   A    
C18   H17   S    
C33   H4    S    
C42   O11   D    
