data_mof_unit_783.cif
_audit_creation_date              2013-03-05T16:02:55-0500
_audit_creation_method            fapswitch 2.2
_symmetry_space_group_name_H-M    P1
_symmetry_Int_Tables_number       1
_space_group_crystal_system       triclinic
_cell_length_a                    8.301065
_cell_length_b                    14.359802
_cell_length_c                    17.326391
_cell_angle_alpha                 97.360815
_cell_angle_beta                  96.95113
_cell_angle_gamma                 91.732416
_cell_volume                      2031.06289736

loop_
_atom_site_label
_atom_site_type_symbol
_atom_site_description
_atom_site_fract_x
_atom_site_fract_y
_atom_site_fract_z
_atom_type_partial_charge
P1    P     P_3+3 0.017810 0.410420 0.324030 0.475589
O1    O     O_2   0.840370 0.437300 0.310630 -0.378192
O2    O     O_3   0.112450 0.444030 0.408320 -0.394219
O3    O     O_3   0.597270 0.610320 0.351390 -0.424084
O4    O     O_2   0.724876 0.563264 0.221120 -0.386831
O5    O     O_3   0.011875 0.288201 0.302205 -0.558653
O6    O     O_3   0.518742 0.696248 0.214604 -0.504656
H1    H     H_    0.693118 0.755770 0.306224 0.181946
C1    C     C_3   0.600635 0.861894 0.240137 -0.706340
H2    H     H_    0.671121 0.913682 0.285974 0.140957
H3    H     H_    0.673139 0.848933 0.190231 0.243356
P2    P     P_3+3 0.635890 0.718430 0.552520 0.460078
P3    P     P_3+3 0.038992 0.780931 0.385372 0.458989
O7    O     O_2   0.802370 0.730760 0.528330 -0.344719
O8    O     O_3   0.016680 0.660770 0.388810 -0.353233
O9    O     O_2   0.913355 0.829240 0.434056 -0.368143
O10   O     O_3   0.654538 0.755118 0.654060 -0.637766
O11   O     O_3   0.974020 0.800847 0.289419 -0.591947
C2    C     C_3   0.072824 0.752755 0.238910 0.169426
H4    H     H_    0.053981 0.675476 0.237288 0.137004
H5    H     H_    0.202938 0.773597 0.257666 0.059305
C3    C     C_3   0.025899 0.778543 0.156870 -0.077966
H6    H     H_    0.900472 0.750769 0.134136 0.172216
H7    H     H_    0.030808 0.856229 0.158825 0.165885
C4    C     C_3   0.296758 0.764318 0.682286 0.590745
H8    H     H_    0.380851 0.720587 0.651095 0.127818
C5    C     C_3   0.379444 0.820133 0.758934 -0.159405
H9    H     H_    0.489947 0.859184 0.747966 0.150701
H10   H     H_    0.295484 0.872166 0.782452 0.168261
Ba1   Ba    Ba6+2 0.833220 0.541860 0.459910 1.583715
C6    C     C_3   0.948590 0.242836 0.359207 0.434531
H11   H     H_    0.860499 0.285734 0.389343 0.064591
H12   H     H_    0.049424 0.227889 0.403481 0.116628
C7    C     C_3   0.861804 0.150399 0.318095 -0.663779
H13   H     H_    0.752752 0.167377 0.280013 0.207581
H14   H     H_    0.822811 0.108219 0.362506 0.153124
C8    C     C_3   0.798508 0.731312 0.696040 0.365148
H15   H     H_    0.879246 0.693555 0.658021 0.127447
C9    C     C_3   0.883033 0.822947 0.739947 -0.735028
H16   H     H_    0.921465 0.868080 0.697552 0.219497
H17   H     H_    0.991289 0.809047 0.780309 0.268081
H18   H     H_    0.798256 0.862610 0.775336 0.244096
P4    P     P_3+3 0.171880 0.589650 0.675980 0.540481
O12   O     O_2   0.349330 0.562730 0.689420 -0.363273
O13   O     O_3   0.077250 0.556050 0.591680 -0.333870
O14   O     O_3   0.592420 0.389760 0.648620 -0.394952
O15   O     O_3   0.162076 0.712307 0.697292 -0.592069
P5    P     P_3+3 0.155311 0.217937 0.614543 0.485764
O16   O     O_3   0.628930 0.385070 0.464840 -0.388134
O17   O     O_3   0.173020 0.339310 0.611190 -0.373469
O18   O     O_2   0.282334 0.172151 0.565526 -0.328856
O19   O     O_3   0.227937 0.197770 0.709825 -0.559073
Ba2   Ba    Ba6+2 0.356600 0.458220 0.540090 1.594317
P6    P     P_3+3 0.559664 0.588390 0.249380 0.473335
C10   C     C_3   0.574587 0.770343 0.274376 0.412996
H19   H     H_    0.485861 0.780092 0.317315 -0.035270
O20   O     O_3   0.560770 0.615000 0.535160 -0.388310
C11   C     C_3   0.450704 0.293902 0.305868 0.393990
H20   H     H_    0.331379 0.306523 0.327031 0.129652
H21   H     H_    0.526169 0.360475 0.313743 0.092689
C12   C     C_3   0.421744 0.256475 0.218809 -0.884218
H22   H     H_    0.366186 0.184019 0.210039 0.309547
H23   H     H_    0.338225 0.301496 0.186979 0.218772
H24   H     H_    0.538837 0.255281 0.193820 0.238515
P7    P     P_3+3 0.562310 0.266406 0.446095 0.424063
O21   O     O_2   0.387340 0.269270 0.471720 -0.348147
O22   O     O_3   0.531548 0.226740 0.345633 -0.592474
C13   C     C_3   0.120385 0.229858 0.763460 0.302080
H25   H     H_    0.027709 0.276272 0.739099 -0.009611
C14   C     C_3   0.030407 0.145083 0.788175 -0.672104
H26   H     H_    0.956770 0.169967 0.835612 0.216930
H27   H     H_    0.945705 0.110749 0.737614 0.138922
P8    P     P_3+3 0.630107 0.397829 0.750137 0.454990
C15   C     C_3   0.624910 0.217767 0.719908 0.483179
H28   H     H_    0.752699 0.227682 0.708784 -0.003560
O23   O     O_2   0.505231 0.464107 0.784221 -0.377676
O24   O     O_3   0.585787 0.287873 0.778214 -0.522069
H29   H     H_    0.543530 0.218991 0.664339 0.155972
H30   H     H_    0.639316 0.066160 0.701716 0.215511
C16   C     C_3   0.602663 0.121501 0.746218 -0.936559
H31   H     H_    0.473923 0.107112 0.753293 0.284513
H32   H     H_    0.677569 0.118397 0.803264 0.261413
C17   C     C_2   0.278274 0.490354 0.272854 -0.484612
C18   C     C_3   0.398550 0.493303 0.214091 0.182293
C19   C     C_2   0.317547 0.499685 0.132022 -0.140189
C20   C     C_2   0.154474 0.484559 0.113133 0.105315
C21   C     C_2   0.054960 0.465498 0.177203 -0.262002
C22   C     C_1   0.124621 0.462001 0.250112 0.322181
C23   C     C_R   0.905125 0.454294 0.860654 -0.200059
C24   C     C_R   0.838297 0.445914 0.781852 0.239331
C25   C     C_R   0.075086 0.528495 0.748892 0.300079
C26   C     C_R   0.142511 0.536855 0.828473 -0.201853
C27   C     C_R   0.059915 0.498842 0.885256 0.090238
C28   C     C_2   0.070590 0.481282 0.030407 -0.083943
C29   C     C_2   0.141298 0.505688 0.968448 -0.048839
C30   C     C_R   0.925873 0.479480 0.726055 -0.522393
H33   H     H_    0.265994 0.533138 0.978099 0.149773
H34   H     H_    0.925967 0.448167 0.162134 0.168877
H35   H     H_    0.835152 0.425430 0.901300 0.140062
H36   H     H_    0.943723 0.458098 0.021716 0.124150
H37   H     H_    0.396612 0.509581 0.088188 0.141656
H38   H     H_    0.259766 0.572678 0.846305 0.197131
H39   H     H_    0.331741 0.484071 0.331977 0.149961
H40   H     H_    0.872169 0.473567 0.665460 0.168616
C31   C     C_R   0.707201 0.938832 0.541398 -0.120015
C32   C     C_R   0.511870 0.801198 0.497242 0.204686
C33   C     C_R   0.361295 0.767272 0.455664 -0.440882
C34   C     C_R   0.249033 0.827567 0.424114 0.130503
C35   C     C_R   0.291762 0.923059 0.427869 -0.171343
C36   C     C_R   0.448244 0.958239 0.463495 0.045972
C37   C     C_R   0.557048 0.898661 0.501385 0.015835
C38   C     C_R   0.644902 0.091875 0.501384 -0.024436
C39   C     C_R   0.752734 0.034028 0.540637 0.052546
C40   C     C_R   0.688364 0.188069 0.502288 0.203706
C41   C     C_R   0.838766 0.224652 0.540774 -0.516994
C42   C     C_R   0.950224 0.166864 0.575407 0.291909
C43   C     C_R   0.906873 0.071759 0.576293 -0.253971
C44   C     C_R   0.497074 0.052272 0.461630 -0.121088
H41   H     H_    0.993568 0.027445 0.603805 0.175091
H42   H     H_    0.872821 0.297886 0.540114 0.167781
H43   H     H_    0.791336 0.897015 0.572735 0.180245
H44   H     H_    0.419203 0.094687 0.427844 0.197072
Br1   Br    Br    0.437475 0.742669 0.840554 -0.406096
C45   C     C_2   0.960638 0.090790 0.265234 0.704622
H45   H     H_    0.904357 0.026967 0.230999 -0.011909
O25   O     O_2   0.102257 0.111854 0.260179 -0.572701
C46   C     C_2   0.753733 0.666352 0.752086 0.504696
H46   H     H_    0.669347 0.607239 0.730141 0.068991
O26   O     O_2   0.809786 0.678124 0.821365 -0.527330
C47   C     C_2   0.443134 0.903939 0.214699 0.802965
H47   H     H_    0.358834 0.922368 0.256788 -0.095512
O27   O     O_2   0.410295 0.919646 0.147149 -0.497420
Br2   Br    Br    0.172975 0.727211 0.085698 -0.424789
C48   C     C_2   0.217577 0.289896 0.832135 0.558117
H48   H     H_    0.284639 0.351876 0.821669 0.067752
O28   O     O_2   0.221883 0.271247 0.899173 -0.565974
C49   C     C_2   0.143449 0.072173 0.814100 0.782675
H49   H     H_    0.215204 0.035184 0.772734 -0.001810
O29   O     O_2   0.153173 0.052918 0.881054 -0.517546
C50   C     C_2   0.312169 0.668966 0.452136 0.820584
H50   H     H_    0.330081 0.620023 0.402148 -0.063660
O30   O     O_2   0.244771 0.643333 0.504766 -0.506758
C51   C     C_2   0.167657 0.984616 0.396468 0.595447
H51   H     H_    0.098999 0.962672 0.339755 0.019199
O31   O     O_2   0.134643 0.056709 0.435398 -0.588368
Br3   Br    Br    0.215180 0.856611 0.617103 -0.623258

loop_
_geom_bond_atom_site_label_1
_geom_bond_atom_site_label_2
_geom_bond_distance
_ccdc_geom_bond_type
C38   C44   1.398761 A    
C21   C22   1.331883 D    
C5    H10   1.110093 S    
P7    C40   1.847563 S    
Ba1   O13   2.844988 S    
C2    H4    1.112283 S    
O6    C10   1.411079 S    
C10   H19   1.108038 S    
C36   C44   1.403522 A    
C38   C40   1.414718 A    
C40   C41   1.395872 A    
C9    H17   1.109479 S    
C1    C47   1.498192 S    
C34   C35   1.397312 A    
C49   O29   1.220503 D    
C17   H39   1.081913 S    
P3    O11   1.746649 S    
C23   H35   1.079077 S    
C31   C39   1.409365 A    
C2    H5    1.110112 S    
C50   O30   1.215349 D    
P8    C24   1.834716 S    
O11   C2    1.403067 S    
C43   H41   1.082796 S    
C7    H13   1.106477 S    
C32   C33   1.404974 A    
C11   H21   1.111130 S    
C41   C42   1.394395 A    
Ba1   O20   2.902486 S    
C42   C43   1.404213 A    
P1    O1    1.531997 D    
C44   H44   1.074751 S    
C33   C50   1.449089 S    
C12   H23   1.108458 S    
C36   C37   1.423295 A    
C26   C27   1.419246 A    
C20   C28   1.510202 S    
C25   C30   1.394074 A    
O12   Ba2   2.828175 S    
P4    Ba2   3.371494 S    
P5    O18   1.543043 D    
C17   C18   1.513212 S    
C13   H25   1.112975 S    
P7    O22   1.746144 S    
C15   O24   1.406445 S    
P2    O10   1.757387 S    
C7    C45   1.506029 S    
C33   C34   1.401310 A    
C6    H12   1.110306 S    
C14   H26   1.111951 S    
C1    C10   1.529941 S    
C1    H2    1.111760 S    
C4    O15   1.394623 S    
O19   C13   1.410303 S    
C26   H38   1.078743 S    
P5    C42   1.847601 S    
C21   H34   1.084545 S    
P2    Ba1   3.395819 S    
P1    C22   1.858299 S    
P5    O17   1.753620 S    
C17   C22   1.324283 D    
C31   C37   1.418408 A    
O13   Ba2   2.920058 S    
C27   C29   1.505898 S    
C15   C16   1.522911 S    
C12   H22   1.109881 S    
O7    Ba1   2.849642 S    
P3    C34   1.862798 S    
H1    C10   1.107715 S    
P6    C18   1.872073 S    
C38   C39   1.412857 A    
C9    H18   1.111211 S    
C32   C37   1.428478 A    
Ba1   Ba2   4.527320 S    
O17   Ba2   2.755283 S    
C15   H28   1.109082 S    
C3    Br2   1.934035 S    
P1    O5    1.745216 S    
O4    P6    1.548535 D    
C2    C3    1.522814 S    
C50   H50   1.071319 S    
C16   H32   1.108953 S    
C9    H16   1.107968 S    
C5    Br1   1.933893 S    
C20   C21   1.508568 S    
C48   O28   1.221623 D    
C4    H8    1.097522 S    
C19   C20   1.357752 D    
P4    C25   1.870835 S    
P1    O2    1.581698 S    
O2    Ba1   2.919215 S    
C47   O27   1.220306 D    
P4    O12   1.532294 D    
C46   O26   1.222287 D    
C8    H15   1.101995 S    
P4    O13   1.581786 S    
C6    H11   1.106371 S    
C28   H36   1.081745 S    
C6    C7    1.537549 S    
C31   H43   1.077158 S    
C35   C51   1.476934 S    
O10   C8    1.397207 S    
C18   C19   1.512686 S    
Ba2   O21   2.849873 S    
C1    H3    1.111785 S    
C4    Br3   1.934746 S    
O16   P7    1.752895 S    
C39   C43   1.411865 A    
P2    O20   1.571424 S    
Ba1   O16   2.793874 S    
P2    O7    1.503746 D    
P7    O21   1.569523 D    
P3    O8    1.739205 S    
P8    O23   1.546902 D    
C3    H7    1.111080 S    
C46   H46   1.082914 S    
C25   C26   1.412671 A    
C19   H37   1.081873 S    
O8    Ba1   2.754697 S    
C45   O25   1.221224 D    
C51   O31   1.218505 D    
Ba2   O20   2.793176 S    
O3    P6    1.743117 S    
C16   H31   1.106633 S    
C29   H33   1.082284 S    
C24   C30   1.401332 A    
C48   H48   1.082014 S    
C4    C5    1.533140 S    
C49   H49   1.084210 S    
O1    Ba1   2.827589 S    
C30   H40   1.081579 S    
C47   H47   1.084806 S    
C11   H20   1.109137 S    
C8    C9    1.536567 S    
C35   C36   1.417715 A    
C12   H24   1.110625 S    
P2    C32   1.875316 S    
O2    Ba2   2.845599 S    
C11   C12   1.522726 S    
O16   Ba2   2.901691 S    
O14   Ba2   2.834349 S    
C13   C48   1.507573 S    
P1    Ba1   3.370845 S    
O5    C6    1.394817 S    
C7    H14   1.109765 S    
C23   C27   1.410603 A    
C28   C29   1.362451 D    
H30   C16   1.110408 S    
C11   O22   1.397386 S    
P5    O19   1.750702 S    
C14   C49   1.502122 S    
C13   C14   1.542459 S    
C41   H42   1.082530 S    
C15   H29   1.109633 S    
P3    O9    1.545046 D    
C5    H9    1.109238 S    
P8    O24   1.752166 S    
C3    H6    1.110698 S    
C14   H27   1.106423 S    
O6    P6    1.760301 S    
C23   C24   1.398909 A    
P4    O15   1.759127 S    
O14   P8    1.737105 S    
O3    Ba1   2.834912 S    
C51   H51   1.078862 S    
C45   H45   1.085266 S    
C8    C46   1.499923 S    
