data_mof_unit_4210.cif
_audit_creation_date              2013-03-05T16:37:44-0500
_audit_creation_method            fapswitch 2.2
_symmetry_space_group_name_H-M    P1
_symmetry_Int_Tables_number       1
_space_group_crystal_system       triclinic
_cell_length_a                    18.658975
_cell_length_b                    18.744222
_cell_length_c                    19.103763
_cell_angle_alpha                 110.003319
_cell_angle_beta                  109.848196
_cell_angle_gamma                 109.274124
_cell_volume                      5097.55709683

loop_
_atom_site_label
_atom_site_type_symbol
_atom_site_description
_atom_site_fract_x
_atom_site_fract_y
_atom_site_fract_z
_atom_type_partial_charge
O1    O     O_R   0.408360 0.551710 0.460090 -0.604679
O2    O     O_R   0.408390 0.448280 0.356670 -0.618608
C1    C     C_R   0.382511 0.502913 0.380447 0.864699
O3    O     O_R   0.591600 0.643340 0.551710 -0.605124
O4    O     O_R   0.591630 0.539900 0.448290 -0.607249
C2    C     C_R   0.624403 0.621368 0.505113 0.838137
Zn1   Zn    Zn3+2 0.499980 0.569070 0.569050 1.020989
Zn2   Zn    Zn3+2 0.500020 0.430930 0.430950 1.033532
O5    O     O_R   0.591610 0.551720 0.643330 -0.622195
O6    O     O_R   0.591640 0.448290 0.539910 -0.606326
O7    O     O_R   0.408370 0.460100 0.551710 -0.626889
O8    O     O_R   0.408400 0.356660 0.448290 -0.603475
C3    C     C_R   0.618885 0.498953 0.619414 0.857420
C4    C     C_R   0.377390 0.380002 0.497012 0.868276
H1    H     H_    0.781943 0.805744 0.885688 0.197346
C5    C     C_R   0.711945 0.804665 0.769698 -0.185907
H2    H     H_    0.661854 0.809442 0.784184 0.179714
C6    C     C_R   0.711011 0.804871 0.696103 0.379419
C7    C     C_R   0.773944 0.793786 0.675004 -0.179178
C8    C     C_R   0.851578 0.808998 0.742425 0.274486
C9    C     C_R   0.851612 0.810549 0.816630 -0.166899
H3    H     H_    0.908521 0.819764 0.867645 0.208216
C10   C     C_R   0.780518 0.804158 0.828032 -0.242027
C11   C     C_R   0.816684 0.834998 0.578680 -0.036349
H4    H     H_    0.868679 0.898057 0.636354 0.186891
C12   C     C_R   0.810837 0.816222 0.499034 -0.091860
C13   C     C_R   0.739856 0.738891 0.421708 -0.022384
C14   C     C_R   0.680798 0.676714 0.427509 -0.214663
H5    H     H_    0.626288 0.616173 0.368440 0.161218
C15   C     C_R   0.690645 0.691215 0.507854 -0.047836
C16   C     C_R   0.759433 0.772386 0.585960 0.100492
C17   C     C_R   0.643897 0.700326 0.270559 -0.174745
H6    H     H_    0.592699 0.700215 0.285231 0.137129
C18   C     C_R   0.628500 0.680967 0.187592 -0.165967
H7    H     H_    0.565624 0.666435 0.139995 0.185490
C19   C     C_R   0.693698 0.680542 0.166569 0.031142
C20   C     C_R   0.774181 0.699457 0.230092 -0.158127
H8    H     H_    0.824930 0.698251 0.215314 0.175541
C21   C     C_R   0.789826 0.719851 0.313306 -0.143019
H9    H     H_    0.852568 0.735494 0.361624 0.108616
C22   C     C_R   0.724978 0.720475 0.334342 0.140234
H10   H     H_    0.585670 0.919288 0.521618 0.164513
C23   C     C_R   0.463424 0.823885 0.497167 -0.030111
H11   H     H_    0.455268 0.872670 0.538949 0.155264
C24   C     C_R   0.399003 0.734935 0.450774 -0.073025
H12   H     H_    0.339521 0.715852 0.454505 0.160519
C25   C     C_R   0.407327 0.671972 0.393153 0.115723
C26   C     C_R   0.484104 0.698201 0.387925 -0.121035
H13   H     H_    0.490824 0.650688 0.342860 0.110094
C27   C     C_R   0.548665 0.787178 0.434887 -0.062142
H14   H     H_    0.606483 0.807627 0.428626 0.128281
C28   C     C_R   0.536886 0.850158 0.487269 0.021348
C29   C     C_R   0.261948 0.584500 0.257321 -0.076050
C30   C     C_R   0.188713 0.502564 0.186568 -0.125693
C31   C     C_R   0.181920 0.422758 0.178645 0.062356
C32   C     C_R   0.246921 0.425302 0.243503 -0.221517
H15   H     H_    0.241933 0.364052 0.238001 0.164406
C33   C     C_R   0.318495 0.505633 0.314962 -0.112730
C34   C     C_R   0.327602 0.586001 0.322479 -0.087017
C35   C     C_R   0.046525 0.272265 0.101342 0.345360
C36   C     C_R   0.988300 0.187765 0.027292 -0.175983
H16   H     H_    0.937652 0.138143 0.027051 0.185439
C37   C     C_R   0.993963 0.166886 0.952575 -0.152547
H17   H     H_    0.948967 0.101521 0.896118 0.156877
C38   C     C_R   0.057446 0.230091 0.950567 -0.106404
H18   H     H_    0.061724 0.213561 0.892576 0.151799
C39   C     C_R   0.116322 0.314118 0.023698 -0.204210
H19   H     H_    0.166436 0.361900 0.021653 0.138868
C40   C     C_R   0.112204 0.335852 0.099792 0.008738
H20   H     H_    0.204652 0.596592 0.498075 0.164952
C41   C     C_R   0.223610 0.528092 0.566870 -0.063934
H21   H     H_    0.228809 0.574794 0.623444 0.204619
C42   C     C_R   0.230881 0.455649 0.564700 -0.103605
H22   H     H_    0.241703 0.447146 0.619948 0.127533
C43   C     C_R   0.225130 0.394975 0.491940 0.149393
C44   C     C_R   0.211247 0.407435 0.421077 -0.054830
H23   H     H_    0.206562 0.361276 0.364430 0.137536
C45   C     C_R   0.203626 0.479987 0.423507 -0.070980
H24   H     H_    0.193226 0.490030 0.369291 0.188610
C46   C     C_R   0.210066 0.540342 0.496339 -0.077137
C47   C     C_R   0.173324 0.255426 0.494324 0.264245
C48   C     C_R   0.189411 0.189956 0.505052 -0.176387
C49   C     C_R   0.268253 0.189887 0.514550 0.029577
C50   C     C_R   0.326185 0.251351 0.507279 -0.177845
H25   H     H_    0.387215 0.252816 0.515126 0.144941
C51   C     C_R   0.309793 0.314298 0.495316 -0.106941
C52   C     C_R   0.235332 0.319533 0.491715 -0.113841
C53   C     C_R   0.324491 0.148839 0.622809 -0.114557
H26   H     H_    0.312298 0.193065 0.664273 0.151253
C54   C     C_R   0.369764 0.111439 0.656135 -0.140129
H27   H     H_    0.389511 0.124789 0.721525 0.141343
C55   C     C_R   0.392188 0.059391 0.606425 -0.079730
H28   H     H_    0.428611 0.031515 0.632867 0.147373
C56   C     C_R   0.367912 0.043193 0.522613 -0.056989
H29   H     H_    0.385996 0.002011 0.485462 0.188711
C57   C     C_R   0.319684 0.078113 0.486490 -0.022779
C58   C     C_R   0.297964 0.132547 0.538055 0.065419
H30   H     H_    0.602480 0.456340 0.730824 0.169260
C59   C     C_R   0.792138 0.564430 0.643954 -0.224035
H31   H     H_    0.748833 0.580914 0.607089 0.152081
C60   C     C_R   0.872772 0.586751 0.647855 0.006744
C61   C     C_R   0.928726 0.564952 0.693361 -0.108329
H32   H     H_    0.987896 0.575336 0.689851 0.218144
C62   C     C_R   0.906211 0.523124 0.737035 -0.006184
C63   C     C_R   0.829768 0.511544 0.744413 0.019786
C64   C     C_R   0.769418 0.525489 0.690464 0.079871
C65   C     C_R   0.687065 0.500712 0.684160 -0.077024
C66   C     C_R   0.666678 0.473187 0.736803 -0.258873
C67   C     C_R   0.729059 0.471804 0.799917 -0.043617
C68   C     C_R   0.811327 0.490032 0.804186 -0.220647
O9    O     O_R   0.051730 0.908360 0.460070 -0.606328
O10   O     O_R   0.948280 0.908380 0.356650 -0.590098
C69   C     C_R   0.000471 0.879500 0.380406 0.916802
O11   O     O_R   0.960110 0.908350 0.551690 -0.597865
O12   O     O_R   0.856660 0.908370 0.448270 -0.619556
C70   C     C_R   0.879104 0.879953 0.499098 0.889312
Zn3   Zn    Zn3+2 0.069080 0.999960 0.569030 1.026912
Zn4   Zn    Zn3+2 0.930920 0.999990 0.430930 1.134332
O13   O     O_R   0.051720 0.091580 0.643310 -0.638588
O14   O     O_R   0.948270 0.091600 0.539890 -0.578548
O15   O     O_R   0.143340 0.091590 0.551680 -0.646413
O16   O     O_R   0.039890 0.091610 0.448270 -0.535052
C71   C     C_R   0.000374 0.120696 0.619776 0.938303
C72   C     C_R   0.121253 0.120274 0.500724 0.970139
O17   O     O_R   0.051710 0.460040 0.908380 -0.583558
O18   O     O_R   0.948270 0.356620 0.908410 -0.634674
C73   C     C_R   0.998165 0.378871 0.878960 0.866207
O19   O     O_R   0.143330 0.551680 0.091590 -0.623477
O20   O     O_R   0.039890 0.448260 0.091620 -0.587549
C74   C     C_R   0.120736 0.500290 0.119747 0.899611
Zn5   Zn    Zn3+2 0.069060 0.569020 0.999970 1.083292
Zn6   Zn    Zn3+2 0.930920 0.430910 0.000010 1.060915
O21   O     O_R   0.051700 0.643310 0.091570 -0.612611
O22   O     O_R   0.948260 0.539890 0.091600 -0.574665
O23   O     O_R   0.960080 0.551670 0.908360 -0.610700
O24   O     O_R   0.856640 0.448250 0.908390 -0.605066
C75   C     C_R   0.998893 0.620320 0.118358 0.944538
C76   C     C_R   0.879115 0.495462 0.875684 0.846751
C77   C     C_R   0.157480 0.760910 0.531846 -0.302553
H33   H     H_    0.226512 0.789970 0.578166 0.212194
C78   C     C_R   0.134048 0.785946 0.469876 0.372648
C79   C     C_R   0.043259 0.747204 0.408919 0.023550
C80   C     C_R   0.979517 0.683272 0.410929 -0.270331
H34   H     H_    0.910834 0.647448 0.360707 0.188759
C81   C     C_R   0.004468 0.655321 0.469204 -0.177900
H35   H     H_    0.953912 0.602169 0.465405 0.211589
C82   C     C_R   0.093608 0.694052 0.530477 0.316372
C83   C     C_R   0.009010 0.680859 0.258264 -0.056624
C84   C     C_R   0.000484 0.687101 0.185134 -0.183447
C85   C     C_R   0.999136 0.759312 0.178640 -0.068443
C86   C     C_R   0.997384 0.821836 0.242428 0.277502
C87   C     C_R   0.004775 0.815509 0.315833 -0.179349
C88   C     C_R   0.016862 0.748220 0.326587 -0.057660
C89   C     C_R   0.092970 0.838888 0.134024 -0.207585
H36   H     H_    0.144495 0.881038 0.201638 0.202503
C90   C     C_R   0.110158 0.847234 0.070358 0.239412
C91   C     C_R   0.043922 0.788346 0.981902 0.263162
C92   C     C_R   0.959268 0.729315 0.960303 -0.276023
H37   H     H_    0.906967 0.685134 0.893285 0.188209
C93   C     C_R   0.942718 0.722503 0.024370 -0.138289
H38   H     H_    0.878493 0.673554 0.006038 0.192758
C94   C     C_R   0.010402 0.775228 0.111201 0.132133
H39   H     H_    0.401656 0.359370 0.799308 0.155236
C95   C     C_R   0.297709 0.278020 0.809652 -0.154439
H40   H     H_    0.334762 0.251293 0.837398 0.143481
C96   C     C_R   0.212322 0.251824 0.795631 -0.100819
H41   H     H_    0.184404 0.205904 0.814102 0.147486
C97   C     C_R   0.163878 0.286053 0.759338 0.099121
C98   C     C_R   0.202817 0.348428 0.739390 -0.093691
H42   H     H_    0.167618 0.377931 0.714388 0.181656
C99   C     C_R   0.287968 0.373987 0.752904 -0.135258
H43   H     H_    0.317591 0.421655 0.736980 0.141983
C100  C     C_R   0.335525 0.339125 0.788374 -0.123052
C101  C     C_R   0.073417 0.327470 0.812285 -0.239091
H44   H     H_    0.133815 0.389435 0.862485 0.178021
C102  C     C_R   0.994720 0.310266 0.811799 -0.096670
C103  C     C_R   0.915641 0.228830 0.748508 -0.068012
C104  C     C_R   0.916636 0.167955 0.681694 -0.093355
C105  C     C_R   0.997969 0.185050 0.685408 -0.135371
C106  C     C_R   0.076783 0.264568 0.751723 -0.011910
C107  C     C_R   0.802967 0.132618 0.767674 -0.116557
H45   H     H_    0.838973 0.098237 0.775333 0.139026
C108  C     C_R   0.725146 0.105479 0.770487 -0.091721
H46   H     H_    0.701884 0.050988 0.780733 0.169002
C109  C     C_R   0.677206 0.148367 0.759722 -0.134613
H47   H     H_    0.616919 0.127290 0.761845 0.140466
C110  C     C_R   0.706987 0.218349 0.746002 -0.124149
H48   H     H_    0.669839 0.251589 0.737676 0.165308
C111  C     C_R   0.784557 0.245368 0.742707 -0.047336
H49   H     H_    0.805923 0.299318 0.731896 0.169761
C112  C     C_R   0.833656 0.203020 0.753926 0.142738
C113  C     C_2   0.678443 0.661029 0.079044 0.933154
O25   O     O_2   0.606912 0.640581 0.022428 -0.624530
O26   O     O_R   0.746147 0.666466 0.061091 -0.777995
H50   H     H_    0.728012 0.652651 0.999535 0.356799
C114  C     C_2   0.271394 0.668584 0.262150 0.956596
O27   O     O_2   0.335802 0.718607 0.265292 -0.602841
O28   O     O_R   0.206361 0.689780 0.262284 -0.758504
H51   H     H_    0.220293 0.748444 0.265937 0.366021
N1    N     N_R   0.037128 0.292856 0.176275 0.188207
O29   O     O_R   0.006590 0.231617 0.193183 -0.344393
O30   O     O_R   0.047524 0.369424 0.220979 -0.393705
N2    N     N_R   0.652361 0.826073 0.648413 0.201484
O31   O     O_R   0.684800 0.887326 0.632267 -0.458165
O32   O     O_R   0.575218 0.802336 0.641398 -0.416597
N3    N     N_R   0.094816 0.257796 0.486995 0.214433
O33   O     O_R   0.045011 0.260964 0.422519 -0.296008
O34   O     O_R   0.074176 0.259263 0.545806 -0.430086
C115  C     C_2   0.294075 0.057052 0.395886 0.925625
O35   O     O_2   0.327280 0.023682 0.359972 -0.575671
O36   O     O_R   0.231406 0.073773 0.350674 -0.746262
H52   H     H_    0.220071 0.056302 0.289881 0.374777
C116  C     C_2   0.899566 0.632644 0.604471 0.998958
O37   O     O_2   0.844201 0.626152 0.541671 -0.637504
O38   O     O_R   0.989409 0.687083 0.638531 -0.692103
H53   H     H_    0.000594 0.724354 0.611485 0.368355
N4    N     N_R   0.934200 0.834836 0.743958 0.228230
O39   O     O_R   0.937638 0.809637 0.673600 -0.396471
O40   O     O_R   0.008055 0.890496 0.817501 -0.307707
C117  C     C_2   0.950938 0.473583 0.750047 0.900370
O41   O     O_2   0.031456 0.512372 0.793979 -0.563428
O42   O     O_R   0.902798 0.382247 0.698067 -0.828799
H54   H     H_    0.942064 0.356018 0.696199 0.358049
C118  C     C_2   0.705479 0.455363 0.861919 0.935964
O43   O     O_2   0.754551 0.506733 0.939904 -0.615787
O44   O     O_R   0.624259 0.383325 0.830368 -0.826156
H55   H     H_    0.614596 0.379635 0.878429 0.345743
N5    N     N_R   0.119549 0.663831 0.589378 0.219845
O45   O     O_R   0.197915 0.711414 0.658218 -0.375493
O46   O     O_R   0.065564 0.587849 0.573968 -0.376572
N6    N     N_R   0.203171 0.842478 0.463944 0.220487
O47   O     O_R   0.189974 0.886938 0.426556 -0.409177
O48   O     O_R   0.280344 0.849059 0.495452 -0.449263
C119  C     C_2   0.014956 0.606196 0.266059 0.961735
O49   O     O_2   0.086970 0.614732 0.306176 -0.591550
O50   O     O_R   0.937604 0.527517 0.229611 -0.770651
H56   H     H_    0.949887 0.482072 0.239789 0.371604
N7    N     N_R   0.992290 0.893777 0.234159 0.217911
O51   O     O_R   0.052097 0.974630 0.295055 -0.348450
O52   O     O_R   0.930431 0.878524 0.163591 -0.351457
N8    N     N_R   0.193998 0.916262 0.096387 0.231405
O53   O     O_R   0.264708 0.942731 0.166461 -0.320742
O54   O     O_R   0.197941 0.961202 0.057439 -0.296177
N9    N     N_R   0.063340 0.783047 0.914149 0.248247
O55   O     O_R   0.999563 0.745681 0.835265 -0.377383
O56   O     O_R   0.141623 0.799595 0.927149 -0.271646
C120  C     C_2   0.832229 0.087084 0.608493 0.942559
O57   O     O_2   0.769753 0.093078 0.568472 -0.588850
O58   O     O_R   0.823551 0.004569 0.586896 -0.834559
H57   H     H_    0.762397 0.955043 0.537119 0.346332

loop_
_geom_bond_atom_site_label_1
_geom_bond_atom_site_label_2
_geom_bond_distance
_ccdc_geom_bond_type
O23   C76   1.280954 A    
C96   C97   1.403951 A    
C31   C32   1.381804 A    
C37   C38   1.394140 A    
O21   C75   1.277271 A    
C91   C92   1.407414 A    
C103  C112  1.496043 S    
C98   C99   1.398176 A    
C98   H42   1.082935 S    
C7    C8    1.430980 A    
C3    C65   1.423129 S    
C7    C16   1.508829 S    
C118  O43   1.222817 D    
O22   C75   1.277204 A    
C117  O42   1.392806 S    
C104  C105  1.414587 A    
C29   C34   1.403118 A    
C84   C85   1.408308 A    
C95   C96   1.398217 A    
C21   C22   1.400713 A    
C24   H12   1.083477 S    
N9    O55   1.299056 A    
O36   H52   1.013930 S    
Zn1   O7    2.012775 S    
N2    O32   1.301247 A    
C77   C82   1.400703 A    
C12   C13   1.405874 A    
O18   C73   1.271647 A    
C49   C50   1.379982 A    
C19   C20   1.403628 A    
C91   N9    1.439000 S    
C11   C12   1.395141 A    
C18   H7    1.082866 S    
Zn5   O23   2.015188 S    
C108  C109  1.397001 A    
Zn4   O16   2.010320 S    
C15   C16   1.430329 A    
O7    C4    1.274262 A    
N3    O34   1.300409 A    
C23   C28   1.396869 A    
C109  C110  1.396811 A    
C64   C65   1.398688 A    
C80   H34   1.081640 S    
C59   C64   1.413209 A    
C107  H45   1.082441 S    
H30   C66   1.086451 S    
C66   C67   1.377518 A    
C111  C112  1.406581 A    
N8    O53   1.301180 A    
C8    N4    1.441809 S    
C48   C72   1.445094 S    
C36   C37   1.396159 A    
O5    C3    1.275561 A    
C101  H44   1.085684 S    
C117  O41   1.222822 D    
O15   C72   1.280027 A    
Zn3   O15   2.027297 S    
C47   C52   1.395482 A    
C50   H25   1.086566 S    
C79   C80   1.404882 A    
C62   C117  1.466045 S    
C25   C26   1.403467 A    
C82   N5    1.438251 S    
C60   C116  1.470390 S    
C5    H2    1.082626 S    
C38   C39   1.396233 A    
N1    O29   1.301337 A    
C27   C28   1.398484 A    
C65   C66   1.381111 A    
O28   H51   1.013929 S    
C17   C22   1.404405 A    
C32   C33   1.393746 A    
O17   Zn5   2.018065 S    
C89   C90   1.403058 A    
C53   C58   1.406238 A    
O14   C71   1.282450 A    
Zn6   O24   2.032091 S    
O20   Zn6   2.015064 S    
C53   H26   1.078911 S    
C77   C78   1.406051 A    
H1    C10   1.082581 S    
O26   H50   1.013927 S    
C86   C87   1.411678 A    
O1    C1    1.281602 A    
O1    Zn1   2.028341 S    
C9    H3    1.080854 S    
C92   C93   1.395410 A    
C42   C43   1.404847 A    
C69   C87   1.444100 S    
C75   C84   1.432615 S    
C96   H41   1.083222 S    
C36   H16   1.082632 S    
C119  O50   1.397407 S    
O3    Zn1   2.024642 S    
C30   C74   1.437962 S    
N5    O46   1.301695 A    
C62   C63   1.433372 A    
C81   C82   1.401081 A    
C81   H35   1.082275 S    
C12   C70   1.429316 S    
C24   C25   1.406059 A    
C42   H22   1.082485 S    
C85   C94   1.482708 S    
N7    O52   1.301234 A    
C110  C111  1.398245 A    
O44   H55   1.013842 S    
H20   C46   1.082430 S    
C39   H19   1.083467 S    
O11   Zn3   2.010234 S    
C60   C61   1.386007 A    
C97   C98   1.404317 A    
C68   C76   1.456896 S    
C11   H4    1.085544 S    
C4    C51   1.424129 S    
O11   C70   1.284189 A    
O24   C76   1.288653 A    
O50   H56   1.013843 S    
N7    O51   1.300458 A    
C107  C108  1.397914 A    
C21   H9    1.078416 S    
C41   C42   1.396754 A    
N3    O33   1.301335 A    
C6    C7    1.417634 A    
C27   H14   1.082161 S    
N4    O39   1.295397 A    
C116  O37   1.223444 D    
C25   C34   1.482455 S    
C111  H49   1.075581 S    
C47   C48   1.418302 A    
C105  C106  1.408965 A    
C118  O44   1.398299 S    
C35   C36   1.406284 A    
N8    O54   1.301402 A    
C17   C18   1.398158 A    
C61   C62   1.398364 A    
C43   C44   1.404429 A    
C108  H46   1.082462 S    
C20   H8    1.080821 S    
C95   H40   1.082307 S    
C99   C100  1.396785 A    
C119  O49   1.222039 D    
C13   C22   1.486559 S    
C54   C55   1.390734 A    
C59   H31   1.082413 S    
O18   Zn6   2.030084 S    
Zn2   O8    2.024642 S    
O12   Zn4   2.027041 S    
C57   C58   1.425529 A    
C55   C56   1.394657 A    
C115  O35   1.223383 D    
O58   H57   1.013906 S    
C120  O58   1.393334 S    
C95   C100  1.398112 A    
O9    C69   1.276831 A    
C101  C102  1.391535 A    
C31   C40   1.485441 S    
C44   H23   1.082861 S    
C56   C57   1.410905 A    
C23   C24   1.397423 A    
C99   H43   1.081903 S    
C89   H36   1.083529 S    
C6    N2    1.429465 S    
C67   C118  1.485127 S    
Zn6   O22   2.018151 S    
C107  C112  1.406663 A    
C71   C105  1.438180 S    
C102  C103  1.417062 A    
C59   C60   1.389693 A    
C53   C54   1.393359 A    
C103  C104  1.401849 A    
C5    C10   1.387850 A    
C104  C120  1.487254 S    
N6    O48   1.301689 A    
C23   H11   1.082337 S    
C92   H37   1.081652 S    
O3    C2    1.273661 A    
C78   N6    1.441632 S    
C32   H15   1.085397 S    
C9    C10   1.389485 A    
O16   C72   1.287516 A    
H39   C100  1.082522 S    
O19   Zn5   2.032009 S    
C101  C106  1.377537 A    
C45   C46   1.396428 A    
N6    O47   1.299445 A    
C51   C52   1.405137 A    
O20   C74   1.278781 A    
O10   C69   1.289711 A    
C43   C52   1.486617 S    
C73   C102  1.436878 S    
C80   C81   1.392395 A    
C86   N7    1.439635 S    
C30   C31   1.408399 A    
C14   H5    1.085445 S    
C57   C115  1.492151 S    
C2    C15   1.444091 S    
C19   C113  1.483307 S    
C89   C94   1.400648 A    
Zn2   O6    2.028341 S    
O2    Zn2   2.019370 S    
C44   C45   1.400279 A    
C114  O27   1.222976 D    
Zn5   O21   2.030211 S    
O6    C3    1.279565 A    
O19   C74   1.278804 A    
O4    Zn2   2.012775 S    
C41   C46   1.396728 A    
C77   H33   1.082544 S    
C14   C15   1.397715 A    
C29   C30   1.411761 A    
O13   C71   1.280011 A    
N4    O40   1.301810 A    
C63   C64   1.410351 A    
C109  H47   1.082432 S    
C63   C68   1.440519 A    
O9    Zn3   2.028783 S    
C17   H6    1.082626 S    
Zn3   O13   2.019895 S    
O2    C1    1.282707 A    
C33   C34   1.409008 A    
C116  O38   1.396659 S    
C41   H21   1.081335 S    
C20   C21   1.397844 A    
C97   C106  1.480418 S    
C78   C79   1.422277 A    
C113  O25   1.223321 D    
O10   Zn4   2.019768 S    
C45   H24   1.080205 S    
C54   H27   1.082404 S    
O4    C2    1.297270 A    
C35   C40   1.416974 A    
C26   H13   1.082838 S    
C26   C27   1.397747 A    
C55   H28   1.082589 S    
C115  O36   1.397477 S    
C18   C19   1.406165 A    
N9    O56   1.301283 A    
C83   C119  1.492300 S    
C83   C84   1.401417 A    
C38   H18   1.082231 S    
C79   C88   1.489092 S    
C61   H32   1.085640 S    
C93   H38   1.081609 S    
Zn4   O14   2.028866 S    
C11   C16   1.386640 A    
C114  O28   1.396426 S    
C90   N8    1.436640 S    
C35   N1    1.437385 S    
N5    O45   1.301472 A    
C37   H17   1.082232 S    
C1    C33   1.436487 S    
Zn1   O5    2.019369 S    
O8    C4    1.283268 A    
O38   H53   1.011181 S    
C90   C91   1.416499 A    
C8    C9    1.407679 A    
C5    C6    1.401455 A    
C48   C49   1.420297 A    
C49   C58   1.489507 S    
H10   C28   1.082694 S    
C13   C14   1.381424 A    
O17   C73   1.288037 A    
C29   C114  1.493217 S    
C85   C86   1.390970 A    
C50   C51   1.383160 A    
C110  H48   1.082599 S    
C87   C88   1.420406 A    
N2    O31   1.300006 A    
C39   C40   1.405853 A    
C83   C88   1.392778 A    
C67   C68   1.424586 A    
O42   H54   1.011611 S    
C56   H29   1.083147 S    
N1    O30   1.300741 A    
O12   C70   1.275507 A    
C120  O57   1.223157 D    
C93   C94   1.398269 A    
C47   N3    1.440622 S    
C113  O26   1.398940 S    
