data_mof_unit_1769.cif
_audit_creation_date              2012-12-11T15:34:24-0500
_audit_creation_method            fapswitch 2.2
_symmetry_space_group_name_H-M    P1
_symmetry_Int_Tables_number       1
_space_group_crystal_system       triclinic
_cell_length_a                    15.06884
_cell_length_b                    15.073521
_cell_length_c                    34.91845
_cell_angle_alpha                 90.498287
_cell_angle_beta                  90.044428
_cell_angle_gamma                 60.031705
_cell_volume                      6870.66339037

loop_
_atom_site_label
_atom_site_type_symbol
_atom_type_description
_atom_site_fract_x
_atom_site_fract_y
_atom_site_fract_z
_atom_type_partial_charge
C1    C     C_R   0.302410 0.608272 0.555694 0.552233
C2    C     C_R   0.659699 0.663833 0.668068 0.032892
C3    C     C_R   0.288798 0.619664 0.263228 -0.117361
C4    C     C_R   0.214653 0.617139 0.286932 0.030321
C5    C     C_R   0.132306 0.612515 0.270321 -0.110171
C6    C     C_R   0.121762 0.615055 0.230684 -0.093705
C7    C     C_R   0.193503 0.621919 0.207169 0.030967
C8    C     C_R   0.201070 0.562826 0.353189 -0.125303
C9    C     C_R   0.213644 0.565298 0.392997 0.046198
C10   C     C_R   0.261184 0.696291 0.383699 -0.147021
C11   C     C_R   0.246620 0.694226 0.344578 -0.129367
C12   C     C_R   0.220883 0.624509 0.328835 0.001825
C13   C     C_R   0.567522 0.728370 0.649128 -0.123351
C14   C     C_R   0.250625 0.628414 0.408141 0.008123
C15   C     C_R   0.735941 0.025450 0.943311 0.543012
C16   C     C_R   0.746037 0.722941 0.945012 0.544816
C17   C     C_R   0.038063 0.734002 0.948307 0.544618
C18   C     C_R   0.723021 0.038780 0.052825 0.543723
C19   C     C_R   0.733420 0.734353 0.054678 0.543511
C20   C     C_R   0.027958 0.744358 0.057775 0.547049
C21   C     C_R   0.554037 0.708624 0.611123 -0.132301
C22   C     C_R   0.676453 0.677170 0.787400 0.343803
C23   C     C_R   0.667783 0.672074 0.709859 0.342926
C24   C     C_R   0.765613 0.601155 0.848828 -0.116450
C25   C     C_R   0.781115 0.611121 0.887566 -0.127804
C26   C     C_R   0.628654 0.778947 0.888849 -0.131861
C27   C     C_R   0.612956 0.768809 0.850084 -0.124445
C28   C     C_R   0.683670 0.681570 0.829382 0.031582
C29   C     C_R   0.610847 0.588536 0.555152 0.547034
C30   C     C_R   0.715227 0.701918 0.907531 0.020927
C31   C     C_R   0.723148 0.072337 0.905366 0.021184
C32   C     C_R   0.633265 0.101056 0.884442 -0.123213
C33   C     C_R   0.629773 0.121030 0.845474 -0.119080
C34   C     C_R   0.715623 0.113583 0.826815 0.029792
C35   C     C_R   0.802482 0.093319 0.848191 -0.119821
C36   C     C_R   0.806355 0.072600 0.887240 -0.125259
C37   C     C_R   0.747506 0.183412 0.767068 -0.113201
C38   C     C_R   0.741275 0.194410 0.727365 -0.110828
C39   C     C_R   0.704531 0.141855 0.704834 0.026287
C40   C     C_R   0.590475 0.300206 0.553481 0.541759
C41   C     C_R   0.677977 0.075126 0.722592 -0.113958
C42   C     C_R   0.683401 0.064861 0.762246 -0.112312
C43   C     C_R   0.716136 0.120555 0.784810 0.024261
C44   C     C_R   0.592601 0.179444 0.647571 -0.117710
C45   C     C_R   0.565123 0.217022 0.610560 -0.124458
C46   C     C_R   0.724037 0.219330 0.604040 -0.123772
C47   C     C_R   0.751675 0.181362 0.641048 -0.119251
C48   C     C_R   0.684542 0.164537 0.663624 0.031922
C49   C     C_R   0.628806 0.240982 0.588992 0.021698
C50   C     C_R   0.090759 0.696844 0.911138 0.007327
C51   C     C_R   0.299728 0.610515 0.446090 0.577605
C52   C     C_R   0.124874 0.754688 0.891185 -0.130391
C53   C     C_R   0.149012 0.736187 0.852389 -0.136282
C54   C     C_R   0.139880 0.659456 0.832858 0.013086
C55   C     C_R   0.113141 0.595889 0.853365 -0.002327
C56   C     C_R   0.089650 0.614460 0.892377 -0.129671
C57   C     C_R   0.221490 0.563376 0.772382 -0.090721
C58   C     C_R   0.230112 0.559673 0.732574 -0.103136
C59   C     C_R   0.166759 0.646539 0.710669 0.031342
C60   C     C_R   0.093686 0.736675 0.729227 -0.108853
C61   C     C_R   0.085121 0.740283 0.769015 -0.107295
C62   C     C_R   0.607693 0.589599 0.445178 0.542820
C63   C     C_R   0.149282 0.653853 0.790803 0.031873
C64   C     C_R   0.187099 0.725970 0.651392 -0.117203
C65   C     C_R   0.218916 0.717347 0.613397 -0.123461
C66   C     C_R   0.234740 0.549477 0.608982 -0.124264
C67   C     C_R   0.203055 0.558108 0.646994 -0.119235
C68   C     C_R   0.182675 0.644771 0.668912 0.032013
C69   C     C_R   0.246954 0.627286 0.592319 0.023619
C70   C     C_R   0.691201 0.717805 0.090256 0.019573
C71   C     C_R   0.604224 0.799083 0.107743 -0.127555
C72   C     C_R   0.576476 0.789335 0.144939 -0.122370
C73   C     C_R   0.587477 0.303555 0.443582 0.539108
C74   C     C_R   0.635068 0.698153 0.165203 0.029860
C75   C     C_R   0.717384 0.614556 0.146622 -0.116926
C76   C     C_R   0.745084 0.624233 0.109509 -0.123110
C77   C     C_R   0.631122 0.602535 0.222822 -0.118698
C78   C     C_R   0.630809 0.592717 0.262464 -0.118680
C79   C     C_R   0.617177 0.673519 0.286653 0.026231
C80   C     C_R   0.599348 0.765912 0.270624 -0.113726
C81   C     C_R   0.600427 0.775527 0.230946 -0.111643
C82   C     C_R   0.618475 0.693133 0.206683 0.028534
C83   C     C_R   0.547098 0.733849 0.352518 -0.122808
C84   C     C_R   0.632549 0.624058 0.591498 0.022807
C85   C     C_R   0.546562 0.714753 0.391535 -0.126785
C86   C     C_R   0.703177 0.551889 0.383467 -0.118973
C87   C     C_R   0.703105 0.570645 0.344469 -0.117764
C88   C     C_R   0.623272 0.660115 0.328507 0.028652
C89   C     C_R   0.622628 0.621861 0.407111 0.023013
C90   C     C_R   0.698917 0.102520 0.087675 0.020659
C91   C     C_R   0.772487 0.123162 0.103563 -0.127131
C92   C     C_R   0.759148 0.164077 0.140435 -0.123276
C93   C     C_R   0.672169 0.184856 0.161977 0.029080
C94   C     C_R   0.594517 0.172753 0.144814 -0.116619
C95   C     C_R   0.727684 0.565204 0.609399 -0.128564
C96   C     C_R   0.607694 0.132074 0.107917 -0.123965
C97   C     C_R   0.575970 0.274652 0.221542 -0.117930
C98   C     C_R   0.569815 0.281833 0.261369 -0.116403
C99   C     C_R   0.656101 0.219629 0.283748 0.025885
C100  C     C_R   0.749624 0.153346 0.265758 -0.115109
C101  C     C_R   0.755731 0.145880 0.225963 -0.112540
C102  C     C_R   0.668501 0.205040 0.203521 0.026487
C103  C     C_R   0.721209 0.231179 0.348215 -0.121610
C104  C     C_R   0.706396 0.247894 0.387598 -0.124857
C105  C     C_R   0.549240 0.241265 0.382998 -0.119508
C106  C     C_R   0.741132 0.584905 0.647345 -0.121561
C107  C     C_R   0.563881 0.225069 0.343636 -0.118695
C108  C     C_R   0.647899 0.223743 0.325798 0.027891
C109  C     C_R   0.618010 0.257358 0.405090 0.019107
C110  C     C_R   0.088546 0.704221 0.092912 0.007256
C111  C     C_R   0.112478 0.607073 0.106311 -0.130115
C112  C     C_R   0.154085 0.575182 0.142715 -0.005293
C113  C     C_R   0.172296 0.641058 0.166075 0.012164
C114  C     C_R   0.156340 0.734235 0.151398 -0.135458
C115  C     C_R   0.114705 0.765712 0.115084 -0.131800
C116  C     C_R   0.277858 0.622778 0.223564 -0.121105
Cr1   Cr    Cr6+3 0.421670 0.426920 0.499620 1.053028
Cr2   Cr    Cr6+3 0.427030 0.651190 0.500980 1.016450
Cr3   Cr    Cr6+3 0.651280 0.421870 0.499380 1.015469
Cr4   Cr    Cr6+3 0.910810 0.908010 0.001130 1.013211
Cr5   Cr    Cr6+3 0.682800 0.909890 0.998370 1.014283
Cr6   Cr    Cr6+3 0.908370 0.682300 0.002180 1.015841
H1    H     H_    0.790033 0.500239 0.594838 0.132430
H2    H     H_    0.876726 0.050623 0.902595 0.127844
H3    H     H_    0.823855 0.168681 0.652514 0.104952
H4    H     H_    0.760850 0.247549 0.714516 0.114144
H5    H     H_    0.772997 0.226939 0.784024 0.113904
H6    H     H_    0.561207 0.138738 0.829560 0.111363
H7    H     H_    0.651127 0.032399 0.705871 0.114048
H8    H     H_    0.661103 0.014044 0.775391 0.119918
H9    H     H_    0.538808 0.168107 0.664400 0.106449
H10   H     H_    0.491266 0.232875 0.599766 0.129107
H11   H     H_    0.869393 0.087592 0.834275 0.106299
H12   H     H_    0.480010 0.755766 0.597972 0.129567
H13   H     H_    0.775149 0.236228 0.587949 0.126958
H14   H     H_    0.126728 0.818470 0.904892 0.131775
H15   H     H_    0.063193 0.569160 0.907323 0.131973
H16   H     H_    0.198312 0.495322 0.659718 0.110447
H17   H     H_    0.288514 0.489877 0.719004 0.108639
H18   H     H_    0.272178 0.496366 0.788858 0.117866
H19   H     H_    0.170301 0.785058 0.837090 0.116348
H20   H     H_    0.043611 0.804367 0.712969 0.109441
H21   H     H_    0.028331 0.810519 0.782879 0.114571
H22   H     H_    0.172228 0.793470 0.667719 0.107057
H23   H     H_    0.848284 0.550163 0.901200 0.135740
H24   H     H_    0.227304 0.778711 0.601324 0.128813
H25   H     H_    0.255057 0.479410 0.593386 0.128437
H26   H     H_    0.560822 0.872020 0.093543 0.127838
H27   H     H_    0.812192 0.560051 0.096745 0.132630
H28   H     H_    0.763712 0.513661 0.326495 0.111031
H29   H     H_    0.642262 0.521545 0.274292 0.111087
H30   H     H_    0.643469 0.538490 0.204796 0.106812
H31   H     H_    0.511619 0.854381 0.158400 0.105713
H32   H     H_    0.588670 0.829117 0.288807 0.109358
H33   H     H_    0.813778 0.534943 0.660939 0.135466
H34   H     H_    0.591979 0.845731 0.219361 0.108229
H35   H     H_    0.484955 0.803535 0.340755 0.105540
H36   H     H_    0.483366 0.770064 0.409006 0.124506
H37   H     H_    0.764583 0.543576 0.161586 0.109692
H38   H     H_    0.762828 0.479577 0.394521 0.133190
H39   H     H_    0.843000 0.102440 0.088410 0.125461
H40   H     H_    0.549359 0.117634 0.096326 0.131717
H41   H     H_    0.507654 0.217100 0.326900 0.116103
H42   H     H_    0.497416 0.335371 0.274731 0.116604
H43   H     H_    0.508012 0.321900 0.204850 0.115931
H44   H     H_    0.503730 0.790593 0.664207 0.132629
H45   H     H_    0.819159 0.174667 0.152836 0.104312
H46   H     H_    0.816969 0.104583 0.282499 0.107561
H47   H     H_    0.827581 0.090209 0.212842 0.106867
H48   H     H_    0.786791 0.230034 0.335007 0.105110
H49   H     H_    0.760733 0.260030 0.403851 0.127684
H50   H     H_    0.526899 0.187618 0.160856 0.116548
H51   H     H_    0.480546 0.247827 0.395616 0.152067
H52   H     H_    0.094993 0.557584 0.089090 0.130295
H53   H     H_    0.097805 0.840538 0.105316 0.132157
H54   H     H_    0.258678 0.745213 0.326424 0.114307
H55   H     H_    0.820527 0.532180 0.833801 0.147297
H56   H     H_    0.354028 0.621405 0.275438 0.111453
H57   H     H_    0.333548 0.628458 0.205710 0.111533
H58   H     H_    0.073695 0.611640 0.287972 0.109910
H59   H     H_    0.055022 0.616479 0.218399 0.119086
H60   H     H_    0.177486 0.511458 0.341061 0.141287
H61   H     H_    0.169918 0.785717 0.169052 0.114276
H62   H     H_    0.288052 0.746439 0.394325 0.138213
H63   H     H_    0.576282 0.849683 0.903535 0.128616
H64   H     H_    0.548378 0.831595 0.835980 0.132054
H65   H     H_    0.567629 0.102221 0.897604 0.130732
N1    N     N_R   0.753960 0.601059 0.766918 -0.225455
N2    N     N_R   0.749557 0.598384 0.728946 -0.231402
N3    N     N_R   0.590349 0.748538 0.730313 -0.239233
N4    N     N_R   0.594869 0.751356 0.768335 -0.239518
O1    O     O_R   0.502070 0.323090 0.541280 -0.519968
O2    O     O_R   0.520720 0.641670 0.461580 -0.504994
O3    O     O_R   0.674120 0.502090 0.457500 -0.517436
O4    O     O_R   0.640110 0.338380 0.459630 -0.505306
O5    O     O_3   0.499990 0.499990 0.499990 -0.247262
O6    O     O_R   0.017640 0.822070 0.960410 -0.519006
O7    O     O_R   0.822000 0.989470 0.960340 -0.502753
O8    O     O_R   0.666920 0.007430 0.955290 -0.519396
O9    O     O_R   0.694410 0.812480 0.959650 -0.502108
O10   O     O_R   0.831550 0.656950 0.958960 -0.520644
O11   O     O_R   0.998590 0.685540 0.963930 -0.503357
O12   O     O_R   0.338340 0.520690 0.539540 -0.494866
O13   O     O_R   0.008220 0.831200 0.045060 -0.518081
O14   O     O_R   0.813270 0.997930 0.038810 -0.502243
O15   O     O_R   0.657500 0.016560 0.039940 -0.519822
O16   O     O_R   0.685680 0.820940 0.038120 -0.502221
O17   O     O_R   0.822130 0.666070 0.043610 -0.517591
O18   O     O_R   0.989860 0.694000 0.042400 -0.501889
O19   O     O_3   0.833990 0.833400 0.000560 -0.236648
O20   O     O_R   0.324760 0.674070 0.543580 -0.519850
O21   O     O_R   0.522400 0.640310 0.540110 -0.502941
O22   O     O_R   0.675940 0.500630 0.542210 -0.517107
O23   O     O_R   0.641790 0.337020 0.538150 -0.502281
O24   O     O_R   0.500260 0.324550 0.456580 -0.510211
O25   O     O_R   0.336660 0.522040 0.461020 -0.460938
O26   O     O_R   0.322940 0.675540 0.458880 -0.526677
C117  C     C_1   0.099993 0.517637 0.834446 0.183889
N5    N     N_1   0.089297 0.455035 0.819299 -0.303355
C118  C     C_1   0.175071 0.475994 0.155895 0.178574
N6    N     N_1   0.191933 0.396526 0.166469 -0.314783
C119  C     C_2   0.186673 0.502568 0.417783 0.580296
O27   O     O_2   0.193616 0.423196 0.405359 -0.537769
O28   O     O_R   0.150017 0.535854 0.454977 -0.689192
H66   H     H_    0.133771 0.486880 0.468891 0.333234

loop_
_geom_bond_atom_site_label_1
_geom_bond_atom_site_label_2
_ccdc_geom_bond_type
C51   O25   A    
C58   H17   S    
C91   H39   S    
C55   C56   A    
C106  H33   S    
N3    N4    A    
C83   C88   A    
C1    O20   A    
C111  H52   S    
C10   H62   S    
C41   C42   A    
C35   C36   A    
C87   C88   A    
O28   H66   S    
C35   H11   S    
C97   C98   A    
C117  N5    T    
C39   C41   A    
C77   C78   A    
C44   C45   A    
C44   H9    S    
C99   C108  S    
C105  C107  A    
C46   C49   A    
C11   H54   S    
C101  C102  A    
C81   H34   S    
C45   H10   S    
C18   O14   A    
Cr4   O14   S    
C64   C68   A    
Cr6   O10   S    
C92   C93   A    
C95   C106  A    
C3    H56   S    
Cr3   O5    S    
C3    C116  A    
C31   C36   A    
C14   C51   S    
C5    C6    A    
C26   H63   S    
C65   C69   A    
C66   C69   A    
C54   C63   S    
C16   C30   S    
C40   C49   S    
C62   C89   S    
Cr2   O21   S    
C34   C35   A    
Cr1   O24   S    
Cr2   O2    S    
C110  C111  A    
C118  N6    T    
C115  H53   S    
C103  C104  A    
C60   H20   S    
C46   H13   S    
C46   C47   A    
C29   O22   A    
C9    C119  S    
C61   H21   S    
Cr5   O8    S    
C111  C112  A    
C8    C9    A    
C67   H16   S    
C87   H28   S    
C83   H35   S    
C103  H48   S    
C50   C52   A    
C107  C108  A    
Cr6   O19   S    
C17   O6    A    
C103  C108  A    
C4    C12   S    
Cr2   O5    S    
C53   H19   S    
C97   C102  A    
C16   O9    A    
C94   C96   A    
C94   H50   S    
C114  H61   S    
C66   C67   A    
C77   C82   A    
C59   C60   A    
C105  H51   S    
C19   O16   A    
C119  O27   D    
Cr5   O15   S    
C74   C82   S    
C77   H30   S    
C112  C113  A    
C38   H4    S    
C78   H29   S    
C57   C63   A    
C55   C117  S    
C57   C58   A    
Cr4   O19   S    
C47   H3    S    
Cr6   O18   S    
C74   C75   A    
C6    H59   S    
C67   C68   A    
C18   C90   S    
Cr6   O17   S    
C24   C25   A    
C20   O13   A    
C29   C84   S    
C72   C74   A    
C10   C14   A    
C91   C92   A    
C15   O7    A    
C85   C89   A    
C78   C79   A    
C4    C5    A    
C64   H22   S    
C58   C59   A    
C53   C54   A    
C15   C31   S    
C2    C106  A    
C33   H6    S    
C81   C82   A    
C57   H18   S    
C60   C61   A    
C27   H64   S    
C7    C116  A    
C37   C43   A    
Cr1   O25   S    
C119  O28   S    
C75   C76   A    
C5    H58   S    
C37   C38   A    
Cr1   O1    S    
C59   C68   S    
C15   O8    A    
Cr4   O7    S    
C47   C48   A    
C40   O1    A    
C21   C84   A    
C45   C49   A    
C8    C12   A    
C2    C23   S    
Cr2   O26   S    
C61   C63   A    
C33   C34   A    
C26   C27   A    
C9    C14   A    
C13   C21   A    
C42   H8    S    
C93   C94   A    
Cr5   O19   S    
C90   C96   A    
C2    C13   A    
C66   H25   S    
C70   C71   A    
C79   C88   S    
C51   O26   A    
C104  H49   S    
C20   C110  S    
C83   C85   A    
Cr5   O9    S    
C107  H41   S    
Cr3   O22   S    
C73   O4    A    
C70   C76   A    
C19   O17   A    
C52   H14   S    
Cr4   O6    S    
C42   C43   A    
Cr5   O16   S    
C3    C4    A    
C1    O12   A    
C21   H12   S    
C23   N2    A    
C75   H37   S    
C52   C53   A    
C29   O21   A    
C113  C114  A    
C8    H60   S    
C25   C30   A    
C105  C109  A    
C54   C55   A    
C25   H23   S    
C72   H31   S    
C32   H65   S    
C36   H2    S    
C86   C87   A    
C31   C32   A    
C73   O24   A    
C34   C43   S    
C24   C28   A    
C80   C81   A    
C86   C89   A    
C93   C102  S    
C98   H42   S    
C11   C12   A    
C114  C115  A    
C6    C7    A    
C17   C50   S    
C112  C118  S    
C99   C100  A    
C100  H46   S    
C18   O15   A    
Cr3   O3    S    
C64   C65   A    
Cr6   O11   S    
Cr4   O13   S    
C65   H24   S    
C71   C72   A    
Cr2   O20   S    
Cr1   O5    S    
C50   C56   A    
C32   C33   A    
C41   H7    S    
C56   H15   S    
C92   H45   S    
C7    C113  S    
C90   C91   A    
C38   C39   A    
C13   H44   S    
C76   H27   S    
C97   H43   S    
C80   H32   S    
C100  C101  A    
C96   H40   S    
C71   H26   S    
Cr3   O4    S    
C73   C109  S    
C101  H47   S    
C22   N1    A    
C17   O11   A    
C1    C69   S    
C10   C11   A    
C79   C80   A    
C44   C48   A    
Cr3   O23   S    
C20   O18   A    
C98   C99   A    
C85   H36   S    
C116  H57   S    
C40   O23   A    
C24   H55   S    
C62   O3    A    
C104  C109  A    
N1    N2    A    
C19   C70   S    
C22   C28   S    
C62   O2    A    
C37   H5    S    
C22   N4    A    
Cr1   O12   S    
C86   H38   S    
C110  C115  A    
C84   C95   A    
C23   N3    A    
C16   O10   A    
C95   H1    S    
C39   C48   S    
C27   C28   A    
C26   C30   A    
