data_mof_unit_4311.cif
_audit_creation_date              2012-12-10T17:45:35-0500
_audit_creation_method            fapswitch 2.2
_symmetry_space_group_name_H-M    P1
_symmetry_Int_Tables_number       1
_space_group_crystal_system       triclinic
_cell_length_a                    11.525855
_cell_length_b                    10.606548
_cell_length_c                    9.964043
_cell_angle_alpha                 90.243889
_cell_angle_beta                  90.183792
_cell_angle_gamma                 91.801135
_cell_volume                      1217.47996554

loop_
_atom_site_label
_atom_site_type_symbol
_atom_type_description
_atom_site_fract_x
_atom_site_fract_y
_atom_site_fract_z
_atom_type_partial_charge
C1    C     C_R   0.498062 0.260744 0.499613 0.849711
C2    C     C_R   0.492685 0.871300 0.500870 -0.088278
C3    C     C_R   0.349732 0.332699 0.138353 -0.134995
C4    C     C_R   0.282181 0.499483 0.499837 0.856541
C5    C     C_R   0.275921 0.249796 0.067861 -0.193067
C6    C     C_R   0.275733 0.249949 0.928930 -0.191032
C7    C     C_R   0.349455 0.332915 0.859686 -0.135849
C8    C     C_R   0.426313 0.417294 0.927349 0.139189
C9    C     C_R   0.426335 0.417333 0.071547 0.162133
C10   C     C_R   0.569689 0.579814 0.073060 -0.148925
C11   C     C_R   0.569906 0.580704 0.930449 0.009999
C12   C     C_R   0.185558 0.054774 0.603387 -0.149572
C13   C     C_R   0.499038 0.739170 0.500276 0.873036
C14   C     C_R   0.717820 0.500470 0.500197 0.908536
C15   C     C_1   0.161652 0.499745 0.499724 -0.192767
C16   C     C_1   0.059396 0.500133 0.500141 -0.010311
C17   C     C_1   0.940656 0.500495 0.500596 -0.017372
C18   C     C_1   0.838380 0.500577 0.500605 -0.196752
C19   C     C_R   0.285031 0.123841 0.565495 -0.203281
C20   C     C_R   0.646733 0.674477 0.864199 0.164771
C21   C     C_R   0.609495 0.797883 0.844772 -0.119455
C22   C     C_R   0.684119 0.888912 0.787260 -0.136152
C23   C     C_R   0.187526 0.923795 0.610521 -0.132697
C24   C     C_R   0.796930 0.857957 0.751459 -0.137432
C25   C     C_R   0.835821 0.736477 0.775057 -0.155388
C26   C     C_R   0.761481 0.645343 0.832954 -0.112931
C27   C     C_R   0.288569 0.861458 0.578113 -0.175767
C28   C     C_R   0.390026 0.930237 0.539359 0.086006
C29   C     C_R   0.388796 0.062167 0.535406 0.095316
C30   C     C_R   0.491546 0.128147 0.498160 -0.085238
C31   C     C_R   0.591103 0.067569 0.458664 -0.215319
C32   C     C_R   0.591376 0.938596 0.459050 -0.212840
H1    H     H_    0.668837 0.120481 0.428985 0.146926
H2    H     H_    0.343745 0.328287 0.244829 0.199958
H3    H     H_    0.218000 0.185583 0.121542 0.153854
H4    H     H_    0.522380 0.822983 0.872561 0.133243
H5    H     H_    0.654409 0.983353 0.770269 0.148629
H6    H     H_    0.854492 0.928342 0.706506 0.126358
H7    H     H_    0.923651 0.713022 0.748850 0.135665
H8    H     H_    0.792839 0.551881 0.852126 0.131214
H9    H     H_    0.217582 0.185933 0.874353 0.156558
H10   H     H_    0.343297 0.329188 0.753476 0.200303
H11   H     H_    0.279478 0.225076 0.557881 0.113321
H12   H     H_    0.106650 0.102972 0.626676 0.131813
H13   H     H_    0.110212 0.870260 0.639714 0.129949
H14   H     H_    0.286127 0.759669 0.582600 0.140741
H15   H     H_    0.669176 0.890972 0.429173 0.146393
H16   H     H_    0.626226 0.645067 0.128320 0.154009
N1    N     N_R   0.498930 0.498800 0.142780 -0.123226
N2    N     N_R   0.498900 0.498720 0.857170 -0.136614
O1    O     O_R   0.500000 0.316780 0.614690 -0.634801
O2    O     O_R   0.499990 0.316750 0.385360 -0.630651
O3    O     O_R   0.334450 0.500030 0.614670 -0.638830
O4    O     O_R   0.334440 0.500000 0.385330 -0.623320
O5    O     O_R   0.500010 0.683250 0.614640 -0.611125
O6    O     O_R   0.500000 0.683220 0.385310 -0.609835
O7    O     O_R   0.665560 0.500000 0.614670 -0.606416
O8    O     O_R   0.665550 0.499970 0.385330 -0.608946
Zn1   Zn    Zn3+2 0.500010 0.500020 0.653130 0.935388
Zn2   Zn    Zn3+2 0.499990 0.499980 0.346870 0.939628

loop_
_geom_bond_atom_site_label_1
_geom_bond_atom_site_label_2
_ccdc_geom_bond_type
C24   H6    S    
C31   H1    S    
C6    C7    A    
C3    C9    A    
C23   C27   A    
C4    O3    A    
C14   C18   S    
C31   C32   A    
C3    C5    A    
C13   O6    A    
C4    C15   S    
C22   H5    S    
C17   C18   T    
O3    Zn1   S    
C7    C8    A    
C12   H12   S    
C11   N2    A    
O4    Zn2   S    
C21   C22   A    
C24   C25   A    
C5    C6    A    
C1    O1    A    
C12   C23   A    
C26   H8    S    
C29   C30   A    
N1    Zn2   S    
C20   C26   A    
C23   H13   S    
N2    Zn1   S    
C5    H3    S    
C12   C19   A    
C2    C13   S    
C1    C30   S    
C32   H15   S    
C19   H11   S    
O5    Zn1   S    
C10   H16   S    
C30   C31   A    
C14   O8    A    
C1    O2    A    
C22   C24   A    
C11   C20   S    
O7    Zn1   S    
O1    Zn1   S    
C10   C11   A    
O8    Zn2   S    
C15   C16   T    
C19   C29   A    
C8    N2    A    
C9    N1    A    
C20   C21   A    
C27   H14   S    
C2    C32   A    
C7    H10   S    
C27   C28   A    
C21   H4    S    
C14   O7    A    
C28   C29   A    
C2    C28   A    
O2    Zn2   S    
C3    H2    S    
C4    O4    A    
C25   C26   A    
C10   N1    A    
C25   H7    S    
O6    Zn2   S    
C16   C17   S    
C8    C9    A    
C13   O5    A    
C6    H9    S    
