data_mof_unit_87.cif
_audit_creation_date              2012-12-10T17:35:04-0500
_audit_creation_method            fapswitch 2.2
_symmetry_space_group_name_H-M    P1
_symmetry_Int_Tables_number       1
_space_group_crystal_system       triclinic
_cell_length_a                    12.171994
_cell_length_b                    12.834523
_cell_length_c                    15.738039
_cell_angle_alpha                 93.712798
_cell_angle_beta                  87.030841
_cell_angle_gamma                 92.471954
_cell_volume                      2448.21751972

loop_
_atom_site_label
_atom_site_type_symbol
_atom_type_description
_atom_site_fract_x
_atom_site_fract_y
_atom_site_fract_z
_atom_type_partial_charge
C1    C     C_R   0.520882 0.698165 0.487331 0.899020
C2    C     C_R   0.533211 0.806942 0.464116 -0.125734
C3    C     C_R   0.645915 0.966184 0.463231 -0.309620
C4    C     C_R   0.500784 0.501248 0.661282 0.923758
C5    C     C_R   0.638601 0.858124 0.455140 -0.011193
C6    C     C_R   0.437392 0.864833 0.461026 -0.018333
C7    C     C_R   0.445925 0.971902 0.486435 0.052876
C8    C     C_R   0.551570 0.022409 0.481868 0.153927
C9    C     C_R   0.561948 0.129755 0.492200 -0.263717
C10   C     C_R   0.365879 0.139538 0.521563 -0.229074
C11   C     C_R   0.354183 0.031385 0.514950 -0.009846
C12   C     C_3   0.404421 0.537735 0.053548 -0.094285
C13   C     C_R   0.955636 0.432929 0.401638 -0.311838
C14   C     C_R   0.841250 0.426710 0.415392 0.240701
C15   C     C_R   0.857222 0.534377 0.543122 0.044302
C16   C     C_R   0.479319 0.299967 0.503197 0.876117
C17   C     C_R   0.976001 0.539860 0.530760 -0.080100
C18   C     C_R   0.024884 0.476047 0.464078 0.062785
C19   C     C_R   0.140878 0.458282 0.462062 0.136846
C20   C     C_R   0.162322 0.588156 0.576667 0.090102
C21   C     C_R   0.047347 0.606430 0.581602 -0.013313
C22   C     C_R   0.499868 0.500317 0.338649 0.889810
C23   C     C_3   0.523526 0.515914 0.083566 0.221760
C24   C     C_3   0.412495 0.553569 0.957248 -0.477612
C25   C     C_3   0.620920 0.576733 0.948309 -0.267558
C26   C     C_3   0.612462 0.603283 0.049580 0.169229
C27   C     C_1   0.502894 0.506793 0.250216 -0.240417
C28   C     C_3   0.518554 0.505477 0.916396 0.149829
C29   C     C_3   0.330791 0.618209 0.105861 -0.415203
C30   C     C_3   0.214092 0.618096 0.072447 -0.358546
C31   C     C_3   0.140577 0.690638 0.128274 -0.891664
C32   C     C_3   0.643367 0.336995 0.081879 -0.429991
C33   C     C_3   0.759543 0.328577 0.036440 -0.299728
C34   C     C_3   0.548630 0.398895 0.043541 -0.170486
C35   C     C_3   0.852628 0.325133 0.097579 -0.926527
C36   C     C_2   0.250419 0.983770 0.548435 0.371238
C37   C     C_2   0.742465 0.804283 0.432750 0.456178
C38   C     C_3   0.333475 0.814187 0.421834 -0.372416
C39   C     C_3   0.288418 0.875780 0.351244 -0.357529
C40   C     C_3   0.169005 0.841990 0.335751 -0.865238
C41   C     C_3   0.191243 0.357863 0.422003 -0.341356
C42   C     C_3   0.130353 0.279287 0.361334 -0.460813
C43   C     C_3   0.195390 0.180593 0.341840 -0.862391
C44   C     C_2   0.231816 0.634288 0.644351 0.429337
C45   C     C_3   0.531134 0.388673 0.943148 0.090517
C46   C     C_3   0.001965 0.700795 0.635511 -0.391384
C47   C     C_3   0.067990 0.804803 0.630650 -0.397281
C48   C     C_3   0.000604 0.895417 0.670109 -0.757044
C49   C     C_3   0.776201 0.356937 0.352862 -0.391356
C50   C     C_3   0.817828 0.245185 0.340717 -0.417653
C51   C     C_3   0.735319 0.171146 0.294624 -0.894402
C52   C     C_2   0.804206 0.569979 0.625517 0.442757
C53   C     C_2   0.644425 0.670777 0.894925 0.395095
C54   C     C_3   0.578009 0.721732 0.066677 -0.384496
C55   C     C_3   0.565085 0.769516 0.158964 -0.344910
C56   C     C_1   0.512946 0.512787 0.175242 -0.118059
C57   C     C_3   0.514675 0.876856 0.161776 -0.937293
C58   C     C_3   0.732526 0.600371 0.084651 -0.391180
C59   C     C_3   0.746083 0.589871 0.180894 -0.299762
C60   C     C_3   0.863512 0.619050 0.205923 -0.876850
C61   C     C_3   0.432135 0.308940 0.916310 -0.443494
C62   C     C_3   0.317309 0.304447 0.963595 -0.389237
C63   C     C_3   0.245569 0.214013 0.925812 -0.860798
C64   C     C_2   0.628156 0.337428 0.891888 0.320455
C65   C     C_1   0.509794 0.505918 0.824865 0.022851
C66   C     C_1   0.503801 0.504247 0.749934 -0.118535
C67   C     C_R   0.468416 0.188229 0.505631 -0.086579
H1    H     H_    0.338259 0.520939 0.925858 0.189434
H2    H     H_    0.124641 0.659100 0.191953 0.264403
H3    H     H_    0.179857 0.770246 0.135543 0.266194
H4    H     H_    0.060837 0.696335 0.098068 0.259382
H5    H     H_    0.218094 0.645204 0.006704 0.241586
H6    H     H_    0.175865 0.537773 0.070918 0.218486
H7    H     H_    0.322617 0.597913 0.173527 0.219498
H8    H     H_    0.364574 0.698635 0.105499 0.231448
H9    H     H_    0.854254 0.394156 0.143142 0.267277
H10   H     H_    0.844165 0.253157 0.132924 0.269383
H11   H     H_    0.932832 0.324080 0.060578 0.253749
H12   H     H_    0.354301 0.465550 0.062831 0.157602
H13   H     H_    0.762682 0.253656 0.997147 0.208610
H14   H     H_    0.779507 0.390671 0.992541 0.234285
H15   H     H_    0.651308 0.363196 0.149556 0.218870
H16   H     H_    0.612337 0.254388 0.086151 0.173041
H17   H     H_    0.253263 0.914297 0.583269 0.039618
H18   H     H_    0.819323 0.836424 0.457383 0.051068
H19   H     H_    0.115318 0.864181 0.392716 0.280434
H20   H     H_    0.161344 0.756077 0.322434 0.259751
H21   H     H_    0.140744 0.881268 0.280449 0.249332
H22   H     H_    0.292080 0.961189 0.366479 0.243287
H23   H     H_    0.643071 0.167737 0.486295 0.176464
H24   H     H_    0.338737 0.860657 0.291287 0.222328
H25   H     H_    0.351713 0.736861 0.389604 0.220198
H26   H     H_    0.269340 0.798528 0.472395 0.190233
H27   H     H_    0.279795 0.200455 0.315895 0.253718
H28   H     H_    0.200632 0.137929 0.400383 0.299117
H29   H     H_    0.152839 0.128190 0.293949 0.253377
H30   H     H_    0.049691 0.254567 0.391177 0.250380
H31   H     H_    0.121801 0.313819 0.299238 0.225734
H32   H     H_    0.269248 0.378292 0.387750 0.250061
H33   H     H_    0.207482 0.312942 0.477323 0.231785
H34   H     H_    0.295677 0.185534 0.541850 0.190954
H35   H     H_    0.307720 0.677129 0.629274 0.092595
H36   H     H_    0.930522 0.908569 0.630093 0.256579
H37   H     H_    0.968391 0.878425 0.735322 0.262503
H38   H     H_    0.053084 0.968136 0.675143 0.273095
H39   H     H_    0.143273 0.804976 0.666983 0.230705
H40   H     H_    0.089776 0.818118 0.562715 0.232538
H41   H     H_    0.923811 0.720855 0.609600 0.240186
H42   H     H_    0.988064 0.680937 0.703017 0.246161
H43   H     H_    0.657119 0.163531 0.333333 0.264169
H44   H     H_    0.716179 0.200750 0.232716 0.263472
H45   H     H_    0.725781 0.006654 0.456273 0.143350
H46   H     H_    0.770020 0.092584 0.283162 0.260204
H47   H     H_    0.896654 0.245309 0.301956 0.227822
H48   H     H_    0.831752 0.214898 0.403737 0.232121
H49   H     H_    0.690272 0.348450 0.374943 0.269278
H50   H     H_    0.779879 0.392322 0.290430 0.184333
H51   H     H_    0.826093 0.536091 0.683433 0.094637
H52   H     H_    0.580363 0.724977 0.886788 0.062379
H53   H     H_    0.564168 0.929427 0.119876 0.268269
H54   H     H_    0.428830 0.870201 0.140894 0.254770
H55   H     H_    0.514375 0.912698 0.227939 0.261776
H56   H     H_    0.412410 0.637648 0.945059 0.172994
H57   H     H_    0.513489 0.718505 0.200345 0.231643
H58   H     H_    0.647496 0.783958 0.185191 0.243854
H59   H     H_    0.643004 0.772984 0.036758 0.189172
H60   H     H_    0.505749 0.737826 0.031324 0.183644
H61   H     H_    0.872886 0.602374 0.273473 0.287086
H62   H     H_    0.923408 0.572610 0.165504 0.251045
H63   H     H_    0.882031 0.703603 0.198720 0.270149
H64   H     H_    0.728412 0.508609 0.196577 0.219042
H65   H     H_    0.689603 0.636952 0.222637 0.255967
H66   H     H_    0.780358 0.538646 0.051653 0.200783
H67   H     H_    0.988288 0.406288 0.339965 0.151031
H68   H     H_    0.780055 0.672022 0.066048 0.209819
H69   H     H_    0.234638 0.223401 0.857107 0.269807
H70   H     H_    0.283504 0.138114 0.933138 0.257856
H71   H     H_    0.163171 0.212916 0.959652 0.249158
H72   H     H_    0.323103 0.290841 0.031960 0.210724
H73   H     H_    0.271302 0.375258 0.957275 0.228427
H74   H     H_    0.418421 0.316453 0.847685 0.215668
H75   H     H_    0.460872 0.228177 0.920216 0.191194
H76   H     H_    0.642346 0.255696 0.899115 0.072209
H77   H     H_    0.694468 0.530050 0.934711 0.211090
H78   H     H_    0.478504 0.352641 0.071095 0.140750
N1    N     N_R   0.207800 0.519340 0.515510 -0.174932
N2    N     N_R   0.792190 0.480660 0.484490 -0.118857
O1    O     O_R   0.421690 0.658830 0.504140 -0.679118
O2    O     O_2   0.744569 0.728118 0.382165 -0.584932
O3    O     O_2   0.203775 0.624945 0.719198 -0.595135
O4    O     O_2   0.741434 0.642028 0.630136 -0.545833
O5    O     O_2   0.734933 0.685401 0.859502 -0.551287
O6    O     O_2   0.686669 0.381776 0.838831 -0.588246
O7    O     O_R   0.609320 0.646410 0.494190 -0.520059
O8    O     O_R   0.406150 0.506210 0.627840 -0.626126
O9    O     O_R   0.593770 0.493790 0.617880 -0.571658
O10   O     O_R   0.390680 0.353590 0.505810 -0.650080
O11   O     O_R   0.578310 0.341170 0.495860 -0.649637
O12   O     O_R   0.406230 0.506210 0.382120 -0.646574
O13   O     O_R   0.593850 0.493790 0.372160 -0.627126
O14   O     O_2   0.162552 0.023144 0.539409 -0.603996
Zn1   Zn    Zn3+2 0.374720 0.508290 0.506640 0.905551
Zn2   Zn    Zn3+2 0.625280 0.491710 0.493360 0.998257

loop_
_geom_bond_atom_site_label_1
_geom_bond_atom_site_label_2
_ccdc_geom_bond_type
C4    C66   S    
C5    C37   S    
C12   C29   S    
C13   H67   S    
C54   C55   S    
C23   C56   S    
C10   C67   A    
C25   C28   S    
C7    C11   A    
N1    Zn1   S    
C12   C23   S    
C59   H64   S    
C62   C63   S    
C13   C18   A    
C40   H20   S    
C37   H18   S    
C11   C36   S    
C25   C53   S    
C1    C2    S    
C42   H31   S    
C30   C31   S    
C34   H78   S    
C14   C49   S    
C22   O12   A    
C48   H37   S    
C12   H12   S    
C38   H25   S    
C43   H27   S    
C50   H48   S    
C41   C42   S    
C23   C26   S    
C40   H19   S    
C57   H55   S    
C55   H57   S    
C31   H3    S    
C49   H50   S    
C55   H58   S    
O9    Zn2   S    
C8    C9    A    
C46   H41   S    
C53   O5    D    
C43   H28   S    
C41   H32   S    
C62   H72   S    
C47   H39   S    
C31   H4    S    
C59   C60   S    
O8    Zn1   S    
C48   H38   S    
C13   C14   A    
C63   H70   S    
C2    C6    A    
C26   C54   S    
C39   H24   S    
C20   C44   S    
C50   C51   S    
C58   H66   S    
C28   C45   S    
C35   H9    S    
C41   H33   S    
C19   N1    A    
C16   O11   A    
O13   Zn2   S    
O7    Zn2   S    
C60   H61   S    
C3    C8    A    
C42   H30   S    
C60   H63   S    
C39   C40   S    
C16   C67   S    
C30   H6    S    
C44   H35   S    
C27   C56   T    
C18   C19   A    
C29   H7    S    
C25   C26   S    
C48   H36   S    
C64   O6    D    
C35   H10   S    
C24   H56   S    
C44   O3    D    
C50   H47   S    
C32   C34   S    
C60   H62   S    
C9    C67   A    
C29   C30   S    
C54   H59   S    
C47   C48   S    
C3    H45   S    
C23   C34   S    
C4    O8    A    
C6    C38   S    
C17   C18   A    
O12   Zn1   S    
C34   C45   S    
C51   H46   S    
C15   C52   S    
C26   C58   S    
O11   Zn2   S    
C57   H53   S    
C61   H74   S    
C4    O9    A    
C65   C66   T    
C51   H43   S    
C47   H40   S    
C22   C27   S    
C55   C57   S    
C36   O14   D    
C63   H71   S    
C20   N1    A    
C25   H77   S    
C42   C43   S    
C21   C46   S    
C15   C17   A    
C32   H16   S    
C46   C47   S    
C51   H44   S    
C35   H11   S    
C16   O10   A    
C10   H34   S    
C24   C28   S    
C37   O2    D    
C3    C5    A    
C9    H23   S    
C30   H5    S    
C1    O7    A    
C53   H52   S    
C33   H13   S    
C6    C7    A    
C29   H8    S    
C64   H76   S    
C58   H68   S    
C32   H15   S    
C54   H60   S    
C12   C24   S    
C45   C64   S    
O1    Zn1   S    
C63   H69   S    
C40   H21   S    
C28   C65   S    
C58   C59   S    
N2    Zn2   S    
C32   C33   S    
C15   N2    A    
C59   H65   S    
C38   C39   S    
C22   O13   A    
C36   H17   S    
C52   O4    D    
C14   N2    A    
C38   H26   S    
C45   C61   S    
C33   C35   S    
C61   C62   S    
C17   C21   A    
C7    C8    A    
C10   C11   A    
C24   H1    S    
C57   H54   S    
C2    C5    A    
C61   H75   S    
C31   H2    S    
C49   H49   S    
C20   C21   A    
C49   C50   S    
C46   H42   S    
C43   H29   S    
C1    O1    A    
C62   H73   S    
C33   H14   S    
O10   Zn1   S    
C39   H22   S    
C19   C41   S    
C52   H51   S    
