data_mof_unit_428.cif
_audit_creation_date              2012-12-11T15:16:39-0500
_audit_creation_method            fapswitch 2.2
_symmetry_space_group_name_H-M    P1
_symmetry_Int_Tables_number       1
_space_group_crystal_system       triclinic
_cell_length_a                    25.220809
_cell_length_b                    7.222504
_cell_length_c                    21.805767
_cell_angle_alpha                 90.000026
_cell_angle_beta                  110.167664
_cell_angle_gamma                 90.0
_cell_volume                      3728.54441939

loop_
_atom_site_label
_atom_site_type_symbol
_atom_type_description
_atom_site_fract_x
_atom_site_fract_y
_atom_site_fract_z
_atom_type_partial_charge
O1    O     O_R   0.554350 0.505270 0.581390 -0.538799
O2    O     O_R   0.445650 0.005270 0.418610 -0.538799
O3    O     O_R   0.553380 0.177580 0.454800 -0.522642
O4    O     O_R   0.446620 0.677580 0.545200 -0.522642
C1    C     C_R   0.567687 0.344475 0.440669 0.706512
C2    C     C_R   0.432313 0.844475 0.559330 0.706511
O5    O     O_R   0.560970 0.175640 0.583140 -0.536372
O6    O     O_R   0.439030 0.675640 0.416860 -0.536373
O7    O     O_R   0.453290 0.004120 0.547860 -0.534517
O8    O     O_R   0.546710 0.504120 0.452140 -0.534517
C3    C     C_R   0.576003 0.344475 0.607681 0.726077
C4    C     C_R   0.423997 0.844475 0.392319 0.726077
O9    O     O_3   0.464660 0.338800 0.488280 -0.374401
O10   O     O_3   0.535340 0.838800 0.511720 -0.374400
V1    V     V_3+5 0.506560 0.064420 0.502170 1.453527
V2    V     V_3+5 0.493440 0.564420 0.497830 1.453526
C5    C     C_R   0.147566 0.920301 0.289752 0.449334
C6    C     C_R   0.852434 0.420303 0.710248 0.449334
H1    H     H_    0.062435 0.910380 0.222278 0.144855
H2    H     H_    0.937565 0.410383 0.777721 0.144856
H3    H     H_    0.234375 0.919843 0.403056 0.140667
H4    H     H_    0.765625 0.419847 0.596944 0.140667
C7    C     C_R   0.121844 0.939392 0.172070 -0.180478
C8    C     C_R   0.878155 0.439393 0.827930 -0.180479
C9    C     C_R   0.398108 0.831174 0.272259 0.408157
C10   C     C_R   0.601892 0.331173 0.727741 0.408157
C11   C     C_R   0.357870 0.822005 0.209395 -0.232713
C12   C     C_R   0.642130 0.322002 0.790605 -0.232712
C13   C     C_R   0.300821 0.849247 0.198913 -0.245442
C14   C     C_R   0.699179 0.349245 0.801087 -0.245442
C15   C     C_R   0.281379 0.888537 0.251003 0.109684
C16   C     C_R   0.718621 0.388536 0.748997 0.109684
C17   C     C_R   0.322071 0.884910 0.315808 0.020480
C18   C     C_R   0.677929 0.384910 0.684192 0.020479
C19   C     C_R   0.222518 0.919417 0.241305 -0.068524
C20   C     C_R   0.777481 0.419417 0.758695 -0.068523
C21   C     C_R   0.205487 0.916995 0.297171 -0.024031
C22   C     C_R   0.794513 0.416996 0.702829 -0.024031
C23   C     C_R   0.246380 0.913519 0.359984 -0.179255
C24   C     C_R   0.753619 0.413521 0.640016 -0.179256
C25   C     C_R   0.303552 0.906921 0.368984 -0.190422
C26   C     C_R   0.696448 0.406923 0.631016 -0.190423
C27   C     C_R   0.179503 0.953627 0.178802 0.335514
C28   C     C_R   0.820497 0.453626 0.821198 0.335514
C29   C     C_R   0.106656 0.919507 0.227400 -0.309717
C30   C     C_R   0.893343 0.419509 0.772599 -0.309718
C31   C     C_R   0.380392 0.854263 0.326162 -0.175229
C32   C     C_R   0.619607 0.354263 0.673837 -0.175230
H5    H     H_    0.272746 0.830958 0.149472 0.197406
H6    H     H_    0.727254 0.330955 0.850528 0.197406
H7    H     H_    0.370835 0.790675 0.168092 0.137498
H8    H     H_    0.629165 0.290671 0.831907 0.137498
H9    H     H_    0.333194 0.913512 0.418461 0.082020
H10   H     H_    0.666806 0.413514 0.581539 0.082021
C33   C     C_R   0.109039 0.767805 0.868695 -0.241368
C34   C     C_R   0.890961 0.267805 0.131305 -0.241374
H11   H     H_    0.086466 0.645381 0.874631 0.137828
H12   H     H_    0.913535 0.145381 0.125370 0.137825
C35   C     C_R   0.142536 0.755094 0.829065 0.435324
C36   C     C_R   0.857465 0.255094 0.170935 0.435327
C37   C     C_R   0.173660 0.910722 0.820982 -0.083757
C38   C     C_R   0.826340 0.410722 0.179018 -0.083754
C39   C     C_R   0.168117 0.078351 0.851286 -0.199242
C40   C     C_R   0.831882 0.578350 0.148714 -0.199245
H13   H     H_    0.190941 0.200622 0.845820 0.195999
H14   H     H_    0.809058 0.700621 0.154179 0.195997
C41   C     C_R   0.133224 0.091056 0.889171 -0.153319
C42   C     C_R   0.866776 0.591056 0.110828 -0.153318
H15   H     H_    0.129994 0.222685 0.911416 0.144524
H16   H     H_    0.870005 0.722684 0.088583 0.144523
C43   C     C_R   0.103392 0.935600 0.898626 -0.102143
C44   C     C_R   0.896608 0.435600 0.101374 -0.102140
N1    N     N_R   0.228745 0.735171 0.765373 -0.228110
N2    N     N_R   0.771255 0.235171 0.234629 -0.228107
N3    N     N_R   0.261142 0.725889 0.728417 -0.244510
N4    N     N_R   0.738858 0.225888 0.271585 -0.244511
C45   C     C_R   0.277169 0.881877 0.704682 0.526228
C46   C     C_R   0.722831 0.381877 0.295318 0.526226
N5    N     N_R   0.260245 0.048023 0.720856 -0.296214
N6    N     N_R   0.739755 0.548024 0.279144 -0.296213
N7    N     N_R   0.227853 0.057323 0.757936 -0.296360
N8    N     N_R   0.772147 0.557323 0.242063 -0.296356
C47   C     C_R   0.210943 0.900831 0.780621 0.517112
C48   C     C_R   0.789057 0.400831 0.219380 0.517116
C49   C     C_R   0.315387 0.709779 0.626648 0.352288
C50   C     C_R   0.684613 0.209779 0.373353 0.352288
C51   C     C_R   0.352245 0.701537 0.590423 0.340710
C52   C     C_R   0.647755 0.201537 0.409577 0.340710
C53   C     C_R   0.388612 0.853113 0.591410 -0.215781
C54   C     C_R   0.611388 0.353113 0.408590 -0.215780
C55   C     C_R   0.382965 0.015784 0.623954 -0.209274
C56   C     C_R   0.617035 0.515784 0.376046 -0.209274
H17   H     H_    0.408758 0.135599 0.624220 0.183075
H18   H     H_    0.591242 0.635599 0.375779 0.183075
C57   C     C_R   0.345479 0.025403 0.658374 -0.203912
C58   C     C_R   0.654521 0.525403 0.341627 -0.203912
H19   H     H_    0.343769 0.152356 0.684076 0.194402
H20   H     H_    0.656231 0.652356 0.315924 0.194402
C59   C     C_R   0.312764 0.871601 0.662410 -0.145813
C60   C     C_R   0.687236 0.371601 0.337590 -0.145813
O11   O     O_R   0.953220 0.285790 0.047790 -0.536971
O12   O     O_R   0.046780 0.785790 0.952210 -0.536972
O13   O     O_R   0.939020 0.617570 0.916840 -0.546489
O14   O     O_R   0.060980 0.117570 0.083160 -0.546489
C61   C     C_R   0.923580 0.448502 0.892624 0.769800
C62   C     C_R   0.076420 0.948502 0.107376 0.769800
O15   O     O_R   0.946600 0.615450 0.045180 -0.545964
O16   O     O_R   0.053400 0.115450 0.954820 -0.545964
O17   O     O_R   0.054370 0.786770 0.081410 -0.534108
O18   O     O_R   0.945630 0.286770 0.918590 -0.534108
C63   C     C_R   0.934463 0.446829 0.061897 0.719332
C64   C     C_R   0.065537 0.946829 0.938103 0.719333
O19   O     O_3   0.035300 0.454160 0.011680 -0.380957
O20   O     O_3   0.964700 0.954160 0.988320 -0.380957
V3    V     V_3+5 0.993450 0.728620 0.997830 1.378411
V4    V     V_3+5 0.006550 0.228620 0.002170 1.378411
O21   O     O_3   0.145446 0.587759 0.799612 -0.545276
C65   C     C_3   0.098450 0.574341 0.741215 0.090611
H21   H     H_    0.097657 0.691990 0.707789 0.115474
H22   H     H_    0.058227 0.572167 0.751666 0.109077
C66   C     C_3   0.102398 0.395373 0.706308 -0.664081
H23   H     H_    0.099324 0.274548 0.736345 0.218930
H24   H     H_    0.067314 0.388398 0.658597 0.165105
H25   H     H_    0.143217 0.389715 0.697642 0.248702
O22   O     O_3   0.854555 0.087760 0.200390 -0.545275
C67   C     C_3   0.901554 0.074336 0.258783 0.090605
H26   H     H_    0.902356 0.191995 0.292208 0.115468
H27   H     H_    0.941775 0.072134 0.248326 0.109081
C68   C     C_3   0.897602 0.895382 0.293696 -0.664069
H28   H     H_    0.900666 0.774544 0.263659 0.218934
H29   H     H_    0.932690 0.888401 0.341404 0.165102
H30   H     H_    0.856785 0.889755 0.302369 0.248697
O23   O     O_3   0.285878 0.551543 0.630845 -0.548024
C69   C     C_3   0.230444 0.561649 0.584979 0.123240
H31   H     H_    0.230278 0.597657 0.535361 0.097338
H32   H     H_    0.205372 0.667321 0.600227 0.117476
C70   C     C_3   0.202246 0.372772 0.581360 -0.254733
H33   H     H_    0.227137 0.266186 0.566326 0.191579
H34   H     H_    0.201566 0.334889 0.630433 0.229380
C71   C     C_3   0.141923 0.373916 0.532691 -0.889669
H35   H     H_    0.115904 0.476232 0.547792 0.240734
H36   H     H_    0.122878 0.234554 0.530995 0.236117
H37   H     H_    0.141751 0.409309 0.483037 0.235939
O24   O     O_3   0.714122 0.051543 0.369156 -0.548024
C72   C     C_3   0.769556 0.061649 0.415021 0.123240
H38   H     H_    0.769722 0.097660 0.464639 0.097337
H39   H     H_    0.794628 0.167317 0.399773 0.117479
C73   C     C_3   0.797754 0.872770 0.418642 -0.254736
H40   H     H_    0.772863 0.766187 0.433678 0.191578
H41   H     H_    0.798433 0.834882 0.369569 0.229381
C74   C     C_3   0.858077 0.873914 0.467311 -0.889671
H42   H     H_    0.884096 0.976226 0.452208 0.240734
H43   H     H_    0.877122 0.734551 0.469008 0.236118
H44   H     H_    0.858250 0.909312 0.516965 0.235939
O25   O     O_3   0.352737 0.540412 0.555971 -0.557261
C75   C     C_3   0.323330 0.570834 0.488552 0.111849
H45   H     H_    0.353001 0.623588 0.465305 0.132947
H46   H     H_    0.288045 0.672156 0.479171 0.070446
C76   C     C_3   0.299073 0.388534 0.455086 -0.282560
H47   H     H_    0.333878 0.287400 0.461875 0.203252
H48   H     H_    0.269184 0.330350 0.477387 0.185593
C77   C     C_3   0.268048 0.418872 0.382073 -0.840223
H49   H     H_    0.231736 0.514098 0.374289 0.242634
H50   H     H_    0.251640 0.285741 0.357959 0.234284
H51   H     H_    0.297121 0.477815 0.358758 0.242522
O26   O     O_3   0.647263 0.040413 0.444030 -0.557261
C78   C     C_3   0.676670 0.070835 0.511448 0.111850
H52   H     H_    0.646999 0.123591 0.534695 0.132946
H53   H     H_    0.711955 0.172156 0.520829 0.070446
C79   C     C_3   0.700926 0.888535 0.544915 -0.282560
H54   H     H_    0.666121 0.787402 0.538126 0.203253
H55   H     H_    0.730816 0.830351 0.522614 0.185593
C80   C     C_3   0.731951 0.918874 0.617928 -0.840224
H56   H     H_    0.768263 0.014100 0.625712 0.242634
H57   H     H_    0.748358 0.785743 0.642043 0.234285
H58   H     H_    0.702878 0.977818 0.641242 0.242522
O27   O     O_3   0.130311 0.907975 0.343390 -0.559687
C81   C     C_3   0.126363 0.087637 0.367555 0.087150
H59   H     H_    0.153880 0.193005 0.355886 0.110084
H60   H     H_    0.140678 0.079111 0.421680 0.142787
C82   C     C_3   0.065267 0.154232 0.342929 -0.750887
H61   H     H_    0.037654 0.050159 0.354432 0.226905
H62   H     H_    0.062004 0.287070 0.367021 0.192502
H63   H     H_    0.050626 0.177011 0.289339 0.205910
O28   O     O_3   0.869689 0.407979 0.656610 -0.559686
C83   C     C_3   0.873636 0.587642 0.632445 0.087150
H64   H     H_    0.846120 0.693009 0.644115 0.110084
H65   H     H_    0.859321 0.579116 0.578320 0.142787
C84   C     C_3   0.934732 0.654237 0.657071 -0.750886
H66   H     H_    0.962346 0.550164 0.645568 0.226906
H67   H     H_    0.937995 0.787075 0.632980 0.192502
H68   H     H_    0.949374 0.677015 0.710661 0.205911
O29   O     O_3   0.191924 0.001364 0.123674 -0.588960
C85   C     C_3   0.216361 0.180597 0.130855 0.030554
H69   H     H_    0.245395 0.183406 0.102414 0.151556
H70   H     H_    0.242496 0.216385 0.182151 0.125573
C86   C     C_3   0.170773 0.327939 0.103171 -0.280389
H71   H     H_    0.145370 0.292923 0.051797 0.217592
H72   H     H_    0.142793 0.332161 0.132836 0.201700
C87   C     C_3   0.196495 0.519393 0.105146 -0.814795
H73   H     H_    0.219558 0.558999 0.156652 0.233040
H74   H     H_    0.162416 0.621921 0.083182 0.257607
H75   H     H_    0.225905 0.520987 0.077191 0.227848
O30   O     O_3   0.808075 0.501361 0.876326 -0.588960
C88   C     C_3   0.783638 0.680594 0.869145 0.030554
H76   H     H_    0.754605 0.683403 0.897587 0.151556
H77   H     H_    0.757503 0.716382 0.817850 0.125573
C89   C     C_3   0.829226 0.827937 0.896829 -0.280391
H78   H     H_    0.854630 0.792921 0.948203 0.217592
H79   H     H_    0.857207 0.832159 0.867164 0.201700
C90   C     C_3   0.803505 0.019390 0.894854 -0.814795
H80   H     H_    0.780442 0.058996 0.843348 0.233040
H81   H     H_    0.837584 0.121919 0.916818 0.257607
H82   H     H_    0.774095 0.020985 0.922809 0.227849
O31   O     O_3   0.454759 0.802224 0.282067 -0.576357
C91   C     C_3   0.475818 0.955050 0.257029 0.057938
H83   H     H_    0.468554 0.086824 0.279663 0.121971
H84   H     H_    0.455271 0.963782 0.202998 0.124871
C92   C     C_3   0.539301 0.930907 0.272801 -0.292389
H85   H     H_    0.560921 0.934602 0.326597 0.219838
H86   H     H_    0.547591 0.794426 0.254317 0.204116
C93   C     C_3   0.563385 0.083405 0.241627 -0.789496
H87   H     H_    0.542009 0.083607 0.187764 0.228768
H88   H     H_    0.609135 0.058666 0.252399 0.260648
H89   H     H_    0.557776 0.220762 0.261483 0.232669
O32   O     O_3   0.545241 0.302223 0.717933 -0.576356
C94   C     C_3   0.524181 0.455049 0.742970 0.057937
H90   H     H_    0.531446 0.586822 0.720336 0.121971
H91   H     H_    0.544730 0.463784 0.797002 0.124871
C95   C     C_3   0.460699 0.430906 0.727199 -0.292389
H92   H     H_    0.439079 0.434600 0.673403 0.219837
H93   H     H_    0.452409 0.294426 0.745683 0.204117
C96   C     C_3   0.436615 0.583405 0.758373 -0.789494
H94   H     H_    0.457992 0.583608 0.812236 0.228768
H95   H     H_    0.390865 0.558666 0.747601 0.260648
H96   H     H_    0.442225 0.720761 0.738517 0.232669

loop_
_geom_bond_atom_site_label_1
_geom_bond_atom_site_label_2
_ccdc_geom_bond_type
C85   H70   S    
C61   O18   A    
C39   H13   S    
C67   H26   S    
C7    C29   A    
C33   C35   A    
C11   C13   A    
O12   C64   A    
O1    C3    A    
C73   C74   S    
O2    C4    A    
C69   C70   S    
O14   C62   A    
O20   V3    S    
C50   O24   S    
C23   C25   A    
C13   H5    S    
C80   H56   S    
O5    C3    A    
C70   H34   S    
N2    N4    A    
C16   C20   A    
C36   O22   S    
C19   C21   A    
N4    C46   A    
C77   H49   S    
C40   C42   A    
C57   C59   A    
C80   H58   S    
C85   C86   S    
C55   H17   S    
C79   H54   S    
C5    C29   A    
C82   H61   S    
C56   C58   A    
C7    C27   A    
C95   C96   S    
C36   C38   A    
C74   H44   S    
C86   H72   S    
C94   H90   S    
C65   H21   S    
C62   O17   A    
C66   H25   S    
C38   C40   A    
O12   V3    S    
C72   H39   S    
O14   V4    S    
C90   H80   S    
C84   H68   S    
C87   H73   S    
C34   C44   A    
H2    C30   S    
C58   H20   S    
C74   H42   S    
C71   H37   S    
C53   C55   A    
C19   C27   A    
C96   H94   S    
C9    C31   A    
C89   C90   S    
C1    C54   S    
O29   C85   S    
C10   C32   A    
O19   V4    S    
C40   H14   S    
C24   C26   A    
C85   H69   S    
C14   H6    S    
C44   C63   S    
O6    V2    S    
C22   C24   A    
C13   C15   A    
N1    N3    A    
C3    C32   S    
C86   H71   S    
C2    O7    A    
C4    C31   S    
C6    C30   A    
C56   H18   S    
C10   C12   A    
N7    C47   A    
C11   H7    S    
C72   H38   S    
C78   C79   S    
C77   H50   S    
C82   H62   S    
C76   C77   S    
C70   C71   S    
C39   C41   A    
C35   C37   A    
C50   C52   A    
C81   H59   S    
C9    O31   S    
C45   N5    A    
C91   H83   S    
C78   H53   S    
C37   C47   S    
C92   H85   S    
N5    N7    A    
C89   H78   S    
C69   H32   S    
C67   C68   S    
C88   H76   S    
C7    C62   S    
C95   H92   S    
O16   C64   A    
C42   C44   A    
C41   H15   S    
C65   C66   S    
C16   C18   A    
O4    V2    S    
C86   C87   S    
O13   V3    S    
O31   C91   S    
C49   C59   A    
C18   C26   A    
C92   H86   S    
C77   H51   S    
C96   H95   S    
C54   C56   A    
C76   H47   S    
H3    C23   S    
O6    C4    A    
H4    C24   S    
C43   C64   S    
C90   H82   S    
C15   C17   A    
C46   N6    A    
O13   C61   A    
O1    V2    S    
C5    C21   A    
C71   H35   S    
C93   H88   S    
O2    V1    S    
N3    C45   A    
O15   V3    S    
C66   H23   S    
C80   H57   S    
C73   H41   S    
C87   H74   S    
C90   H81   S    
C52   C54   A    
O27   C81   S    
C52   O26   S    
C33   H11   S    
C46   C60   S    
O22   C67   S    
C17   C31   A    
C51   O25   S    
C20   C28   A    
O4    C2    A    
C18   C32   A    
C95   H93   S    
C35   O21   S    
C83   H65   S    
C20   C22   A    
O18   V4    S    
C78   H52   S    
C72   C73   S    
O3    V1    S    
C68   H28   S    
C88   C89   S    
C5    O27   S    
C38   C48   S    
C57   H19   S    
C75   H45   S    
C67   H27   S    
C82   H63   S    
C94   H91   S    
O15   C63   A    
C37   C39   A    
N2    C48   A    
O24   C72   S    
O3    C1    A    
C81   H60   S    
H1    C29   S    
C12   C14   A    
C69   H31   S    
C71   H36   S    
C75   C76   S    
C9    C11   A    
C2    C53   S    
C70   H33   S    
C6    O28   S    
N8    C48   A    
C93   H89   S    
C27   O29   S    
C91   C92   S    
C8    C30   A    
C68   H30   S    
C83   C84   S    
C75   H46   S    
C76   H48   S    
C6    C22   A    
C17   C25   A    
C1    O8    A    
C21   C23   A    
C89   H79   S    
O8    V2    S    
O21   C65   S    
C26   H10   S    
C92   C93   S    
C14   C16   A    
C50   C60   A    
C12   H8    S    
O16   V4    S    
O28   C83   S    
O23   C69   S    
O26   C78   S    
C79   H55   S    
C10   O32   S    
C87   H75   S    
C8    C28   A    
O11   C63   A    
C58   C60   A    
C15   C19   A    
O5    V1    S    
C51   C53   A    
N6    N8    A    
C34   H12   S    
C45   C59   S    
C41   C43   A    
C73   H40   S    
C74   H43   S    
O7    V1    S    
C84   H66   S    
C96   H96   S    
C65   H22   S    
C66   H24   S    
C81   C82   S    
O17   V3    S    
C55   C57   A    
C25   H9    S    
C34   C36   A    
C49   C51   A    
C94   C95   S    
O30   C88   S    
C42   H16   S    
O32   C94   S    
O9    V2    S    
O25   C75   S    
C28   O30   S    
O11   V4    S    
O10   V1    S    
C8    C61   S    
C84   H67   S    
C83   H64   S    
C88   H77   S    
C93   H87   S    
N1    C47   A    
C33   C43   A    
C91   H84   S    
C49   O23   S    
C68   H29   S    
C79   C80   S    
