data_mof_unit_4656.cif
_audit_creation_date              2012-10-26T19:00:08-0400
_audit_creation_method            fapswitch 2.2
_symmetry_space_group_name_H-M    P1
_symmetry_Int_Tables_number       1
_space_group_crystal_system       triclinic
_cell_length_a                    10.916504
_cell_length_b                    10.819748
_cell_length_c                    9.602839
_cell_angle_alpha                 88.876136
_cell_angle_beta                  90.788626
_cell_angle_gamma                 91.935933
_cell_volume                      1133.26514717

loop_
_atom_site_label
_atom_site_type_symbol
_atom_type_description
_atom_site_fract_x
_atom_site_fract_y
_atom_site_fract_z
_atom_type_partial_charge
C1    C     C_R   0.504012 0.262836 0.501133 0.536104
C2    C     C_R   0.797165 0.382678 0.971826 -0.114068
C3    C     C_R   0.747459 0.263679 0.950868 -0.059074
C4    C     C_R   0.262108 0.500217 0.499149 0.539067
C5    C     C_R   0.762451 0.206391 0.823330 0.394349
C6    C     C_R   0.826297 0.268593 0.716260 -0.047281
C7    C     C_R   0.877011 0.387978 0.737204 -0.011585
C8    C     C_R   0.476538 0.060831 0.619229 0.104088
C9    C     C_R   0.517066 0.130349 0.504461 0.021408
C10   C     C_R   0.571317 0.069813 0.393833 -0.169483
C11   C     C_R   0.568577 0.940397 0.391500 -0.160588
C12   C     C_R   0.204651 0.530534 0.971041 -0.126340
C13   C     C_R   0.511355 0.871639 0.499284 0.003306
C14   C     C_R   0.472054 0.933635 0.615196 0.049338
C15   C     C_3   0.350447 0.924605 0.683458 -0.280622
C16   C     C_R   0.502101 0.737698 0.498957 0.546608
C17   C     C_3   0.357013 0.064519 0.691949 -0.291175
C18   C     C_R   0.523822 0.606402 0.070675 0.151015
C19   C     C_R   0.467209 0.396842 0.075882 -0.026772
C20   C     C_R   0.467546 0.396612 0.927650 -0.027835
C21   C     C_R   0.521988 0.606752 0.924008 0.185823
C22   C     C_3   0.632737 0.689776 0.914147 -0.271392
C23   C     C_R   0.933717 0.548457 0.387879 0.365588
C24   C     C_3   0.637681 0.686733 0.072112 -0.275235
C25   C     C_R   0.737418 0.500487 0.501395 0.577918
C26   C     C_R   0.219916 0.637951 0.048274 0.284274
C27   C     C_R   0.170489 0.639480 0.183052 -0.068180
C28   C     C_R   0.109192 0.533897 0.238331 0.073538
C29   C     C_R   0.088771 0.427486 0.155742 0.302139
C30   C     C_R   0.140059 0.426975 0.023433 -0.159111
C31   C     C_3   0.335852 0.825719 0.064110 -0.005887
C32   C     C_3   0.269925 0.947790 0.062765 -0.268667
C33   C     C_3   0.356335 0.055681 0.102216 -0.501288
C34   C     C_R   0.871181 0.503029 0.505087 0.006506
C35   C     C_3   0.015327 0.259679 0.294656 0.006658
C36   C     C_3   0.121069 0.174550 0.270177 -0.286711
C37   C     C_3   0.121665 0.069752 0.379283 -0.483289
C38   C     C_R   0.937735 0.456145 0.620860 -0.087378
C39   C     C_R   0.065375 0.462961 0.619184 -0.175443
C40   C     C_R   0.127726 0.503310 0.498897 -0.077035
C41   C     C_R   0.059224 0.537775 0.379222 -0.007387
C42   C     C_R   0.863704 0.444019 0.866287 -0.093339
Cu1   Cu    Cu3+1 0.499990 0.499980 0.640670 0.950495
Cu2   Cu    Cu3+1 0.500010 0.500020 0.359330 0.947756
F1    F     F_    0.714338 0.090886 0.803160 -0.660162
F2    F     F_    0.872549 0.594536 0.275750 -0.663573
H1    H     H_    0.239837 0.529470 0.866703 0.167991
H2    H     H_    0.441951 0.312793 0.131895 0.118874
H3    H     H_    0.442417 0.312183 0.874663 0.121148
H4    H     H_    0.710947 0.645432 0.865080 0.156119
H5    H     H_    0.611052 0.782168 0.869436 0.164941
H6    H     H_    0.717670 0.637874 0.113920 0.228984
H7    H     H_    0.623386 0.778490 0.116833 0.121417
H8    H     H_    0.174804 0.722656 0.243982 0.094301
H9    H     H_    0.123074 0.348244 0.957149 0.122226
H10   H     H_    0.115605 0.425465 0.707189 0.134924
H11   H     H_    0.902552 0.535887 0.883982 0.139848
H12   H     H_    0.696933 0.216204 0.033337 0.115524
H13   H     H_    0.784559 0.427021 0.070322 0.195622
H14   H     H_    0.426711 0.842267 0.015909 0.145837
H15   H     H_    0.355879 0.792692 0.172180 0.134661
H16   H     H_    0.231502 0.966863 0.957134 0.188614
H17   H     H_    0.192013 0.939656 0.135500 0.158744
H18   H     H_    0.376719 0.051992 0.215368 0.164731
H19   H     H_    0.312136 0.143856 0.075421 0.122253
H20   H     H_    0.443439 0.054352 0.043883 0.157262
H21   H     H_    0.930224 0.201440 0.307307 0.160071
H22   H     H_    0.028631 0.306437 0.394362 0.125425
H23   H     H_    0.835466 0.224513 0.616759 0.107968
H24   H     H_    0.110017 0.135350 0.164726 0.178363
H25   H     H_    0.209233 0.228725 0.276892 0.160817
H26   H     H_    0.113105 0.107084 0.485386 0.145595
H27   H     H_    0.208433 0.019581 0.374718 0.144151
H28   H     H_    0.043761 0.003360 0.359871 0.163669
H29   H     H_    0.610402 0.121937 0.306796 0.127376
H30   H     H_    0.607766 0.894959 0.304587 0.131693
H31   H     H_    0.276214 0.888910 0.613025 0.135982
H32   H     H_    0.357043 0.876458 0.785232 0.196768
H33   H     H_    0.285722 0.111326 0.628987 0.121544
H34   H     H_    0.368610 0.098363 0.799779 0.140007
N1    N     N_R   0.500790 0.500930 0.147930 -0.234601
N2    N     N_R   0.500790 0.500890 0.852020 -0.235971
O1    O     O_R   0.500000 0.319640 0.618810 -0.501368
O2    O     O_3   0.993596 0.341589 0.181142 -0.569197
O3    O     O_R   0.500010 0.319680 0.381230 -0.530449
O4    O     O_R   0.319640 0.499990 0.618790 -0.510039
O5    O     O_R   0.319650 0.500030 0.381210 -0.511811
O6    O     O_R   0.499990 0.680320 0.618770 -0.492462
O7    O     O_R   0.500000 0.680360 0.381190 -0.515772
O8    O     O_R   0.680350 0.499970 0.618790 -0.509069
O9    O     O_R   0.680360 0.500010 0.381210 -0.439080
O10   O     O_3   0.270047 0.740909 0.978724 -0.590706

loop_
_geom_bond_atom_site_label_1
_geom_bond_atom_site_label_2
_ccdc_geom_bond_type
C24   H6    S    
C6    H23   S    
C37   H28   S    
C20   N2    A    
C18   C21   A    
Cu1   O1    S    
C31   H15   S    
C19   C20   A    
C27   H8    S    
C33   H19   S    
C4    O5    A    
C15   H31   S    
C25   O8    A    
C20   H3    S    
C18   C24   S    
Cu1   O6    S    
C21   C22   S    
C36   C37   S    
C11   H30   S    
C38   C39   A    
C15   H32   S    
C4    O4    A    
C26   O10   S    
C28   C41   S    
C17   H33   S    
C18   N1    A    
C7    C42   A    
C39   H10   S    
C8    C9    A    
Cu2   O5    S    
C9    C10   A    
C36   H25   S    
C25   C34   S    
C22   H4    S    
C16   O7    A    
C23   F2    S    
C34   C38   A    
C13   C14   A    
C12   H1    S    
C42   H11   S    
C36   H24   S    
C33   H20   S    
C1    O3    A    
C25   O9    A    
Cu1   O8    S    
C4    C40   S    
C1    C9    S    
C29   O2    S    
Cu2   N1    S    
C39   C40   A    
C2    H13   S    
C24   H7    S    
C5    F1    S    
C17   H34   S    
C12   C26   A    
C35   C36   S    
C31   H14   S    
Cu1   Cu2   S    
C29   C30   A    
C10   H29   S    
C31   C32   S    
C35   H21   S    
C23   C34   A    
C26   C27   A    
Cu2   O9    S    
C40   C41   A    
C22   C24   S    
C37   H26   S    
Cu2   O3    S    
C15   C17   S    
C37   H27   S    
C28   C29   A    
C8    C14   A    
C12   C30   A    
C19   H2    S    
Cu1   O4    S    
C32   H17   S    
C3    C5    A    
C35   O2    S    
C6    C7    A    
C1    O1    A    
C30   H9    S    
C8    C17   S    
C23   C41   A    
C32   C33   S    
C2    C3    A    
C32   H16   S    
C11   C13   A    
C5    C6    A    
C35   H22   S    
C2    C42   A    
C33   H18   S    
C7    C38   S    
C10   C11   A    
C3    H12   S    
C21   N2    A    
C31   O10   S    
C13   C16   S    
C27   C28   A    
C16   O6    A    
Cu1   N2    S    
C14   C15   S    
C19   N1    A    
Cu2   O7    S    
C22   H5    S    
