data_mof_unit_4451.cif
_audit_creation_date              2012-12-10T18:46:16-0500
_audit_creation_method            fapswitch 2.2
_symmetry_space_group_name_H-M    P1
_symmetry_Int_Tables_number       1
_space_group_crystal_system       triclinic
_cell_length_a                    9.873703
_cell_length_b                    10.607371
_cell_length_c                    13.086304
_cell_angle_alpha                 90.863624
_cell_angle_beta                  70.152258
_cell_angle_gamma                 90.504137
_cell_volume                      1289.01002956

loop_
_atom_site_label
_atom_site_type_symbol
_atom_type_description
_atom_site_fract_x
_atom_site_fract_y
_atom_site_fract_z
_atom_type_partial_charge
Br1   Br    Br    0.510697 0.843766 0.276899 -0.472202
Br2   Br    Br    0.228243 0.301511 0.337102 -0.475615
C1    C     C_R   0.499314 0.739784 0.502597 1.026111
C2    C     C_R   0.368536 0.471303 0.821095 -0.073803
C3    C     C_R   0.494189 0.939771 0.597960 0.424217
C4    C     C_R   0.420302 0.490507 0.703811 0.922573
C5    C     C_R   0.496300 0.069617 0.594655 -0.239590
C6    C     C_R   0.498815 0.128684 0.500130 -0.114904
C7    C     C_R   0.500773 0.062826 0.407240 -0.145756
C8    C     C_R   0.502533 0.933319 0.407741 0.223409
C9    C     C_R   0.499667 0.872548 0.502972 -0.243222
C10   C     C_R   0.956462 0.420415 0.433147 -0.059836
C11   C     C_R   0.099692 0.419668 0.433067 0.356544
C12   C     C_R   0.431495 0.455468 0.983573 0.107298
C13   C     C_R   0.042475 0.579293 0.567411 -0.055571
C14   C     C_R   0.898834 0.579037 0.567506 -0.026943
C15   C     C_R   0.500047 0.260483 0.498798 0.894295
C16   C     C_R   0.579883 0.498710 0.295548 0.903408
C17   C     C_R   0.783790 0.376523 0.015665 -0.096439
C18   C     C_R   0.627910 0.478721 0.178636 -0.033270
C19   C     C_R   0.228744 0.509266 0.883414 -0.137656
C20   C     C_R   0.187952 0.515161 0.995846 -0.151832
C21   C     C_R   0.289066 0.492199 0.045866 -0.123192
C22   C     C_R   0.463427 0.428133 0.872853 0.029007
C23   C     C_R   0.543385 0.446008 0.027347 0.030700
C24   C     C_R   0.676261 0.386800 0.967404 0.029003
C25   C     C_R   0.696252 0.339317 0.862000 0.377777
C26   C     C_R   0.589639 0.360179 0.816509 -0.271947
C27   C     C_R   0.527433 0.499420 0.128303 -0.138976
C28   C     C_R   0.758197 0.419671 0.121744 -0.231818
H1    H     H_    0.837508 0.402836 0.160315 0.162124
H2    H     H_    0.252192 0.500402 0.133354 0.149614
H3    H     H_    0.079678 0.543334 0.044059 0.158439
H4    H     H_    0.604864 0.321134 0.736719 0.190360
H5    H     H_    0.776825 0.136452 0.680107 0.371416
H6    H     H_    0.290739 0.772298 0.839228 0.387715
H7    H     H_    0.492514 0.125352 0.665685 0.170509
H8    H     H_    0.503176 0.112105 0.334636 0.193210
H9    H     H_    0.924562 0.356915 0.379835 0.154798
H10   H     H_    0.073046 0.642689 0.621448 0.167339
H11   H     H_    0.821289 0.642194 0.621725 0.194488
H12   H     H_    0.886127 0.332131 0.974041 0.211690
H13   H     H_    0.434350 0.555697 0.171210 0.171546
H14   H     H_    0.152630 0.538260 0.845192 0.191293
N1    N     N_R   0.142790 0.500030 0.500030 -0.102744
N2    N     N_R   0.857180 0.499940 0.500010 -0.106807
O1    O     O_R   0.385370 0.683250 0.500010 -0.591702
O2    O     O_2   0.878029 0.146542 0.842847 -0.262490
O3    O     O_3   0.842810 0.210059 0.662485 -0.521247
O4    O     O_2   0.596255 0.778669 0.710583 -0.306237
O5    O     O_2   0.464950 0.962318 0.809895 -0.281958
O6    O     O_3   0.318476 0.781561 0.759547 -0.576038
O7    O     O_R   0.614700 0.683220 0.500010 -0.592052
O8    O     O_R   0.328400 0.499990 0.653620 -0.592407
O9    O     O_R   0.557730 0.499960 0.653620 -0.597870
O10   O     O_R   0.385300 0.316780 0.499990 -0.555816
O11   O     O_R   0.614630 0.316750 0.499990 -0.626711
O12   O     O_R   0.442270 0.500040 0.346380 -0.590842
O13   O     O_R   0.671600 0.500010 0.346380 -0.630673
O14   O     O_2   0.981556 0.346271 0.760428 -0.297705
S1    S     S_3+6 0.854564 0.258824 0.782197 0.038284
S2    S     S_3+6 0.472326 0.865505 0.723003 0.029384
Zn1   Zn    Zn3+2 0.346870 0.500020 0.500000 1.056387
Zn2   Zn    Zn3+2 0.653130 0.499980 0.500000 1.002935

loop_
_geom_bond_atom_site_label_1
_geom_bond_atom_site_label_2
_ccdc_geom_bond_type
C12   C21   A    
H5    O3    S    
C19   H14   S    
C7    C8    A    
C6    C15   S    
H6    O6    S    
C17   H12   S    
C4    O9    A    
C21   H2    S    
C10   H9    S    
C15   O11   A    
O2    S1    D    
O10   Zn1   S    
C26   H4    S    
C5    C6    A    
C12   C23   A    
O6    S2    S    
C19   C20   A    
C27   H13   S    
C11   N1    A    
C2    C19   A    
C1    O7    A    
C15   O10   A    
C23   C27   A    
C24   C25   A    
O5    S2    D    
C4    O8    A    
C2    C22   A    
C1    O1    A    
C7    H8    S    
N1    Zn1   S    
C3    S2    S    
C3    C9    A    
C16   C18   S    
C18   C27   A    
O9    Zn2   S    
O1    Zn1   S    
C28   H1    S    
O4    S2    D    
O7    Zn2   S    
C13   H10   S    
O3    S1    S    
C8    C9    A    
C13   N1    A    
C12   C22   A    
C13   C14   A    
O13   Zn2   S    
C16   O13   A    
O12   Zn1   S    
Br2   C11   S    
C1    C9    S    
C10   C11   A    
O11   Zn2   S    
C2    C4    S    
O8    Zn1   S    
C14   N2    A    
C25   C26   A    
C3    C5    A    
C17   C24   A    
C20   C21   A    
C6    C7    A    
C18   C28   A    
C25   S1    S    
C23   C24   A    
C17   C28   A    
C14   H11   S    
C16   O12   A    
Br1   C8    S    
C22   C26   A    
N2    Zn2   S    
O14   S1    D    
C5    H7    S    
C10   N2    A    
C20   H3    S    
