data_mof_unit_3085.cif
_audit_creation_date              2012-12-11T14:39:37-0500
_audit_creation_method            fapswitch 2.2
_symmetry_space_group_name_H-M    P1
_symmetry_Int_Tables_number       1
_space_group_crystal_system       triclinic
_cell_length_a                    7.201309
_cell_length_b                    14.147748
_cell_length_c                    16.31578
_cell_angle_alpha                 89.99989
_cell_angle_beta                  97.13104
_cell_angle_gamma                 90.000136
_cell_volume                      1649.43118607

loop_
_atom_site_label
_atom_site_type_symbol
_atom_type_description
_atom_site_fract_x
_atom_site_fract_y
_atom_site_fract_z
_atom_type_partial_charge
O1    O     O_R   0.525340 0.338340 0.164530 -0.499999
O2    O     O_R   0.474660 0.661660 0.835470 -0.498977
O3    O     O_R   0.974660 0.838340 0.835470 -0.500014
O4    O     O_R   0.025340 0.161660 0.164530 -0.498986
O5    O     O_R   0.253520 0.352000 0.336710 -0.549337
O6    O     O_R   0.746480 0.648000 0.663290 -0.547590
O7    O     O_R   0.246480 0.852000 0.663290 -0.549334
O8    O     O_R   0.753520 0.148000 0.336710 -0.547590
O9    O     O_R   0.083330 0.168380 0.337300 -0.538064
O10   O     O_R   0.916670 0.831620 0.662700 -0.539729
O11   O     O_R   0.416670 0.668380 0.662700 -0.538066
O12   O     O_R   0.583330 0.331620 0.337300 -0.539721
C1    C     C_R   0.432254 0.368714 0.363767 0.670364
C2    C     C_R   0.567756 0.631332 0.636152 0.673774
C3    C     C_R   0.067746 0.868714 0.636233 0.670351
C4    C     C_R   0.932244 0.131332 0.363848 0.673778
O13   O     O_R   0.195840 0.349670 0.165140 -0.543686
O14   O     O_R   0.804160 0.650330 0.834860 -0.540798
O15   O     O_R   0.304160 0.849670 0.834860 -0.543672
O16   O     O_R   0.695840 0.150330 0.165140 -0.540798
C5    C     C_R   0.358602 0.373360 0.139066 0.755635
C6    C     C_R   0.642550 0.629939 0.863544 0.768749
C7    C     C_R   0.141398 0.873360 0.860933 0.755609
C8    C     C_R   0.857450 0.129940 0.136455 0.768710
O17   O     O_3   0.387830 0.193120 0.250910 -0.368243
O18   O     O_3   0.612170 0.806880 0.749090 -0.374527
O19   O     O_3   0.112170 0.693120 0.749090 -0.368243
O20   O     O_3   0.887830 0.306880 0.250910 -0.374523
V1    V     V_3+5 0.113010 0.264540 0.250910 1.457764
V2    V     V_3+5 0.886990 0.735460 0.749090 1.467734
V3    V     V_3+5 0.386990 0.764540 0.749090 1.457780
V4    V     V_3+5 0.613010 0.235460 0.250910 1.467756
H1    H     H_    0.777079 0.809142 0.267066 0.109484
H2    H     H_    0.220932 0.190789 0.733407 0.107268
H3    H     H_    0.722920 0.309142 0.732934 0.109482
H4    H     H_    0.279065 0.690789 0.266593 0.107265
C9    C     C_R   0.072161 0.195185 0.527882 -0.144458
C10   C     C_R   0.927748 0.804805 0.472359 -0.142347
C11   C     C_R   0.427838 0.695185 0.472118 -0.144458
C12   C     C_R   0.572252 0.304805 0.527641 -0.142347
C13   C     C_R   0.138778 0.227919 0.606610 -0.097796
C14   C     C_R   0.860573 0.772045 0.393721 -0.106523
C15   C     C_R   0.361220 0.727919 0.393390 -0.097795
C16   C     C_R   0.639427 0.272045 0.606279 -0.106521
C17   C     C_R   0.170169 0.164981 0.672247 -0.143238
C18   C     C_R   0.828454 0.834992 0.328140 -0.135593
C19   C     C_R   0.329829 0.664981 0.327753 -0.143245
C20   C     C_R   0.671545 0.334992 0.671860 -0.135595
C21   C     C_R   0.135402 0.068852 0.659583 -0.154852
C22   C     C_R   0.863345 0.931145 0.340741 -0.136418
C23   C     C_R   0.364596 0.568852 0.340417 -0.154836
C24   C     C_R   0.636655 0.431145 0.659258 -0.136420
C25   C     C_R   0.069359 0.033457 0.580091 0.069275
C26   C     C_R   0.930125 0.966569 0.420131 0.063522
C27   C     C_R   0.430640 0.533457 0.419909 0.069277
C28   C     C_R   0.569874 0.466569 0.579869 0.063524
C29   C     C_R   0.036883 0.097761 0.513004 0.053714
C30   C     C_R   0.962922 0.902259 0.487191 0.052833
C31   C     C_R   0.463116 0.597761 0.486996 0.053713
C32   C     C_R   0.537078 0.402260 0.512809 0.052830
C33   C     C_R   0.032554 0.935914 0.566964 -0.171516
C34   C     C_R   0.967319 0.064121 0.433188 -0.171982
C35   C     C_R   0.467446 0.435914 0.433036 -0.171517
C36   C     C_R   0.532680 0.564121 0.566812 -0.171980
H5    H     H_    0.047621 0.247264 0.479201 0.115064
H6    H     H_    0.952713 0.752720 0.521014 0.115795
H7    H     H_    0.452378 0.747264 0.520798 0.115065
H8    H     H_    0.547288 0.252720 0.478986 0.115793
H9    H     H_    0.165276 0.302600 0.616775 0.129565
H10   H     H_    0.834091 0.697353 0.383582 0.126256
H11   H     H_    0.334722 0.802600 0.383224 0.129566
H12   H     H_    0.665909 0.197353 0.616418 0.126253
H13   H     H_    0.159839 0.022920 0.712850 0.092962
H14   H     H_    0.838380 0.977084 0.287507 0.101013
H15   H     H_    0.340158 0.522920 0.287150 0.092974
H16   H     H_    0.661618 0.477084 0.712493 0.101009
C37   C     C_2   0.144434 0.945808 0.926615 -0.425163
C38   C     C_2   0.852305 0.064462 0.065327 -0.408700
C39   C     C_2   0.355568 0.445808 0.073383 -0.425158
C40   C     C_2   0.647693 0.564458 0.934672 -0.408720
C41   C     C_2   0.986382 0.983779 0.951359 0.382390
C42   C     C_2   0.999957 0.051963 0.021479 0.387629
C43   C     C_2   0.513622 0.483786 0.048647 0.382414
C44   C     C_2   0.500052 0.551971 0.978528 0.387615
H17   H     H_    0.722006 0.027001 0.047146 0.143476
H18   H     H_    0.280914 0.968205 0.956094 0.147214
H19   H     H_    0.777982 0.526987 0.952845 0.143450
H20   H     H_    0.219090 0.468199 0.043899 0.147191
O21   O     O_3   0.168194 0.098683 0.043513 -0.540817
C45   C     C_3   0.180166 0.174611 0.988387 -0.226182
H21   H     H_    0.182368 0.149470 0.923887 0.102144
H22   H     H_    0.313207 0.212898 0.006886 0.155120
H23   H     H_    0.063549 0.225722 0.991256 0.129481
O22   O     O_3   0.810249 0.956568 0.914796 -0.543589
C46   C     C_3   0.740338 0.027475 0.858455 -0.216526
H24   H     H_    0.720499 0.095568 0.890380 0.103067
H25   H     H_    0.601366 0.004847 0.827713 0.165267
H26   H     H_    0.833274 0.037738 0.809455 0.120150
O23   O     O_3   0.331830 0.598706 0.956501 -0.540813
C47   C     C_3   0.319866 0.674614 0.011648 -0.226177
H27   H     H_    0.317452 0.649437 0.076126 0.102188
H28   H     H_    0.186922 0.712972 0.993104 0.155129
H29   H     H_    0.436602 0.725676 0.008860 0.129421
O24   O     O_3   0.689748 0.456578 0.085220 -0.543576
C48   C     C_3   0.759705 0.527516 0.141517 -0.216649
H30   H     H_    0.779779 0.595542 0.109534 0.103166
H31   H     H_    0.898569 0.504836 0.172338 0.165313
H32   H     H_    0.666685 0.537921 0.190462 0.120075

loop_
_geom_bond_atom_site_label_1
_geom_bond_atom_site_label_2
_ccdc_geom_bond_type
O1    C5    A    
C12   C32   A    
C27   C31   A    
O13   V1    S    
O3    C7    A    
C46   H24   S    
C40   C44   D    
O15   V3    S    
C41   C42   S    
C46   H26   S    
C29   C34   A    
C48   H31   S    
C31   C36   A    
C22   C26   A    
C42   O21   S    
C32   C35   A    
O20   V1    S    
O9    C4    A    
C23   H15   S    
C10   C14   A    
C40   H19   S    
O10   C3    A    
C22   H14   S    
O16   V4    S    
O4    C8    A    
O11   C2    A    
C14   H10   S    
H4    C19   S    
C14   C18   A    
O10   V2    S    
O24   C48   S    
C10   C30   A    
C25   C33   A    
O16   C8    A    
C9    H5    S    
O2    C6    A    
C28   C36   A    
O14   V2    S    
C37   C41   D    
O5    C1    A    
O4    V1    S    
O9    V1    S    
C30   C33   A    
O7    C3    A    
O11   V3    S    
O18   V3    S    
O8    C4    A    
O12   V4    S    
O19   V2    S    
H1    C18   S    
C4    C34   S    
H3    C20   S    
C39   H20   S    
O5    V1    S    
C48   H32   S    
O7    V3    S    
C43   O24   S    
O8    V4    S    
C10   H6    S    
C25   C29   A    
C19   C23   A    
C26   C34   A    
C47   H29   S    
O13   C5    A    
C28   C32   A    
C27   C35   A    
O2    V3    S    
O3    V2    S    
O15   C7    A    
O6    C2    A    
C38   C42   D    
C45   H22   S    
C43   C44   S    
C1    C35   S    
C17   C21   A    
C11   C31   A    
C5    C39   S    
C47   H28   S    
C3    C33   S    
H2    C17   S    
C7    C37   S    
C2    C36   S    
C38   H17   S    
C8    C38   S    
O6    V2    S    
C37   H18   S    
C21   H13   S    
C45   H23   S    
C13   H9    S    
C26   C30   A    
C15   H11   S    
O14   C6    A    
C44   O23   S    
C11   H7    S    
C24   H16   S    
C11   C15   A    
C46   H25   S    
C48   H30   S    
C18   C22   A    
O23   C47   S    
C6    C40   S    
C39   C43   D    
C41   O22   S    
C45   H21   S    
O17   V4    S    
C21   C25   A    
C47   H27   S    
C16   H12   S    
C23   C27   A    
O1    V4    S    
C9    C13   A    
O22   C46   S    
C16   C20   A    
C12   C16   A    
O12   C1    A    
C12   H8    S    
C13   C17   A    
O21   C45   S    
C20   C24   A    
C15   C19   A    
C9    C29   A    
C24   C28   A    
