data_mof_unit_1844.cif
_audit_creation_date              2012-12-11T15:08:44-0500
_audit_creation_method            fapswitch 2.2
_symmetry_space_group_name_H-M    P1
_symmetry_Int_Tables_number       1
_space_group_crystal_system       triclinic
_cell_length_a                    19.412298
_cell_length_b                    11.343101
_cell_length_c                    18.695167
_cell_angle_alpha                 89.376973
_cell_angle_beta                  90.42753
_cell_angle_gamma                 89.900304
_cell_volume                      4116.22978176

loop_
_atom_site_label
_atom_site_type_symbol
_atom_type_description
_atom_site_fract_x
_atom_site_fract_y
_atom_site_fract_z
_atom_type_partial_charge
C1    C     C_R   0.272819 0.042336 0.854448 0.542392
C2    C     C_3   0.687454 0.530027 0.955958 -0.244115
C3    C     C_R   0.213978 0.509785 0.362049 0.534393
C4    C     C_R   0.467517 0.822520 0.644587 0.536678
C5    C     C_R   0.528350 0.821982 0.352578 0.535949
C6    C     C_R   0.967517 0.322520 0.644587 0.536667
C7    C     C_R   0.028351 0.321982 0.352578 0.535949
C8    C     C_R   0.270753 0.674453 0.636175 0.522299
C9    C     C_R   0.739157 0.640269 0.356289 0.565180
C10   C     C_R   0.770753 0.174453 0.636175 0.522305
C11   C     C_R   0.239157 0.140270 0.356290 0.565178
C12   C     C_3   0.480850 0.910607 0.035430 -0.102819
C13   C     C_3   0.812408 0.029310 0.044843 -0.243901
C14   C     C_3   0.517496 0.911054 0.963117 -0.100435
C15   C     C_3   0.980848 0.410607 0.035430 -0.102830
C16   C     C_3   0.017497 0.411054 0.963119 -0.100430
C17   C     C_3   0.431448 0.813638 0.008672 -0.145559
C18   C     C_3   0.568280 0.815991 0.991146 -0.144368
C19   C     C_3   0.931446 0.313640 0.008670 -0.145555
C20   C     C_3   0.068279 0.315988 0.991150 -0.144352
C21   C     C_3   0.469416 0.815193 0.936878 0.036542
C22   C     C_3   0.530294 0.816713 0.062983 0.037509
C23   C     C_3   0.969416 0.315195 0.936878 0.036557
C24   C     C_3   0.187452 0.030029 0.955958 -0.244119
C25   C     C_3   0.030290 0.316711 0.062985 0.037508
C26   C     C_2   0.137747 0.536990 0.894675 0.548696
C27   C     C_2   0.861757 0.535762 0.106434 0.549154
C28   C     C_2   0.637733 0.037062 0.894685 0.548719
C29   C     C_2   0.361756 0.035755 0.106435 0.549150
C30   C     C_2   0.342373 0.445859 0.578986 0.550622
C31   C     C_2   0.677745 0.422121 0.411203 0.529241
C32   C     C_2   0.842362 0.945849 0.578999 0.550632
C33   C     C_2   0.177747 0.922121 0.411204 0.529241
C34   C     C_3   0.323371 0.557390 0.964808 -0.263719
C35   C     C_3   0.676537 0.559336 0.035600 -0.262734
C36   C     C_3   0.823368 0.057387 0.964809 -0.263711
C37   C     C_3   0.176537 0.059335 0.035601 -0.262735
C38   C     C_3   0.179537 0.523097 0.024813 -0.222484
C39   C     C_3   0.820156 0.523136 0.976206 -0.222069
C40   C     C_3   0.679537 0.023107 0.024815 -0.222482
C41   C     C_R   0.727167 0.042939 0.145643 0.553664
C42   C     C_3   0.320154 0.023125 0.976207 -0.222066
C43   C     C_3   0.239934 0.706492 0.056462 -0.266453
C44   C     C_3   0.759752 0.706577 0.941678 -0.265435
C45   C     C_3   0.739941 0.206496 0.056468 -0.266453
C46   C     C_3   0.259756 0.206572 0.941680 -0.265445
C47   C     C_3   0.240619 0.574043 0.070068 0.039540
C48   C     C_3   0.759112 0.573906 0.929907 0.040928
C49   C     C_3   0.740621 0.074046 0.070070 0.039539
C50   C     C_3   0.259112 0.073902 0.929908 0.040930
C51   C     C_3   0.256337 0.610853 0.932440 0.030827
C52   C     C_R   0.772819 0.542338 0.854448 0.542386
C53   C     C_3   0.743665 0.612207 0.067383 0.031771
C54   C     C_3   0.756336 0.110862 0.932443 0.030825
C55   C     C_3   0.243665 0.112204 0.067384 0.031775
C56   C     C_3   0.198467 0.519897 0.944677 -0.060838
C57   C     C_3   0.801123 0.520129 0.056417 -0.059223
C58   C     C_3   0.698458 0.019919 0.944677 -0.060838
C59   C     C_3   0.301122 0.020123 0.056419 -0.059221
C60   C     C_3   0.238993 0.725468 0.974589 -0.244658
C61   C     C_3   0.761367 0.726166 0.023358 -0.246047
C62   C     C_3   0.738999 0.225477 0.974595 -0.244669
C63   C     C_R   0.227166 0.542938 0.145642 0.553667
C64   C     C_3   0.261370 0.226161 0.023359 -0.246048
C65   C     C_3   0.499098 0.695380 0.459457 -0.220879
C66   C     C_3   0.497602 0.697007 0.539755 -0.225402
C67   C     C_3   0.999098 0.195380 0.459457 -0.220876
C68   C     C_3   0.997603 0.197007 0.539755 -0.225401
C69   C     C_R   0.442626 0.815932 0.862290 0.533245
C70   C     C_R   0.557100 0.816850 0.137650 0.533689
C71   C     C_R   0.942627 0.315932 0.862290 0.533231
C72   C     C_R   0.057098 0.316850 0.137650 0.533690
C73   C     C_3   0.557586 0.901992 0.469354 -0.219009
C74   C     C_3   0.519265 0.719331 0.964462 -0.104572
C75   C     C_3   0.428511 0.891511 0.523875 -0.225542
C76   C     C_3   0.057587 0.401991 0.469354 -0.219009
C77   C     C_3   0.928512 0.391511 0.523875 -0.225543
C78   C     C_3   0.434939 0.878192 0.441259 -0.266678
C79   C     C_3   0.553595 0.890100 0.551559 -0.262886
C80   C     C_3   0.934939 0.378191 0.441259 -0.266679
C81   C     C_3   0.053596 0.390099 0.551559 -0.262890
C82   C     C_3   0.505182 0.823575 0.428353 0.054988
C83   C     C_3   0.486467 0.825337 0.567344 0.052600
C84   C     C_3   0.005183 0.323575 0.428353 0.054989
C85   C     C_3   0.481769 0.718820 0.036618 -0.102064
C86   C     C_3   0.986467 0.325337 0.567344 0.052602
C87   C     C_3   0.176247 0.632189 0.461932 -0.241909
C88   C     C_3   0.821062 0.641775 0.539543 -0.231961
C89   C     C_3   0.676247 0.132190 0.461932 -0.241906
C90   C     C_3   0.321061 0.141781 0.539545 -0.231957
C91   C     C_3   0.184979 0.655152 0.539805 -0.257023
C92   C     C_3   0.818544 0.646067 0.459942 -0.262985
C93   C     C_3   0.684978 0.155157 0.539804 -0.257024
C94   C     C_3   0.318544 0.146070 0.459943 -0.262984
C95   C     C_3   0.243010 0.446787 0.490245 -0.253475
C96   C     C_3   0.019263 0.219331 0.964463 -0.104567
C97   C     C_3   0.737205 0.462846 0.532126 -0.221614
C98   C     C_3   0.743008 0.946787 0.490245 -0.253478
C99   C     C_3   0.237207 0.962848 0.532126 -0.221612
C100  C     C_3   0.301131 0.617223 0.433236 -0.213725
C101  C     C_3   0.697660 0.663468 0.557704 -0.267272
C102  C     C_3   0.801133 0.117218 0.433238 -0.213728
C103  C     C_3   0.197658 0.163466 0.557704 -0.267271
C104  C     C_3   0.233172 0.548927 0.434973 0.032651
C105  C     C_3   0.757049 0.578743 0.571391 0.036348
C106  C     C_3   0.733172 0.048926 0.434974 0.032646
C107  C     C_3   0.981765 0.218820 0.036618 -0.102070
C108  C     C_3   0.257049 0.078745 0.571391 0.036349
C109  C     C_3   0.260230 0.625563 0.563464 0.028642
C110  C     C_3   0.746259 0.607607 0.432756 0.036507
C111  C     C_3   0.760229 0.125562 0.563465 0.028644
C112  C     C_3   0.246259 0.107609 0.432756 0.036505
C113  C     C_3   0.269413 0.489722 0.563319 -0.024103
C114  C     C_3   0.739610 0.475266 0.449097 -0.066400
C115  C     C_3   0.769406 0.989721 0.563322 -0.024104
C116  C     C_3   0.239612 0.975268 0.449097 -0.066400
C117  C     C_R   0.263341 0.644564 0.855680 0.562728
C118  C     C_3   0.312410 0.529314 0.044843 -0.243907
C119  C     C_R   0.736426 0.646241 0.143956 0.561115
C120  C     C_R   0.763343 0.144574 0.855683 0.562731
C121  C     C_R   0.236427 0.146238 0.143956 0.561116
C122  C     C_3   0.310371 0.676219 0.506094 -0.259792
C123  C     C_3   0.688123 0.671170 0.474966 -0.226971
C124  C     C_3   0.810372 0.176213 0.506096 -0.259786
C125  C     C_3   0.188122 0.171170 0.474966 -0.226968
C126  C     C_R   0.271513 0.047530 0.647385 0.543498
C127  C     C_R   0.713978 0.009785 0.362049 0.534394
C128  C     C_R   0.771513 0.547529 0.647384 0.543501
Cr1   Cr    Cr6+3 0.229620 0.836040 0.749110 1.031695
Cr2   Cr    Cr6+3 0.613980 0.676590 0.250790 1.046203
Cr3   Cr    Cr6+3 0.886020 0.176590 0.749210 1.056387
Cr4   Cr    Cr6+3 0.113980 0.176590 0.250790 1.046200
Cr5   Cr    Cr6+3 0.770380 0.836040 0.250890 1.034018
Cr6   Cr    Cr6+3 0.729620 0.336040 0.749110 1.031691
Cr7   Cr    Cr6+3 0.270380 0.336040 0.250890 1.034021
Cr8   Cr    Cr6+3 0.387630 0.990680 0.750730 1.032033
Cr9   Cr    Cr6+3 0.612370 0.990680 0.249270 1.028521
Cr10  Cr    Cr6+3 0.887630 0.490680 0.750730 1.032050
Cr11  Cr    Cr6+3 0.112370 0.490680 0.249270 1.028519
Cr12  Cr    Cr6+3 0.386020 0.676590 0.749210 1.056394
H1    H     H_    0.376864 0.803147 0.021683 0.110024
H2    H     H_    0.713356 0.745470 0.915879 0.138340
H3    H     H_    0.184450 0.938559 0.549226 0.175702
H4    H     H_    0.318067 0.434611 0.054662 0.140751
H5    H     H_    0.681917 0.435350 0.947992 0.138169
H6    H     H_    0.818063 0.934608 0.054661 0.140750
H7    H     H_    0.181910 0.935352 0.947990 0.138163
H8    H     H_    0.353744 0.571544 0.076956 0.129311
H9    H     H_    0.646138 0.571889 0.923012 0.129566
H10   H     H_    0.853745 0.071534 0.076955 0.129307
H11   H     H_    0.146138 0.071900 0.923013 0.129569
H12   H     H_    0.366667 0.619877 0.958237 0.137756
H13   H     H_    0.786045 0.245102 0.082178 0.137865
H14   H     H_    0.633463 0.622459 0.041107 0.137514
H15   H     H_    0.866667 0.119868 0.958237 0.137754
H16   H     H_    0.133463 0.122458 0.041110 0.137510
H17   H     H_    0.337943 0.475442 0.936377 0.130516
H18   H     H_    0.661605 0.477947 0.065394 0.132129
H19   H     H_    0.837935 0.975438 0.936376 0.130516
H20   H     H_    0.161604 0.977946 0.065394 0.132125
H21   H     H_    0.663458 0.938390 0.046966 0.073933
H22   H     H_    0.336293 0.938492 0.955401 0.075431
H23   H     H_    0.163458 0.438382 0.046969 0.073935
H24   H     H_    0.213361 0.245469 0.915881 0.138382
H25   H     H_    0.836300 0.438506 0.955399 0.075443
H26   H     H_    0.719606 0.932316 0.933061 0.103231
H27   H     H_    0.279589 0.932783 0.068980 0.105889
H28   H     H_    0.219627 0.432300 0.933077 0.103239
H29   H     H_    0.779592 0.432787 0.068976 0.105892
H30   H     H_    0.083833 0.474323 0.810633 0.357256
H31   H     H_    0.916042 0.470300 0.190362 0.356635
H32   H     H_    0.583818 0.974497 0.810614 0.357241
H33   H     H_    0.416043 0.970291 0.190360 0.356636
H34   H     H_    0.437711 0.410278 0.542504 0.336735
H35   H     H_    0.274301 0.795171 0.959128 0.094107
H36   H     H_    0.576711 0.379949 0.412325 0.340120
H37   H     H_    0.937705 0.910270 0.542534 0.336734
H38   H     H_    0.076713 0.879950 0.412325 0.340120
H39   H     H_    0.726453 0.796620 0.037754 0.092761
H40   H     H_    0.774302 0.295188 0.959132 0.094094
H41   H     H_    0.226456 0.296615 0.037755 0.092757
H42   H     H_    0.186173 0.753017 0.959603 0.181851
H43   H     H_    0.814371 0.753062 0.037569 0.179652
H44   H     H_    0.686177 0.253026 0.959614 0.181873
H45   H     H_    0.623013 0.807956 0.978068 0.111337
H46   H     H_    0.314373 0.253059 0.037572 0.179658
H47   H     H_    0.632970 0.079410 0.031687 0.162636
H48   H     H_    0.366688 0.079238 0.968654 0.161584
H49   H     H_    0.132968 0.579398 0.031677 0.162603
H50   H     H_    0.866687 0.579256 0.968655 0.161583
H51   H     H_    0.538377 0.632586 0.442526 0.171700
H52   H     H_    0.460393 0.630817 0.558764 0.180824
H53   H     H_    0.038377 0.132584 0.442526 0.171701
H54   H     H_    0.960395 0.130816 0.558765 0.180826
H55   H     H_    0.451302 0.653702 0.438908 0.134745
H56   H     H_    0.876861 0.303147 0.021674 0.110016
H57   H     H_    0.546527 0.661727 0.561076 0.121846
H58   H     H_    0.951302 0.153702 0.438908 0.134738
H59   H     H_    0.046528 0.161727 0.561076 0.121844
H60   H     H_    0.608317 0.889460 0.447283 0.106026
H61   H     H_    0.377425 0.870652 0.544198 0.101587
H62   H     H_    0.108318 0.389461 0.447283 0.106025
H63   H     H_    0.877426 0.370656 0.544199 0.101589
H64   H     H_    0.598729 0.841862 0.573696 0.113792
H65   H     H_    0.392870 0.823782 0.418762 0.114473
H66   H     H_    0.098729 0.341861 0.573697 0.113791
H67   H     H_    0.123012 0.307943 0.978076 0.111367
H68   H     H_    0.892870 0.323781 0.418763 0.114473
H69   H     H_    0.478452 0.995720 0.062238 0.185332
H70   H     H_    0.519060 0.995864 0.934666 0.187267
H71   H     H_    0.978450 0.495720 0.062239 0.185326
H72   H     H_    0.019067 0.495870 0.934676 0.187256
H73   H     H_    0.433014 0.964182 0.412923 0.116870
H74   H     H_    0.553187 0.978672 0.576408 0.119379
H75   H     H_    0.933015 0.464181 0.412923 0.116869
H76   H     H_    0.053188 0.478671 0.576409 0.119379
H77   H     H_    0.438242 0.984709 0.533916 0.128317
H78   H     H_    0.193969 0.749348 0.080262 0.143341
H79   H     H_    0.542664 0.993841 0.456200 0.126745
H80   H     H_    0.938245 0.484709 0.533915 0.128316
H81   H     H_    0.042664 0.493840 0.456201 0.126745
H82   H     H_    0.124027 0.602917 0.451188 0.124896
H83   H     H_    0.870553 0.607572 0.557168 0.146498
H84   H     H_    0.624027 0.102919 0.451188 0.124898
H85   H     H_    0.370553 0.107583 0.557170 0.146502
H86   H     H_    0.180507 0.714565 0.432306 0.204968
H87   H     H_    0.822538 0.732235 0.559710 0.175118
H88   H     H_    0.680509 0.214565 0.432305 0.204968
H89   H     H_    0.805455 0.749209 0.916846 0.143697
H90   H     H_    0.322534 0.232242 0.559710 0.175107
H91   H     H_    0.170734 0.748033 0.549140 0.158220
H92   H     H_    0.835926 0.734429 0.442513 0.168823
H93   H     H_    0.670736 0.248038 0.549138 0.158219
H94   H     H_    0.335927 0.234431 0.442512 0.168831
H95   H     H_    0.148098 0.600001 0.570585 0.139157
H96   H     H_    0.857814 0.587386 0.438084 0.114293
H97   H     H_    0.648096 0.100010 0.570584 0.139156
H98   H     H_    0.357814 0.087388 0.438086 0.114291
H99   H     H_    0.693289 0.912399 0.504769 0.074513
H100  H     H_    0.693980 0.249356 0.080271 0.143344
H101  H     H_    0.269666 0.893865 0.554431 0.084333
H102  H     H_    0.193291 0.412402 0.504772 0.074514
H103  H     H_    0.769663 0.393862 0.554430 0.084334
H104  H     H_    0.736028 0.952631 0.606478 0.107200
H105  H     H_    0.286039 0.929567 0.428940 0.088619
H106  H     H_    0.236042 0.452625 0.606478 0.107197
H107  H     H_    0.786038 0.429564 0.428940 0.088619
H108  H     H_    0.344840 0.557156 0.422012 0.188283
H109  H     H_    0.651300 0.628510 0.584435 0.122507
H110  H     H_    0.844841 0.057149 0.422016 0.188268
H111  H     H_    0.305461 0.249200 0.916849 0.143700
H112  H     H_    0.151300 0.128505 0.584435 0.122509
H113  H     H_    0.300203 0.684610 0.389333 0.136991
H114  H     H_    0.708302 0.750919 0.581060 0.114178
H115  H     H_    0.800207 0.184606 0.389335 0.136989
H116  H     H_    0.208299 0.250917 0.581062 0.114168
H117  H     H_    0.533982 0.638342 0.935607 0.134134
H118  H     H_    0.467685 0.637360 0.066364 0.135308
H119  H     H_    0.033980 0.138341 0.935609 0.134133
H120  H     H_    0.967679 0.137361 0.066364 0.135304
H121  H     H_    0.299532 0.766406 0.493271 0.090052
H122  H     H_    0.286035 0.745104 0.082173 0.137859
H123  H     H_    0.682208 0.758695 0.453166 0.088818
H124  H     H_    0.799537 0.266402 0.493274 0.090046
H125  H     H_    0.182208 0.258696 0.453168 0.088816
H126  H     H_    0.363100 0.669882 0.524636 0.151485
H127  H     H_    0.639896 0.627715 0.462676 0.174903
H128  H     H_    0.863101 0.169871 0.524640 0.151498
H129  H     H_    0.139896 0.127717 0.462675 0.174905
H130  H     H_    0.275657 0.378214 0.467821 0.147557
H131  H     H_    0.684447 0.438561 0.549226 0.175703
H132  H     H_    0.775658 0.878215 0.467824 0.147551
O1    O     O_R   0.214130 0.708570 0.829890 -0.469210
O2    O     O_R   0.542830 0.717300 0.331620 -0.522314
O3    O     O_R   0.957170 0.217300 0.668380 -0.522270
O4    O     O_R   0.042830 0.217300 0.331620 -0.522315
O5    O     O_R   0.320870 0.624890 0.673130 -0.458027
O6    O     O_R   0.679130 0.624890 0.326870 -0.465585
O7    O     O_R   0.820870 0.124890 0.673130 -0.458027
O8    O     O_R   0.179130 0.124890 0.326870 -0.465586
O9    O     O_3   0.334430 0.834430 0.749680 -0.321031
O10   O     O_3   0.665570 0.834430 0.250320 -0.323043
O11   O     O_3   0.834430 0.334430 0.749680 -0.321032
O12   O     O_R   0.785870 0.708570 0.170110 -0.471930
O13   O     O_3   0.165570 0.334430 0.250320 -0.323042
O14   O     O_R   0.236050 0.959150 0.825270 -0.513373
O15   O     O_R   0.763950 0.959150 0.174730 -0.510827
O16   O     O_R   0.736050 0.459150 0.825270 -0.513374
O17   O     O_R   0.263950 0.459150 0.174730 -0.510826
O18   O     O_R   0.332100 0.076650 0.832310 -0.517716
O19   O     O_R   0.667900 0.076650 0.167690 -0.513023
O20   O     O_R   0.832100 0.576650 0.832310 -0.517712
O21   O     O_R   0.167900 0.576650 0.167690 -0.513020
O22   O     O_R   0.446500 0.918620 0.826240 -0.504105
O23   O     O_R   0.714130 0.208570 0.829890 -0.469222
O24   O     O_R   0.553500 0.918620 0.173760 -0.504578
O25   O     O_R   0.946500 0.418620 0.826240 -0.504104
O26   O     O_R   0.053500 0.418620 0.173760 -0.504578
O27   O     O_R   0.457310 0.715830 0.831280 -0.511191
O28   O     O_R   0.542690 0.715830 0.168720 -0.512868
O29   O     O_R   0.957310 0.215830 0.831280 -0.511198
O30   O     O_R   0.042690 0.215830 0.168720 -0.512869
O31   O     O_R   0.321000 0.623520 0.824130 -0.514121
O32   O     O_R   0.679000 0.623520 0.175870 -0.514481
O33   O     O_R   0.821000 0.123520 0.824130 -0.514111
O34   O     O_R   0.285870 0.208570 0.170110 -0.471931
O35   O     O_R   0.179000 0.123520 0.175870 -0.514482
O36   O     O_R   0.213990 0.710040 0.667000 -0.522341
O37   O     O_R   0.786010 0.710040 0.333000 -0.535828
O38   O     O_R   0.713990 0.210040 0.667000 -0.522342
O39   O     O_R   0.286010 0.210040 0.333000 -0.535827
O40   O     O_R   0.235920 0.960520 0.674260 -0.523492
O41   O     O_R   0.764080 0.960520 0.325740 -0.505927
O42   O     O_R   0.735920 0.460520 0.674260 -0.523493
O43   O     O_R   0.264080 0.460520 0.325740 -0.505925
O44   O     O_R   0.331960 0.078120 0.669410 -0.506276
O45   O     O_R   0.446360 0.919990 0.675230 -0.506513
O46   O     O_R   0.668040 0.078120 0.330590 -0.496659
O47   O     O_R   0.831960 0.578120 0.669410 -0.506267
O48   O     O_R   0.168040 0.578120 0.330590 -0.496659
O49   O     O_2   0.103127 0.627224 0.896637 -0.535750
O50   O     O_R   0.123809 0.451590 0.843149 -0.703155
O51   O     O_2   0.896229 0.626017 0.104259 -0.535928
O52   O     O_R   0.876016 0.448646 0.157994 -0.698868
O53   O     O_2   0.603110 0.127291 0.896686 -0.535807
O54   O     O_R   0.623795 0.951724 0.843120 -0.703090
O55   O     O_2   0.396228 0.126010 0.104260 -0.535922
O56   O     O_R   0.553640 0.919990 0.324770 -0.520589
O57   O     O_R   0.376016 0.948637 0.157993 -0.698870
O58   O     O_2   0.356312 0.404523 0.638093 -0.499506
O59   O     O_R   0.392320 0.445375 0.525498 -0.762163
O60   O     O_2   0.684638 0.383941 0.350662 -0.499001
O61   O     O_R   0.613164 0.417085 0.443934 -0.757071
O62   O     O_2   0.856288 0.904498 0.638105 -0.499511
O63   O     O_R   0.892318 0.945374 0.525522 -0.762156
O64   O     O_2   0.184640 0.883939 0.350664 -0.499003
O65   O     O_R   0.113166 0.917087 0.443934 -0.757069
O66   O     O_R   0.946360 0.419990 0.675230 -0.506511
O67   O     O_R   0.053640 0.419990 0.324770 -0.520590
O68   O     O_R   0.457170 0.717300 0.668380 -0.522262

loop_
_geom_bond_atom_site_label_1
_geom_bond_atom_site_label_2
_ccdc_geom_bond_type
C55   C59   S    
C35   C53   S    
C35   H14   S    
C89   H84   S    
C126  O44   A    
C40   H47   S    
C17   C85   S    
C37   H20   S    
C99   H3    S    
C87   C91   S    
C81   H76   S    
C9    O37   A    
C92   H92   S    
Cr4   O4    S    
C100  C104  S    
C11   O39   A    
C73   H79   S    
C102  H115  S    
H30   O50   S    
Cr10  O11   S    
Cr6   O16   S    
Cr7   O13   S    
Cr6   O42   S    
C31   C114  S    
C81   C86   S    
Cr7   O39   S    
C97   C105  S    
C111  C124  S    
C60   H42   S    
C103  H116  S    
Cr4   O8    S    
C41   C49   S    
C1    O14   A    
Cr1   O40   S    
C41   O19   A    
C40   C58   S    
H37   O63   S    
C117  O1    A    
C27   C57   S    
C99   C116  S    
C94   H94   S    
C98   H99   S    
C106  C127  S    
C92   H96   S    
C17   C21   S    
Cr2   O28   S    
H31   O52   S    
C39   H25   S    
C19   C23   S    
C24   H11   S    
C110  C123  S    
C78   C82   S    
C114  H107  S    
C16   C20   S    
C128  O47   A    
C10   C111  S    
Cr7   O17   S    
C112  C125  S    
Cr8   O22   S    
Cr6   O38   S    
Cr7   O43   S    
H34   O59   S    
Cr9   O10   S    
C61   H39   S    
C9    O6    A    
Cr4   O35   S    
C11   O8    A    
C59   H27   S    
C25   C107  S    
C9    C110  S    
C33   C116  S    
C125  H125  S    
C11   C112  S    
C26   C56   S    
C43   H122  S    
C28   C58   S    
C98   C106  S    
C78   H65   S    
C5    C82   S    
C65   C82   S    
C96   H119  S    
C80   H68   S    
C14   C21   S    
C88   H87   S    
C48   C52   S    
C21   C69   S    
C124  H124  S    
C69   O22   A    
C108  C126  S    
C41   O15   A    
C43   C47   S    
C64   H46   S    
C44   C48   S    
C36   H15   S    
C30   C113  S    
C34   C118  S    
C55   C121  S    
Cr2   O6    S    
C67   H58   S    
Cr3   O11   S    
C8    O5    A    
H32   O54   S    
C99   C108  S    
C34   C51   S    
C12   H69   S    
C15   C25   S    
C127  O46   A    
C75   H77   S    
C40   C49   S    
C12   C22   S    
C45   C62   S    
C63   O21   A    
C22   C85   S    
C125  H129  S    
C26   O49   D    
C53   C61   S    
Cr4   O13   S    
H38   O65   S    
C93   H97   S    
C66   H52   S    
C120  O33   A    
C10   O7    A    
C110  C114  S    
C126  O40   A    
Cr9   O56   S    
C20   C96   S    
C19   H56   S    
C121  O35   A    
C32   O63   S    
C30   O59   S    
C37   H16   S    
C117  O31   A    
C79   H74   S    
C24   C50   S    
C10   O38   A    
Cr11  O26   S    
C7    O4    A    
C34   H12   S    
C33   O65   S    
C91   H91   S    
C3    O43   A    
C89   C106  S    
C44   H89   S    
C71   O25   A    
C6    O66   A    
C72   O30   A    
C28   O53   D    
C87   H86   S    
C24   C37   S    
C73   C79   S    
C42   C50   S    
C38   H23   S    
C127  O41   A    
C16   C23   S    
C43   H78   S    
C29   O57   S    
C89   H88   S    
C112  C116  S    
C122  H126  S    
C95   H130  S    
C27   O52   S    
Cr11  O67   S    
C18   C22   S    
Cr3   O29   S    
C101  H109  S    
C24   H7    S    
H36   O61   S    
C52   O16   A    
C42   H22   S    
C44   C61   S    
C18   H45   S    
C6    C86   S    
C90   C108  S    
Cr8   O18   S    
C88   C105  S    
C92   C110  S    
C98   C115  S    
C30   O58   D    
C94   C112  S    
C51   C117  S    
C74   C85   S    
C89   C93   S    
C58   H26   S    
C46   H111  S    
C36   C54   S    
C62   H44   S    
C115  H104  S    
C37   C55   S    
C34   H17   S    
C38   C56   S    
C79   H64   S    
C90   H90   S    
C68   H54   S    
C51   C60   S    
C20   H67   S    
C97   C114  S    
C22   C70   S    
Cr7   O34   S    
C81   H66   S    
C19   C107  S    
C2    C35   S    
Cr1   O1    S    
Cr5   O41   S    
C80   C84   S    
C76   C84   S    
C75   H61   S    
C2    H5    S    
C15   C19   S    
C68   H59   S    
C13   H10   S    
C54   C120  S    
C47   C63   S    
C20   C25   S    
Cr5   O10   S    
C73   H60   S    
C17   H1    S    
Cr10  O20   S    
C36   H19   S    
C66   C83   S    
C47   C118  S    
C12   C17   S    
C33   O64   D    
Cr2   O2    S    
C1    C50   S    
Cr3   O7    S    
Cr2   O32   S    
Cr3   O33   S    
Cr4   O30   S    
C102  C124  S    
C77   H63   S    
C78   H73   S    
Cr5   O37   S    
C90   C94   S    
C80   H75   S    
C32   O62   D    
C67   C68   S    
C23   C71   S    
H33   O57   S    
C53   C57   S    
Cr12  O27   S    
C97   H131  S    
C54   C62   S    
C93   H93   S    
C42   C59   S    
C100  H108  S    
C45   C49   S    
C38   H49   S    
C88   C92   S    
C3    O48   A    
Cr8   O9    S    
C93   C111  S    
C96   C107  S    
C76   H81   S    
C45   H13   S    
C100  H113  S    
C73   C82   S    
Cr11  O48   S    
C77   C80   S    
C42   H48   S    
Cr12  O5    S    
Cr9   O24   S    
C71   O29   A    
C72   O26   A    
C122  H121  S    
C119  O12   A    
Cr5   O12   S    
C8    O36   A    
C98   H132  S    
C118  H8    S    
C101  H114  S    
C35   H18   S    
C40   H21   S    
C79   C83   S    
C75   C83   S    
C4    C83   S    
C128  O42   A    
C124  H128  S    
C1    O18   A    
C31   O61   S    
C32   C115  S    
C95   H102  S    
C87   C104  S    
C26   O50   S    
C123  H127  S    
C44   H2    S    
C69   O27   A    
C60   H35   S    
C70   O28   A    
C5    O2    A    
C4    O45   A    
C15   C16   S    
C39   C48   S    
C65   H55   S    
C3    C104  S    
C121  O34   A    
C91   H95   S    
C68   C86   S    
C14   C18   S    
C90   H85   S    
C4    O68   A    
Cr12  O9    S    
Cr8   O44   S    
C2    C48   S    
C101  C123  S    
C103  H112  S    
Cr1   O14   S    
C118  H4    S    
C62   H40   S    
Cr1   O36   S    
C76   H62   S    
C109  C122  S    
C113  H106  S    
C39   C57   S    
C23   C96   S    
Cr11  O13   S    
C51   C56   S    
Cr9   O19   S    
Cr6   O23   S    
C15   H71   S    
C94   H98   S    
C28   O54   S    
C29   C59   S    
C123  H123  S    
Cr5   O15   S    
C103  C108  S    
C70   O24   A    
C85   H118  S    
Cr10  O47   S    
C109  C113  S    
C2    H9    S    
C7    C84   S    
C67   C84   S    
C18   C74   S    
C46   H24   S    
C31   O60   D    
C13   H6    S    
C52   O20   A    
C103  C125  S    
C57   H29   S    
C101  C105  S    
C61   H43   S    
C27   O51   D    
C14   H70   S    
C87   H82   S    
C65   H51   S    
C16   H72   S    
Cr12  O68   S    
C13   C36   S    
Cr11  O21   S    
C39   H50   S    
C21   C74   S    
C46   C64   S    
C107  H120  S    
C29   O55   D    
C99   H101  S    
C7    O67   A    
Cr3   O3    S    
C97   H103  S    
Cr8   O45   S    
C55   C64   S    
C56   H28   S    
C88   H83   S    
C25   C72   S    
Cr10  O25   S    
Cr1   O9    S    
C6    O3    A    
C38   C47   S    
C43   C60   S    
Cr12  O31   S    
C13   C49   S    
C64   H41   S    
C12   C14   S    
C77   C86   S    
C5    O56   A    
C119  O32   A    
Cr9   O46   S    
C95   C104  S    
C54   C58   S    
C74   H117  S    
C105  C128  S    
C102  H110  S    
Cr10  O66   S    
C120  O23   A    
C76   C81   S    
C53   C119  S    
C77   H80   S    
C46   C50   S    
Cr6   O11   S    
C91   C109  S    
C45   H100  S    
Cr2   O10   S    
C8    C109  S    
C95   C113  S    
C102  C106  S    
C100  C122  S    
C75   C78   S    
C66   H57   S    
C116  H105  S    
C65   C66   S    
C63   O17   A    
C111  C115  S    
C67   H53   S    
