data_mof_unit_392.cif
_audit_creation_date              2012-12-11T14:50:36-0500
_audit_creation_method            fapswitch 2.2
_symmetry_space_group_name_H-M    P1
_symmetry_Int_Tables_number       1
_space_group_crystal_system       triclinic
_cell_length_a                    10.887945
_cell_length_b                    10.904781
_cell_length_c                    18.81769
_cell_angle_alpha                 90.329787
_cell_angle_beta                  89.747289
_cell_angle_gamma                 60.269807
_cell_volume                      1940.04473728

loop_
_atom_site_label
_atom_site_type_symbol
_atom_type_description
_atom_site_fract_x
_atom_site_fract_y
_atom_site_fract_z
_atom_type_partial_charge
C1    C     C_R   0.237682 0.646108 0.610109 0.538337
C2    C     C_3   0.666816 0.553988 0.800278 -0.249625
C3    C     C_3   0.699685 0.674495 0.811939 0.050387
C4    C     C_3   0.669624 0.647828 0.676441 0.056160
C5    C     C_3   0.817847 0.628713 0.689996 -0.247329
C6    C     C_3   0.651071 0.536784 0.720352 -0.211445
C7    C     C_R   0.789212 0.138750 0.708270 -0.156335
C8    C     C_R   0.806708 0.119426 0.781697 -0.147132
C9    C     C_R   0.687675 0.163201 0.826136 0.020131
C10   C     C_R   0.552080 0.233666 0.797301 -0.143092
C11   C     C_R   0.535387 0.247389 0.724824 -0.138540
C12   C     C_R   0.653591 0.622211 0.601116 0.540315
C13   C     C_R   0.653133 0.198350 0.679489 0.021507
C14   C     C_R   0.187510 0.555925 0.721408 -0.158739
C15   C     C_R   0.177797 0.560511 0.795306 -0.155559
C16   C     C_R   0.174892 0.673373 0.833125 0.026858
C17   C     C_R   0.191039 0.776027 0.796631 -0.149177
C18   C     C_R   0.198352 0.772698 0.723548 -0.147176
C19   C     C_R   0.197772 0.662277 0.685084 0.028058
C20   C     C_R   0.735369 0.526883 0.272175 -0.126316
C21   C     C_R   0.733365 0.538233 0.199378 -0.128812
C22   C     C_R   0.650729 0.669618 0.167517 0.030894
C23   C     C_R   0.625581 0.233041 0.604472 0.538451
C24   C     C_R   0.556801 0.786263 0.209389 -0.129788
C25   C     C_R   0.554399 0.773207 0.283116 -0.132571
C26   C     C_R   0.647875 0.644217 0.314984 0.035059
C27   C     C_R   0.553847 0.142077 0.290133 -0.138215
C28   C     C_R   0.553135 0.135893 0.217316 -0.141798
C29   C     C_R   0.654094 0.150678 0.177805 0.041312
C30   C     C_R   0.756003 0.172113 0.212059 -0.143596
C31   C     C_R   0.756222 0.179144 0.285344 -0.143212
C32   C     C_R   0.651513 0.169788 0.324379 0.037367
C33   C     C_R   0.089795 0.803893 0.305008 -0.146740
C34   C     C_R   0.218139 0.650107 0.402825 0.552810
C35   C     C_R   0.072048 0.814648 0.232848 -0.153983
C36   C     C_R   0.106680 0.694193 0.191050 0.075034
C37   C     C_R   0.146245 0.564285 0.223382 0.081842
C38   C     C_R   0.165696 0.553800 0.296469 -0.121603
C39   C     C_R   0.146436 0.671766 0.336143 0.011243
C40   C     C_R   0.701924 0.103629 0.896646 0.541793
C41   C     C_R   0.723999 0.688356 0.887903 0.541843
C42   C     C_R   0.117913 0.706548 0.905294 0.542762
C43   C     C_R   0.674987 0.106239 0.104507 0.548872
C44   C     C_R   0.693745 0.689522 0.096971 0.545111
C45   C     C_R   0.640279 0.619964 0.390616 0.549509
C46   C     C_R   0.082387 0.715208 0.115622 0.577833
C47   C     C_R   0.618946 0.226372 0.395633 0.549583
C48   C     C_3   0.575313 0.813872 0.781954 -0.229625
C49   C     C_3   0.556973 0.797629 0.702098 -0.241238
C50   C     C_3   0.836484 0.641368 0.769972 -0.221109
Cr1   Cr    Cr6+3 0.392930 0.397900 0.502230 1.007404
Cr2   Cr    Cr6+3 0.398240 0.708600 0.501260 1.009795
Cr3   Cr    Cr6+3 0.708800 0.393470 0.496460 1.006846
Cr4   Cr    Cr6+3 0.937620 0.938540 0.007640 1.008795
Cr5   Cr    Cr6+3 0.625150 0.937450 0.994520 1.011439
Cr6   Cr    Cr6+3 0.937990 0.625080 0.001190 1.030907
H1    H     H_    0.596542 0.902939 0.789933 0.150110
H2    H     H_    0.731841 0.427930 0.703810 0.147894
H3    H     H_    0.926571 0.539933 0.788353 0.134902
H4    H     H_    0.902046 0.523465 0.670625 0.133948
H5    H     H_    0.881007 0.104507 0.674107 0.120299
H6    H     H_    0.912603 0.063271 0.803044 0.131220
H7    H     H_    0.458728 0.269037 0.830509 0.129566
H8    H     H_    0.429189 0.297524 0.704247 0.138242
H9    H     H_    0.187723 0.469351 0.692843 0.114618
H10   H     H_    0.165428 0.479969 0.822456 0.120241
H11   H     H_    0.189263 0.864528 0.824060 0.126574
H12   H     H_    0.475162 0.841179 0.810635 0.121647
H13   H     H_    0.207459 0.856091 0.697444 0.125763
H14   H     H_    0.805578 0.424768 0.294742 0.128044
H15   H     H_    0.805434 0.445831 0.168447 0.126783
H16   H     H_    0.491314 0.888489 0.185708 0.123406
H17   H     H_    0.482235 0.863708 0.315084 0.118088
H18   H     H_    0.472477 0.133301 0.319239 0.124748
H19   H     H_    0.475896 0.115167 0.192265 0.122603
H20   H     H_    0.837546 0.179491 0.182365 0.114230
H21   H     H_    0.833922 0.198205 0.311135 0.115799
H22   H     H_    0.070672 0.896592 0.335372 0.132485
H23   H     H_    0.448641 0.815209 0.693010 0.138002
H24   H     H_    0.033487 0.917969 0.209797 0.141798
H25   H     H_    0.207103 0.450995 0.320727 0.133070
H26   H     H_    0.567682 0.879277 0.671813 0.121431
H27   H     H_    0.863727 0.725908 0.779646 0.131732
H28   H     H_    0.830712 0.710251 0.660861 0.116610
H29   H     H_    0.753241 0.453217 0.821790 0.132538
H30   H     H_    0.567342 0.578028 0.828704 0.120328
H31   H     H_    0.545234 0.548008 0.710259 0.130258
O1    O     O_R   0.507430 0.255570 0.581420 -0.527721
O2    O     O_R   0.524460 0.695920 0.424060 -0.500251
O3    O     O_R   0.736530 0.504260 0.414810 -0.527430
O4    O     O_R   0.691460 0.277160 0.422180 -0.508809
O5    O     O_3   0.499990 0.499990 0.499980 -0.244968
O6    O     O_R   0.089490 0.825610 0.930610 -0.525886
O7    O     O_R   0.818370 0.054540 0.929880 -0.505175
O8    O     O_R   0.605870 0.077310 0.915530 -0.526063
O9    O     O_R   0.646440 0.806700 0.917570 -0.509475
O10   O     O_R   0.837200 0.593290 0.915250 -0.529029
O11   O     O_R   0.065330 0.635370 0.931590 -0.507985
O12   O     O_R   0.280190 0.527390 0.578910 -0.510006
O13   O     O_R   0.068300 0.828790 0.091860 -0.541706
O14   O     O_R   0.798730 0.057480 0.079370 -0.512342
O15   O     O_R   0.584680 0.080480 0.076790 -0.523288
O16   O     O_R   0.626790 0.809640 0.067050 -0.505421
O17   O     O_R   0.816010 0.596460 0.076500 -0.515776
O18   O     O_R   0.045680 0.638310 0.081070 -0.459681
O19   O     O_3   0.833590 0.833690 0.001120 -0.253338
O20   O     O_R   0.260310 0.739740 0.584580 -0.531950
O21   O     O_R   0.532250 0.695150 0.573830 -0.509162
O22   O     O_R   0.744930 0.503430 0.576380 -0.527755
O23   O     O_R   0.699250 0.276390 0.571950 -0.506853
O24   O     O_R   0.499020 0.256400 0.419850 -0.526638
O25   O     O_R   0.272400 0.528160 0.429140 -0.507651
O26   O     O_R   0.251910 0.740570 0.423020 -0.519306
N1    N     N_3   0.172955 0.442440 0.182269 -0.605659
H32   H     H_    0.107200 0.405415 0.201563 0.223589
H33   H     H_    0.277631 0.364210 0.190605 0.223254

loop_
_geom_bond_atom_site_label_1
_geom_bond_atom_site_label_2
_ccdc_geom_bond_type
Cr3   O23   S    
Cr1   O25   S    
C42   O6    A    
C34   O25   A    
C3    C48   S    
Cr4   O14   S    
C35   C36   A    
Cr6   O11   S    
Cr4   O13   S    
C1    O12   A    
N1    H32   S    
C44   O17   A    
C7    C8    A    
Cr2   O26   S    
C34   O26   A    
Cr5   O15   S    
C33   C39   A    
C21   H15   S    
C50   H3    S    
C36   C37   A    
C42   O11   A    
C38   C39   A    
C33   H22   S    
C41   O9    A    
C15   C16   A    
C46   O18   A    
Cr5   O16   S    
C35   H24   S    
C13   C23   S    
C2    H29   S    
C18   C19   A    
C6    H2    S    
C7    H5    S    
Cr4   O6    S    
C26   C45   S    
C44   O16   A    
C22   C44   S    
C10   H7    S    
Cr2   O20   S    
C8    C9    A    
Cr3   O4    S    
C36   C46   S    
C4    C12   S    
C29   C30   A    
C45   O2    A    
C9    C10   A    
C25   H17   S    
C18   H13   S    
C21   C22   A    
C29   C43   S    
C20   H14   S    
Cr2   O2    S    
C2    C6    S    
Cr6   O10   S    
C12   O22   A    
C3    C50   S    
C50   H27   S    
C31   H21   S    
Cr1   O12   S    
C17   H11   S    
C1    C19   S    
Cr4   O19   S    
Cr5   O19   S    
C34   C39   S    
C48   H1    S    
C24   C25   A    
Cr6   O17   S    
Cr5   O8    S    
C11   H8    S    
C12   O21   A    
C5    H28   S    
C16   C17   A    
C37   N1    S    
C25   C26   A    
C15   H10   S    
C9    C40   S    
C6    H31   S    
C49   H23   S    
C49   H26   S    
C43   O14   A    
C37   C38   A    
Cr1   O5    S    
C30   H20   S    
C31   C32   A    
C7    C13   A    
Cr3   O5    S    
C17   C18   A    
C48   H12   S    
C45   O3    A    
Cr6   O19   S    
C1    O20   A    
C4    C6    S    
C48   C49   S    
C23   O1    A    
C38   H25   S    
C32   C47   S    
C41   O10   A    
C5    C50   S    
Cr2   O5    S    
C40   O8    A    
C27   H18   S    
C16   C42   S    
Cr3   O3    S    
C24   H16   S    
Cr3   O22   S    
C23   O23   A    
C46   O13   A    
C28   C29   A    
Cr1   O24   S    
C5    H4    S    
C27   C32   A    
C47   O4    A    
C14   C19   A    
C40   O7    A    
Cr5   O9    S    
Cr1   O1    S    
N1    H33   S    
C4    C49   S    
C2    C3    S    
C43   O15   A    
C11   C13   A    
C30   C31   A    
C20   C26   A    
C47   O24   A    
C33   C35   A    
C14   H9    S    
C2    H30   S    
C22   C24   A    
Cr6   O18   S    
Cr4   O7    S    
C3    C41   S    
C10   C11   A    
C4    C5    S    
C20   C21   A    
Cr2   O21   S    
C27   C28   A    
C14   C15   A    
C28   H19   S    
C8    H6    S    
