data_mof_unit_3449.cif
_audit_creation_date              2012-12-10T17:27:48-0500
_audit_creation_method            fapswitch 2.2
_symmetry_space_group_name_H-M    P1
_symmetry_Int_Tables_number       1
_space_group_crystal_system       triclinic
_cell_length_a                    10.637975
_cell_length_b                    12.009223
_cell_length_c                    12.871337
_cell_angle_alpha                 93.581061
_cell_angle_beta                  90.957737
_cell_angle_gamma                 86.621002
_cell_volume                      1638.1583301

loop_
_atom_site_label
_atom_site_type_symbol
_atom_type_description
_atom_site_fract_x
_atom_site_fract_y
_atom_site_fract_z
_atom_type_partial_charge
C1    C     C_R   0.495914 0.522239 0.700458 1.000524
C2    C     C_R   0.443749 0.636267 0.862867 0.602035
C3    C     C_R   0.523718 0.442196 0.867906 -0.292553
C4    C     C_R   0.739491 0.501183 0.505513 0.967016
C5    C     C_R   0.512319 0.448070 0.974257 0.159063
C6    C     C_R   0.466813 0.549278 0.025754 0.077766
C7    C     C_R   0.458558 0.555999 0.132462 -0.235373
C8    C     C_R   0.539538 0.362383 0.137329 -0.176865
C9    C     C_R   0.546659 0.354428 0.029876 -0.181708
C10   C     C_R   0.385114 0.953204 0.400222 -0.260351
C11   C     C_R   0.395744 0.837510 0.409890 -0.030264
C12   C     C_R   0.940364 0.469578 0.602513 -0.031846
C13   C     C_R   0.550072 0.857959 0.544310 0.262756
C14   C     C_R   0.542582 0.976084 0.537317 -0.022290
C15   C     C_R   0.458669 0.023648 0.463983 -0.044305
C16   C     C_R   0.499953 0.477778 0.299612 0.866124
C17   C     C_R   0.450643 0.140895 0.456473 0.706521
C18   C     C_R   0.604477 0.163365 0.590381 -0.077835
C19   C     C_R   0.615809 0.047789 0.600783 -0.324491
C20   C     C_R   0.260550 0.499729 0.500805 0.849827
C21   C     C_R   0.882701 0.440311 0.694880 0.558774
C22   C     C_R   0.955424 0.409998 0.780971 -0.239631
C23   C     C_R   0.872004 0.503376 0.513162 -0.079272
C24   C     C_R   0.086711 0.409269 0.778289 0.090840
C25   C     C_R   0.144425 0.438261 0.688095 -0.175226
C26   C     C_R   0.072319 0.468239 0.599658 -0.010542
C27   C     C_R   0.930644 0.539083 0.426390 -0.224582
C28   C     C_R   0.059042 0.537628 0.424175 -0.181862
C29   C     C_R   0.128637 0.500390 0.508715 -0.021688
C30   C     C_R   0.497915 0.463932 0.188227 -0.046268
C31   C     C_R   0.489220 0.535454 0.811965 -0.187352
C32   C     C_R   0.432567 0.642849 0.970109 -0.303249
F1    F     F_    0.407642 0.727012 0.809435 -0.659015
F2    F     F_    0.370581 0.188440 0.386619 -0.666130
F3    F     F_    0.756424 0.443716 0.704979 -0.708718
H1    H     H_    0.876638 0.565717 0.359165 0.148764
H2    H     H_    0.104599 0.563739 0.355686 0.140619
H3    H     H_    0.423972 0.633941 0.172112 0.155652
H4    H     H_    0.569561 0.290665 0.180472 0.173865
H5    H     H_    0.397376 0.720615 0.009489 0.173432
H6    H     H_    0.725610 0.824445 0.601711 0.162541
H7    H     H_    0.610065 0.836990 0.692255 0.207185
H8    H     H_    0.106468 0.358811 0.927102 0.189865
H9    H     H_    0.209229 0.450513 0.893444 0.191211
H10   H     H_    0.580936 0.276316 0.990597 0.143494
H11   H     H_    0.559638 0.364379 0.828841 0.205061
H12   H     H_    0.660911 0.217986 0.639390 0.190057
H13   H     H_    0.319822 0.987004 0.343192 0.199640
H14   H     H_    0.681568 0.015835 0.658242 0.163519
H15   H     H_    0.338988 0.783496 0.360552 0.136112
H16   H     H_    0.908775 0.388465 0.850515 0.162081
H17   H     H_    0.245953 0.438596 0.689028 0.151887
N1    N     N_R   0.523130 0.207800 0.519340 -0.149280
N2    N     N_R   0.476870 0.792180 0.480660 -0.093725
N3    N     N_3   0.633483 0.805172 0.617174 -0.380635
N4    N     N_3   0.163143 0.379570 0.866422 -0.433630
O1    O     O_R   0.506170 0.421690 0.658830 -0.618583
O2    O     O_R   0.491330 0.609320 0.646410 -0.551177
O3    O     O_R   0.690660 0.406170 0.506210 -0.595880
O4    O     O_R   0.675810 0.593790 0.493790 -0.618044
O5    O     O_R   0.508670 0.390680 0.353590 -0.581955
O6    O     O_R   0.493830 0.578310 0.341170 -0.644620
O7    O     O_R   0.324190 0.406210 0.506210 -0.579336
O8    O     O_R   0.309340 0.593830 0.493790 -0.625524
Zn1   Zn    Zn3+2 0.509910 0.374720 0.508290 1.023185
Zn2   Zn    Zn3+2 0.490090 0.625280 0.491710 0.994389

loop_
_geom_bond_atom_site_label_1
_geom_bond_atom_site_label_2
_ccdc_geom_bond_type
C20   O8    A    
C6    C32   A    
O7    Zn1   S    
C1    O2    A    
C9    H10   S    
C6    C7    A    
C21   F3    S    
C8    H4    S    
C1    O1    A    
C27   H1    S    
C24   N4    S    
C17   N1    A    
N1    Zn1   S    
H9    N4    S    
C3    H11   S    
C10   C15   A    
C8    C30   A    
C18   H12   S    
C4    O4    A    
C20   O7    A    
C25   H17   S    
O4    Zn2   S    
C7    C30   A    
C21   C22   A    
O3    Zn1   S    
C3    C31   A    
C12   C23   A    
C10   C11   A    
C5    C9    A    
C11   N2    A    
C16   O6    A    
C28   H2    S    
N2    Zn2   S    
C12   C21   A    
C4    O3    A    
C28   C29   A    
C7    H3    S    
C13   N2    A    
C23   C27   A    
C20   C29   S    
C32   H5    S    
C10   H13   S    
C5    C6    A    
H7    N3    S    
C22   C24   A    
C22   H16   S    
C17   F2    S    
O6    Zn2   S    
C16   C30   S    
C11   H15   S    
O5    Zn1   S    
H8    N4    S    
C1    C31   S    
C24   C25   A    
C2    F1    S    
C26   C29   A    
C2    C32   A    
C18   C19   A    
C16   O5    A    
O1    Zn1   S    
C27   C28   A    
C15   C17   A    
C4    C23   S    
C19   H14   S    
C14   C15   A    
C2    C31   A    
C18   N1    A    
C3    C5    A    
C25   C26   A    
C13   C14   A    
C14   C19   A    
O2    Zn2   S    
H6    N3    S    
C12   C26   A    
C8    C9    A    
C13   N3    S    
O8    Zn2   S    
