data_mof_unit_4954.cif
_audit_creation_date              2012-12-11T15:30:39-0500
_audit_creation_method            fapswitch 2.2
_symmetry_space_group_name_H-M    P1
_symmetry_Int_Tables_number       1
_space_group_crystal_system       triclinic
_cell_length_a                    6.950371
_cell_length_b                    20.449046
_cell_length_c                    24.413613
_cell_angle_alpha                 89.764183
_cell_angle_beta                  90.525476
_cell_angle_gamma                 89.483594
_cell_volume                      3469.551687

loop_
_atom_site_label
_atom_site_type_symbol
_atom_type_description
_atom_site_fract_x
_atom_site_fract_y
_atom_site_fract_z
_atom_type_partial_charge
O1    O     O_R   0.507310 0.423620 0.460450 -0.536396
O2    O     O_R   0.170760 0.556060 0.437190 -0.531988
O3    O     O_R   0.004040 0.576380 0.539550 -0.533417
C1    C     C_R   0.338741 0.576231 0.421267 0.727673
O4    O     O_R   0.177350 0.422870 0.454070 -0.538322
O5    O     O_R   0.010680 0.442240 0.556560 -0.537331
C2    C     C_R   0.346079 0.398899 0.443322 0.692298
O6    O     O_R   0.500670 0.557760 0.443440 -0.533747
O7    O     O_3   0.340380 0.506510 0.533610 -0.369920
V1    V     V_3+5 0.064130 0.498790 0.493770 1.442581
O8    O     O_R   0.681170 0.443940 0.562810 -0.539508
C3    C     C_R   0.850936 0.423881 0.578691 0.720082
O9    O     O_R   0.674570 0.577130 0.545930 -0.543447
C4    C     C_R   0.842777 0.601217 0.556406 0.738357
V2    V     V_3+5 0.564560 0.501210 0.506230 1.426761
O10   O     O_3   0.838170 0.493490 0.466390 -0.364540
C5    C     C_R   0.975133 0.838295 0.910993 -0.043500
C6    C     C_R   0.848421 0.662694 0.587848 -0.058544
C7    C     C_R   0.023325 0.721307 0.906308 -0.149466
C8    C     C_R   0.019407 0.778833 0.936533 -0.166749
C9    C     C_R   0.935567 0.840026 0.854401 -0.214002
C10   C     C_R   0.941632 0.781986 0.822251 0.086120
C11   C     C_R   0.985820 0.722322 0.849706 0.133988
C12   C     C_R   0.907445 0.780965 0.764080 0.056842
C13   C     C_R   0.917058 0.720239 0.734722 0.069763
C14   C     C_R   0.960694 0.662624 0.764532 -0.187665
C15   C     C_R   0.994123 0.663859 0.820649 -0.196454
C16   C     C_R   0.864902 0.838618 0.734241 -0.187646
C17   C     C_R   0.832600 0.837418 0.678084 -0.187598
C18   C     C_R   0.840293 0.778914 0.649028 0.104286
C19   C     C_R   0.882636 0.719239 0.676540 0.091448
C20   C     C_R   0.804221 0.780111 0.592373 -0.192231
C21   C     C_R   0.806349 0.722440 0.561625 0.197662
C22   C     C_R   0.886988 0.661199 0.644504 -0.276203
H1    H     H_    0.027811 0.618253 0.841591 0.131493
H2    H     H_    0.916489 0.613790 0.662196 0.104051
H3    H     H_    0.800260 0.883111 0.657112 0.122383
H4    H     H_    0.057804 0.675781 0.927234 0.129029
H5    H     H_    0.051659 0.777018 0.980026 0.110050
H6    H     H_    0.903958 0.887399 0.836922 0.091356
H7    H     H_    0.971110 0.615259 0.745698 0.123724
H8    H     H_    0.855386 0.886019 0.753053 0.119664
H9    H     H_    0.771950 0.826218 0.572047 0.116469
C23   C     C_3   0.765289 0.257881 0.802089 -0.323014
C24   C     C_3   0.118771 0.245722 0.783414 -0.329048
C25   C     C_3   0.099032 0.295408 0.735163 -0.328381
H10   H     H_    0.766161 0.358036 0.769436 0.144190
H11   H     H_    0.795433 0.284764 0.840723 0.148644
H12   H     H_    0.239048 0.210970 0.775072 0.135249
H13   H     H_    0.156151 0.272304 0.821691 0.145940
H14   H     H_    0.126918 0.345657 0.750471 0.142084
H15   H     H_    0.210034 0.284325 0.703881 0.135729
C26   C     C_1   0.863667 0.378435 0.624450 -0.190312
C27   C     C_3   0.928971 0.207533 0.791284 0.285932
C28   C     C_3   0.745514 0.307519 0.753800 -0.327655
C29   C     C_3   0.895293 0.292475 0.708718 0.286893
C30   C     C_3   0.862171 0.221536 0.688604 -0.325988
C31   C     C_3   0.881820 0.171870 0.736884 -0.329217
C32   C     C_1   0.876921 0.339962 0.662434 -0.100334
C33   C     C_1   0.947326 0.160043 0.837566 -0.097607
C34   C     C_1   0.960573 0.121562 0.875544 -0.188228
H16   H     H_    0.745300 0.144330 0.741038 0.137317
H17   H     H_    0.997396 0.135647 0.727669 0.138518
H18   H     H_    0.716326 0.217616 0.669763 0.137324
H19   H     H_    0.626497 0.232007 0.807518 0.136801
H20   H     H_    0.597405 0.305203 0.736218 0.137916
H21   H     H_    0.968435 0.208971 0.656399 0.138940
C35   C     C_3   0.580847 0.696962 0.262133 -0.325570
C36   C     C_3   0.221717 0.703349 0.249421 -0.316313
C37   C     C_3   0.251861 0.751202 0.200527 -0.305295
H22   H     H_    0.628407 0.720925 0.175665 0.177849
H23   H     H_    0.584274 0.646578 0.245084 0.182408
H24   H     H_    0.081777 0.714547 0.269252 0.163299
H25   H     H_    0.213935 0.652366 0.233835 0.159700
H26   H     H_    0.270917 0.722364 0.162358 0.146143
H27   H     H_    0.120978 0.781799 0.193898 0.197596
C38   C     C_1   0.475380 0.878686 0.124925 -0.117490
C39   C     C_3   0.387677 0.708889 0.292068 0.192363
C40   C     C_3   0.607811 0.747448 0.214930 -0.431988
C41   C     C_3   0.431503 0.794560 0.210180 0.129044
C42   C     C_3   0.413300 0.830632 0.266565 0.384578
C43   C     C_3   0.387740 0.779933 0.314122 -0.363125
C44   C     C_1   0.458573 0.840930 0.163315 0.021562
C45   C     C_1   0.363747 0.660843 0.337832 -0.050180
C46   C     C_1   0.348529 0.622043 0.375545 -0.171400
H28   H     H_    0.507021 0.785600 0.344423 0.132809
H29   H     H_    0.251841 0.789045 0.336699 0.201722
H30   H     H_    0.550428 0.856978 0.274119 0.099274
H31   H     H_    0.702969 0.700699 0.291728 0.154524
H32   H     H_    0.741018 0.775908 0.222574 0.186177
C47   C     C_R   0.470301 0.162329 0.088518 -0.047100
C48   C     C_R   0.350122 0.338231 0.410770 -0.045512
C49   C     C_R   0.502271 0.279556 0.090870 -0.034628
C50   C     C_R   0.511750 0.220910 0.062438 -0.195530
C51   C     C_R   0.426164 0.162509 0.144471 -0.152508
C52   C     C_R   0.420036 0.221831 0.175315 0.029727
C53   C     C_R   0.453542 0.281708 0.147067 -0.055088
C54   C     C_R   0.383065 0.223222 0.233008 0.022393
C55   C     C_R   0.376191 0.284348 0.261663 -0.054054
C56   C     C_R   0.373775 0.343167 0.229927 0.084403
C57   C     C_R   0.428968 0.342362 0.174409 0.433244
C58   C     C_R   0.348211 0.165181 0.262912 -0.131273
C59   C     C_R   0.308524 0.166263 0.318415 -0.188069
C60   C     C_R   0.315045 0.224390 0.347656 0.136713
C61   C     C_R   0.359449 0.283858 0.320660 0.115672
C62   C     C_R   0.279598 0.223086 0.404177 -0.160452
C63   C     C_R   0.291072 0.279979 0.435042 -0.165763
C64   C     C_R   0.391732 0.339409 0.354468 -0.230008
H33   H     H_    0.451770 0.383658 0.338531 0.112272
H34   H     H_    0.256358 0.278397 0.478205 0.104580
H35   H     H_    0.277522 0.120519 0.339026 0.138208
H36   H     H_    0.531469 0.322922 0.067286 0.204458
H37   H     H_    0.548362 0.221436 0.019376 0.110900
H38   H     H_    0.398730 0.115349 0.162296 0.109959
H39   H     H_    0.346441 0.117450 0.244641 0.150239
H40   H     H_    0.240657 0.177928 0.424484 0.118058
O11   O     O_R   0.323590 0.942280 0.056590 -0.529246
O12   O     O_R   0.647030 0.077140 0.045940 -0.535869
O13   O     O_R   0.813570 0.057750 0.943430 -0.537675
C65   C     C_R   0.478074 0.100989 0.056879 0.703290
O14   O     O_R   0.653510 0.943950 0.062820 -0.535263
O15   O     O_R   0.820100 0.923600 0.960440 -0.538768
C66   C     C_R   0.485520 0.923826 0.078767 0.727360
O16   O     O_R   0.317060 0.076430 0.039590 -0.533389
O17   O     O_3   0.483830 0.993520 0.966410 -0.373291
V3    V     V_3+5 0.760140 0.001200 0.006230 1.456554
O18   O     O_R   0.149560 0.922820 0.954030 -0.540573
C67   C     C_R   0.981253 0.898899 0.943375 0.687876
O19   O     O_R   0.143080 0.056020 0.937150 -0.540204
C68   C     C_R   0.973311 0.076105 0.921293 0.721811
V4    V     V_3+5 0.259690 0.998730 0.993720 1.447294
O20   O     O_3   0.986120 0.006480 0.033580 -0.357756
N1    N     N_3   0.767055 0.724163 0.503693 -0.671715
H41   H     H_    0.633583 0.702195 0.497161 0.224358
H42   H     H_    0.753032 0.772457 0.489880 0.233191
S1    S     S_3+6 0.226185 0.892523 0.268956 -0.032894
O21   O     O_2   0.246732 0.940587 0.222694 -0.342521
O22   O     O_2   0.030500 0.861958 0.266112 -0.362889
O23   O     O_3   0.247846 0.932700 0.328616 -0.506227
H43   H     H_    0.146997 0.967222 0.327130 0.364241
S2    S     S_3+6 0.458496 0.418154 0.138247 0.033513
O24   O     O_2   0.658254 0.420094 0.115244 -0.304922
O25   O     O_2   0.316247 0.421155 0.091473 -0.329681
O26   O     O_3   0.429572 0.485171 0.177246 -0.486001
H44   H     H_    0.296342 0.500712 0.169926 0.367627
N2    N     N_3   0.277141 0.400994 0.249156 -0.621997
H45   H     H_    0.376004 0.433119 0.266502 0.256267
H46   H     H_    0.167410 0.389549 0.276478 0.239871

loop_
_geom_bond_atom_site_label_1
_geom_bond_atom_site_label_2
_ccdc_geom_bond_type
C31   H16   S    
C28   C29   S    
C13   C19   A    
C49   C50   A    
C4    C6    S    
O2    C1    A    
C51   C52   A    
C1    O6    A    
C5    C8    A    
O12   C65   A    
C60   C62   A    
C42   C43   S    
C26   C32   T    
C27   C33   S    
C24   C25   S    
C29   C30   S    
C14   C15   A    
C42   S1    S    
C16   C17   A    
N2    H45   S    
C41   C44   S    
O5    C3    A    
C18   C19   A    
C62   C63   A    
C38   C44   T    
C51   H38   S    
V2    O10   S    
C25   H15   S    
O13   C68   A    
C64   H33   S    
C59   H35   S    
C16   H8    S    
C39   C43   S    
C40   H32   S    
C58   H39   S    
C57   S2    S    
C48   C64   A    
C7    C8    A    
C56   N2    S    
C52   C54   A    
C36   H24   S    
O1    V2    S    
V3    O20   S    
O7    V1    S    
C3    C26   S    
C35   C40   S    
C9    C10   A    
O15   C67   A    
C36   C39   S    
C36   C37   S    
S2    O24   D    
O8    V2    S    
C30   H21   S    
S1    O23   S    
H22   C40   S    
C60   C61   A    
C50   H37   S    
N2    H46   S    
C35   C39   S    
C55   C61   A    
C61   C64   A    
C37   C41   S    
C12   C13   A    
S1    O22   D    
S2    O26   S    
C47   C65   S    
O4    C2    A    
C8    H5    S    
C41   C42   S    
C1    C46   S    
C15   H1    S    
C13   C14   A    
C43   H28   S    
C25   H14   S    
C39   C45   S    
C5    C9    A    
O16   V4    S    
C62   H40   S    
C33   C34   T    
O15   V3    S    
C7    C11   A    
C17   C18   A    
C38   C66   S    
C7    H4    S    
C21   N1    S    
O17   V4    S    
C48   C63   A    
C55   C56   A    
C24   H12   S    
C35   H23   S    
C52   C53   A    
C35   H31   S    
C19   C22   A    
C36   H25   S    
C45   C46   T    
C6    C22   A    
O3    C4    A    
C34   C68   S    
C24   C27   S    
O6    V2    S    
C11   C15   A    
O9    V2    S    
C37   H27   S    
O17   V3    S    
C63   H34   S    
C10   C12   A    
C25   C29   S    
O18   C67   A    
O2    V1    S    
C49   C53   A    
C59   C60   A    
C28   H20   S    
O23   H43   S    
C30   H18   S    
H10   C28   S    
O19   C68   A    
C27   C31   S    
C31   H17   S    
O1    C2    A    
C12   C16   A    
S1    O21   D    
O5    V1    S    
O8    C3    A    
C5    C67   S    
C29   C32   S    
O26   H44   S    
C20   C21   A    
S2    O25   D    
O11   C66   A    
O4    V1    S    
O3    V1    S    
C54   C58   A    
V4    O20   S    
C47   C50   A    
C18   C20   A    
C23   C28   S    
C30   C31   S    
N1    H41   S    
C9    H6    S    
C24   H13   S    
C2    C48   S    
C23   H19   S    
C56   C57   A    
C20   H9    S    
C22   H2    S    
O7    V2    S    
C58   C59   A    
O11   V4    S    
C6    C21   A    
O18   V4    S    
O14   C66   A    
C42   H30   S    
C65   O16   A    
C49   H36   S    
C47   C51   A    
C40   C41   S    
O13   V3    S    
C23   C27   S    
C43   H29   S    
O14   V3    S    
C54   C55   A    
C17   H3    S    
C37   H26   S    
N1    H42   S    
C10   C11   A    
V1    O10   S    
O12   V3    S    
O9    C4    A    
C53   C57   A    
C23   H11   S    
C14   H7    S    
O19   V4    S    
