data_mof_unit_1368.cif
_audit_creation_date              2012-12-10T19:12:19-0500
_audit_creation_method            fapswitch 2.2
_symmetry_space_group_name_H-M    P1
_symmetry_Int_Tables_number       1
_space_group_crystal_system       triclinic
_cell_length_a                    7.790813
_cell_length_b                    9.089337
_cell_length_c                    17.087864
_cell_angle_alpha                 89.574015
_cell_angle_beta                  94.043917
_cell_angle_gamma                 90.088825
_cell_volume                      1207.00179492

loop_
_atom_site_label
_atom_site_type_symbol
_atom_type_description
_atom_site_fract_x
_atom_site_fract_y
_atom_site_fract_z
_atom_type_partial_charge
C1    C     C_R   0.499901 0.220052 0.499970 0.838036
C2    C     C_R   0.500098 0.779948 0.500030 0.838045
C3    C     C_R   0.521341 0.497574 0.650968 0.818591
C4    C     C_R   0.478659 0.502423 0.349031 0.818560
C5    C     C_R   0.533849 0.491818 0.736637 -0.037071
C6    C     C_R   0.466147 0.508154 0.263358 -0.037120
C7    C     C_R   0.461311 0.605715 0.779359 0.082064
C8    C     C_R   0.538841 0.394318 0.220646 0.082039
C9    C     C_R   0.465762 0.595044 0.861067 -0.151669
C10   C     C_R   0.534369 0.404963 0.138937 -0.151686
C11   C     C_R   0.540946 0.472101 0.900715 0.294726
C12   C     C_R   0.459009 0.527821 0.099276 0.294729
C13   C     C_R   0.616129 0.362224 0.858111 -0.188412
C14   C     C_R   0.383680 0.637638 0.141868 -0.188417
C15   C     C_R   0.613325 0.370013 0.776298 0.094814
C16   C     C_R   0.386501 0.629870 0.223682 0.094794
C17   C     C_1   0.499893 0.065386 0.499989 -0.180607
C18   C     C_1   0.500107 0.934614 0.500011 -0.180601
Cu1   Cu    Cu3+1 0.669080 0.500010 0.500000 0.995037
Cu2   Cu    Cu3+1 0.330920 0.499990 0.500000 0.995039
H1    H     H_    0.590383 0.317411 0.106487 0.162323
H2    H     H_    0.409877 0.682644 0.893528 0.162318
H3    H     H_    0.674655 0.268645 0.889260 0.150680
H4    H     H_    0.325024 0.731153 0.110708 0.150682
N1    N     N_1   0.076820 0.499970 0.500010 -0.049705
N2    N     N_1   0.923180 0.500030 0.499990 -0.049706
N3    N     N_2   0.543778 0.453987 0.983300 -0.246966
N4    N     N_2   0.456164 0.545925 0.016689 -0.246958
O1    O     O_R   0.642760 0.288400 0.500000 -0.577211
O2    O     O_R   0.357240 0.711600 0.500000 -0.577214
O3    O     O_R   0.357190 0.288380 0.500000 -0.575186
O4    O     O_R   0.642810 0.711620 0.500000 -0.575185
O5    O     O_R   0.658410 0.498660 0.613920 -0.582033
O6    O     O_R   0.341590 0.501340 0.386080 -0.582042
O7    O     O_R   0.372840 0.498650 0.613930 -0.581094
O8    O     O_R   0.627160 0.501350 0.386070 -0.581103
C19   C     C_3   0.618795 0.260270 0.261113 -0.836280
H5    H     H_    0.524409 0.206732 0.297962 0.220014
H6    H     H_    0.659039 0.177827 0.218390 0.227276
H7    H     H_    0.734599 0.292493 0.298638 0.253064
C20   C     C_3   0.381548 0.739854 0.738907 -0.836404
H8    H     H_    0.476025 0.793327 0.702081 0.220027
H9    H     H_    0.265732 0.707755 0.701357 0.253041
H10   H     H_    0.341371 0.822310 0.781637 0.227306
C21   C     C_3   0.689798 0.245505 0.732342 -0.825939
H11   H     H_    0.738348 0.155880 0.772518 0.226490
H12   H     H_    0.590636 0.197939 0.689938 0.217736
H13   H     H_    0.799490 0.286516 0.700275 0.251407
C22   C     C_3   0.309862 0.754314 0.267624 -0.825858
H14   H     H_    0.261222 0.843895 0.227439 0.226472
H15   H     H_    0.200206 0.713209 0.299684 0.251425
H16   H     H_    0.408956 0.801968 0.310032 0.217733

loop_
_geom_bond_atom_site_label_1
_geom_bond_atom_site_label_2
_ccdc_geom_bond_type
C4    O8    A    
C19   H5    S    
C3    O7    A    
C2    C18   S    
C20   H9    S    
C20   H8    S    
C1    C17   S    
Cu1   Cu2   S    
C13   C15   A    
C11   N3    S    
C2    O2    A    
C22   H16   S    
Cu2   O6    S    
C1    O1    A    
C17   C18   T    
C5    C7    A    
C19   H6    S    
Cu2   O2    S    
C21   H11   S    
C11   C13   A    
C9    C11   A    
C10   C12   A    
C12   N4    S    
Cu1   O4    S    
C4    C6    S    
C12   C14   A    
C19   H7    S    
C4    O6    A    
Cu1   O8    S    
C21   H12   S    
C10   H1    S    
Cu1   O5    S    
C20   H10   S    
C14   C16   A    
C9    H2    S    
C5    C15   A    
C8    C19   S    
C3    O5    A    
C6    C16   A    
Cu1   O1    S    
C1    O3    A    
C16   C22   S    
C13   H3    S    
C2    O4    A    
C22   H14   S    
Cu2   N1    S    
C21   H13   S    
C14   H4    S    
N3    N4    D    
C7    C9    A    
Cu1   N2    S    
C15   C21   S    
C6    C8    A    
C22   H15   S    
N1    N2    T    
Cu2   O7    S    
C8    C10   A    
C7    C20   S    
C3    C5    S    
Cu2   O3    S    
