data_mof_unit_2528.cif
_audit_creation_date              2012-12-11T15:32:07-0500
_audit_creation_method            fapswitch 2.2
_symmetry_space_group_name_H-M    P1
_symmetry_Int_Tables_number       1
_space_group_crystal_system       triclinic
_cell_length_a                    13.575142
_cell_length_b                    13.590011
_cell_length_c                    27.673317
_cell_angle_alpha                 90.403509
_cell_angle_beta                  90.161388
_cell_angle_gamma                 119.953839
_cell_volume                      4423.18893149

loop_
_atom_site_label
_atom_site_type_symbol
_atom_type_description
_atom_site_fract_x
_atom_site_fract_y
_atom_site_fract_z
_atom_type_partial_charge
C1    C     C_R   0.619591 0.898330 0.431325 0.545884
C2    C     C_R   0.275174 0.888349 0.257460 -0.106267
C3    C     C_R   0.256033 0.878861 0.207512 -0.108830
C4    C     C_R   0.599694 0.218473 0.431291 0.545113
C5    C     C_R   0.053248 0.791198 0.221355 -0.119257
C6    C     C_R   0.072392 0.800683 0.271325 -0.113999
C7    C     C_R   0.183425 0.848492 0.289497 0.038137
C8    C     C_R   0.144920 0.829377 0.189345 0.032542
C9    C     C_1   0.123104 0.813349 0.138108 -0.071373
C10   C     C_1   0.204918 0.854689 0.340761 -0.058240
C11   C     C_1   0.096142 0.794013 0.096060 -0.018999
C12   C     C_R   0.753251 0.432904 0.222455 -0.103136
C13   C     C_1   0.636139 0.865039 0.384081 -0.010782
C14   C     C_R   0.576163 0.732621 0.267106 -0.125953
C15   C     C_R   0.582096 0.723345 0.216916 -0.160499
C16   C     C_R   0.279445 0.878851 0.430555 0.545436
C17   C     C_R   0.752838 0.909139 0.215387 0.276012
C18   C     C_R   0.745208 0.918647 0.265594 -0.094615
C19   C     C_R   0.657757 0.830321 0.291546 -0.012066
C20   C     C_R   0.669352 0.811872 0.190807 0.038744
C21   C     C_1   0.678645 0.799035 0.139515 -0.024666
C22   C     C_1   0.646801 0.845397 0.342444 -0.055714
C23   C     C_R   0.741934 0.415809 0.272399 -0.105402
C24   C     C_1   0.693961 0.787382 0.097454 -0.007221
C25   C     C_R   0.640187 0.278869 0.615281 0.024606
C26   C     C_R   0.722091 0.265117 0.640680 -0.126163
C27   C     C_R   0.734409 0.283774 0.689978 -0.123973
C28   C     C_R   0.620503 0.900746 0.568985 0.542277
C29   C     C_R   0.668186 0.320599 0.714284 0.037977
C30   C     C_R   0.595314 0.346355 0.688081 -0.121021
C31   C     C_R   0.580562 0.324581 0.638717 -0.129883
C32   C     C_R   0.575397 0.300621 0.793758 -0.121873
C33   C     C_R   0.583836 0.322635 0.843108 -0.130983
C34   C     C_R   0.664150 0.308773 0.290437 0.037915
C35   C     C_R   0.786261 0.389180 0.839932 -0.126449
C36   C     C_R   0.778385 0.370205 0.790640 -0.124244
C37   C     C_R   0.673756 0.329771 0.766947 0.037044
C38   C     C_R   0.690411 0.372058 0.865918 0.023795
C39   C     C_R   0.223965 0.863660 0.614939 0.024024
C40   C     C_R   0.601771 0.223031 0.568447 0.541815
C41   C     C_R   0.242684 0.958426 0.642692 -0.126612
C42   C     C_R   0.216389 0.946547 0.691462 -0.122344
C43   C     C_R   0.169011 0.839465 0.712931 0.036499
C44   C     C_R   0.141658 0.743347 0.684294 -0.119214
C45   C     C_R   0.687038 0.343085 0.190378 0.039897
C46   C     C_R   0.169663 0.755461 0.635590 -0.127302
C47   C     C_R   0.173194 0.753598 0.791544 -0.120428
C48   C     C_R   0.146274 0.735644 0.840311 -0.129149
C49   C     C_R   0.084040 0.874774 0.837978 -0.126418
C50   C     C_R   0.109295 0.891375 0.789174 -0.122482
C51   C     C_R   0.150879 0.828481 0.765288 0.036266
C52   C     C_R   0.279734 0.881570 0.568192 0.542040
C53   C     C_R   0.097955 0.793395 0.863418 0.022913
C54   C     C_R   0.638851 0.862205 0.615667 0.023023
C55   C     C_R   0.546615 0.770744 0.638546 -0.125202
C56   C     C_1   0.693922 0.364108 0.139259 -0.054857
C57   C     C_R   0.553114 0.750847 0.687215 -0.121786
C58   C     C_R   0.652628 0.820671 0.713565 0.036982
C59   C     C_R   0.748185 0.905904 0.689752 -0.120277
C60   C     C_R   0.741195 0.926970 0.641111 -0.128889
C61   C     C_R   0.712229 0.902646 0.796348 -0.119745
C62   C     C_R   0.724593 0.889491 0.845355 -0.127787
C63   C     C_R   0.614320 0.684783 0.835104 -0.127351
C64   C     C_1   0.630847 0.264118 0.383641 -0.012012
C65   C     C_R   0.603649 0.697891 0.786007 -0.122692
C66   C     C_R   0.655609 0.806838 0.766019 0.035340
C67   C     C_1   0.649397 0.289588 0.341659 -0.056850
C68   C     C_R   0.678987 0.780403 0.864655 0.023781
C69   C     C_R   0.049083 0.761003 0.048295 0.545893
C70   C     C_R   0.714316 0.435809 0.049720 0.545070
C71   C     C_R   0.723724 0.770728 0.049599 0.543247
C72   C     C_R   0.043866 0.755856 0.910484 0.542267
C73   C     C_R   0.707917 0.428352 0.912608 0.541447
C74   C     C_R   0.717252 0.765070 0.911880 0.541652
C75   C     C_R   0.598858 0.218718 0.258345 -0.100124
C76   C     C_R   0.610076 0.235820 0.208436 -0.099208
C77   C     C_3   0.937464 0.991644 0.192173 0.007070
C78   C     C_1   0.701431 0.390286 0.097340 -0.011600
C79   C     C_3   0.034843 0.099332 0.170469 -0.246387
C80   C     C_3   0.145283 0.095569 0.169844 -0.478127
C81   C     C_1   0.232107 0.862900 0.382781 -0.013041
Cr1   Cr    Cr6+3 0.417720 0.831920 0.499820 1.021992
Cr2   Cr    Cr6+3 0.668190 0.085770 0.500360 1.021392
Cr3   Cr    Cr6+3 0.414060 0.082260 0.499840 1.022333
Cr4   Cr    Cr6+3 0.908000 0.821090 0.979770 1.019351
Cr5   Cr    Cr6+3 0.912420 0.571130 0.979880 1.023006
Cr6   Cr    Cr6+3 0.657970 0.566940 0.980940 1.020680
H1    H     H_    0.538461 0.135527 0.271947 0.106426
H2    H     H_    0.557816 0.166059 0.184054 0.110374
H3    H     H_    0.517956 0.337003 0.619576 0.123772
H4    H     H_    0.285360 0.043102 0.627726 0.133385
H5    H     H_    0.208673 0.706791 0.774087 0.103632
H6    H     H_    0.158418 0.673026 0.859296 0.125293
H7    H     H_    0.238669 0.022017 0.712800 0.100335
H8    H     H_    0.091023 0.949345 0.769708 0.101291
H9    H     H_    0.046335 0.920211 0.854821 0.133880
H10   H     H_    0.101717 0.659349 0.699869 0.103032
H11   H     H_    0.153802 0.681180 0.614705 0.124153
H12   H     H_    0.518699 0.647143 0.198467 0.121979
H13   H     H_    0.466471 0.719159 0.619836 0.131252
H14   H     H_    0.812441 0.516515 0.208846 0.108502
H15   H     H_    0.749794 0.987651 0.781937 0.104743
H16   H     H_    0.774380 0.964273 0.867664 0.123724
H17   H     H_    0.478211 0.684664 0.704698 0.099763
H18   H     H_    0.559879 0.622643 0.763390 0.101387
H19   H     H_    0.579492 0.599581 0.849058 0.134109
H20   H     H_    0.827175 0.958472 0.709089 0.101064
H21   H     H_    0.813778 0.997364 0.624182 0.124554
H22   H     H_    0.792851 0.485983 0.296816 0.109240
H23   H     H_    0.807024 0.995602 0.284140 0.124609
H24   H     H_    0.361445 0.925399 0.271129 0.107724
H25   H     H_    0.327494 0.908613 0.183181 0.110855
H26   H     H_    0.966867 0.752745 0.207668 0.096637
H27   H     H_    0.507247 0.664387 0.286728 0.128073
H28   H     H_    0.925858 0.916592 0.170909 0.140926
H29   H     H_    0.960881 0.984724 0.230180 0.123286
H30   H     H_    0.012284 0.109288 0.132873 0.185281
H31   H     H_    0.048005 0.174195 0.192139 0.174247
H32   H     H_    0.167596 0.081118 0.206763 0.159773
H33   H     H_    0.215341 0.177542 0.156451 0.149884
H34   H     H_    0.769590 0.230101 0.623478 0.133013
H35   H     H_    0.136394 0.026739 0.145273 0.162843
H36   H     H_    0.546679 0.379151 0.705994 0.099732
H37   H     H_    0.000825 0.769582 0.295660 0.106451
H38   H     H_    0.492938 0.265062 0.776323 0.101897
H39   H     H_    0.508687 0.307582 0.862722 0.124730
H40   H     H_    0.790959 0.262906 0.709279 0.098743
H41   H     H_    0.855625 0.393718 0.770862 0.099906
H42   H     H_    0.869714 0.427132 0.856653 0.134296
O1    O     O_R   0.302900 0.805360 0.446400 -0.505492
O2    O     O_R   0.638120 0.455970 0.034270 -0.508152
O3    O     O_R   0.667540 0.672320 0.030160 -0.496222
O4    O     O_R   0.522090 0.841370 0.450730 -0.493984
O5    O     O_R   0.814460 0.840990 0.926980 -0.519439
O6    O     O_R   0.001710 0.811400 0.930110 -0.504477
O7    O     O_R   0.023410 0.659800 0.926210 -0.521366
O8    O     O_R   0.806940 0.473170 0.931090 -0.505888
O9    O     O_R   0.633420 0.451310 0.927930 -0.521794
O10   O     O_R   0.663190 0.668000 0.931580 -0.503218
O11   O     O_3   0.826130 0.653050 0.980200 -0.245521
O12   O     O_R   0.657980 0.180990 0.549630 -0.506400
O13   O     O_R   0.693280 0.995650 0.447220 -0.506081
O14   O     O_R   0.657260 0.178740 0.451050 -0.493453
O15   O     O_R   0.502640 0.195380 0.446850 -0.506111
O16   O     O_R   0.319630 0.976590 0.450330 -0.493887
O17   O     O_R   0.303680 0.807790 0.552740 -0.520152
O18   O     O_R   0.522820 0.843620 0.549310 -0.504501
O19   O     O_R   0.694060 0.998080 0.553560 -0.521765
O20   O     O_3   0.837260 0.998773 0.190087 -0.564391
O21   O     O_R   0.503420 0.197810 0.553190 -0.521530
O22   O     O_R   0.320350 0.978840 0.548910 -0.504364
O23   O     O_3   0.499990 0.999990 0.500010 -0.245036
O24   O     O_R   0.819150 0.845650 0.033320 -0.504390
O25   O     O_R   0.006060 0.815720 0.028680 -0.497915
O26   O     O_R   0.028100 0.664460 0.032550 -0.502828
O27   O     O_R   0.811290 0.477490 0.029660 -0.492406

loop_
_geom_bond_atom_site_label_1
_geom_bond_atom_site_label_2
_ccdc_geom_bond_type
C25   C31   A    
C7    C10   S    
Cr2   O14   S    
C63   C65   A    
C70   C78   S    
C47   H5    S    
C2    C7    A    
C6    H37   S    
Cr6   O11   S    
C75   C76   A    
C4    O14   A    
C80   H33   S    
Cr1   O18   S    
C39   C41   A    
C54   C60   A    
Cr3   O16   S    
C12   C23   A    
C26   C27   A    
C69   O26   A    
C45   C76   A    
C70   O27   A    
C36   C37   A    
Cr2   O23   S    
C25   C40   S    
C30   C31   A    
C50   H8    S    
C72   O7    A    
C27   C29   A    
C73   O9    A    
Cr3   O15   S    
C68   C74   S    
C71   O24   A    
C79   H31   S    
C79   H30   S    
C17   C20   A    
C56   C78   T    
C18   C19   A    
C41   C42   A    
Cr6   O2    S    
Cr5   O27   S    
C16   C81   S    
C1    O13   A    
Cr5   O8    S    
C71   O3    A    
C63   C68   A    
C27   H40   S    
C61   C66   A    
C58   C66   S    
C35   C36   A    
C45   C56   S    
C8    C9    S    
C55   H13   S    
C26   H34   S    
Cr1   O1    S    
C77   H29   S    
C16   O1    A    
C35   H42   S    
C60   H21   S    
Cr5   O11   S    
C34   C75   A    
C23   C34   A    
C39   C52   S    
C46   H11   S    
C80   H32   S    
C59   C60   A    
C40   O12   A    
C15   C20   A    
C1    O4    A    
C65   H18   S    
Cr1   O17   S    
C44   C46   A    
C50   C51   A    
C77   C79   S    
C48   C53   A    
C23   H22   S    
C2    H24   S    
C28   O19   A    
C48   H6    S    
C76   H2    S    
C64   C67   T    
C35   C38   A    
C3    C8    A    
C77   O20   S    
Cr2   O12   S    
C28   C54   S    
C72   O6    A    
C80   H35   S    
C25   C26   A    
C14   H27   S    
C59   H20   S    
Cr2   O19   S    
C33   H39   S    
C16   O16   A    
Cr6   O3    S    
Cr5   O26   S    
C29   C30   A    
C5    C8    A    
C44   H10   S    
C47   C48   A    
C3    H25   S    
C31   H3    S    
C19   C22   S    
C17   C18   A    
C40   O21   A    
Cr4   O24   S    
C32   C37   A    
C20   C21   S    
C63   H19   S    
C9    C11   T    
Cr4   O11   S    
Cr4   O6    S    
C39   C46   A    
Cr3   O23   S    
Cr5   O7    S    
C41   H4    S    
C49   C50   A    
C55   C57   A    
C43   C44   A    
C1    C13   S    
C42   C43   A    
Cr6   O9    S    
C36   H41   S    
C62   H16   S    
C57   H17   S    
C54   C55   A    
C28   O18   A    
C52   O17   A    
C5    H26   S    
C42   H7    S    
C14   C19   A    
C17   O20   S    
C18   H23   S    
Cr6   O10   S    
C12   C45   A    
C34   C67   S    
C4    O15   A    
Cr2   O13   S    
C47   C51   A    
C11   C69   S    
C6    C7    A    
C74   O10   A    
C4    C64   S    
C10   C81   T    
C33   C38   A    
C62   C68   A    
C32   C33   A    
Cr1   O4    S    
C2    C3    A    
C58   C59   A    
C12   H14   S    
C15   H12   S    
C43   C51   S    
C57   C58   A    
C5    C6    A    
C73   O8    A    
C52   O22   A    
C49   C53   A    
C74   O5    A    
C70   O2    A    
C32   H38   S    
C13   C22   T    
C61   H15   S    
Cr4   O25   S    
C49   H9    S    
C61   C62   A    
C79   C80   S    
Cr3   O22   S    
C75   H1    S    
C30   H36   S    
C65   C66   A    
C21   C24   T    
C29   C37   S    
C14   C15   A    
C69   O25   A    
Cr4   O5    S    
C77   H28   S    
C53   C72   S    
Cr1   O23   S    
C24   C71   S    
C38   C73   S    
Cr3   O21   S    
