data_mof_unit_4832.cif
_audit_creation_date              2012-12-11T15:43:44-0500
_audit_creation_method            fapswitch 2.2
_symmetry_space_group_name_H-M    P1
_symmetry_Int_Tables_number       1
_space_group_crystal_system       triclinic
_cell_length_a                    14.64264
_cell_length_b                    16.220944
_cell_length_c                    6.917232
_cell_angle_alpha                 89.891136
_cell_angle_beta                  99.122607
_cell_angle_gamma                 90.194757
_cell_volume                      1622.17104082

loop_
_atom_site_label
_atom_site_type_symbol
_atom_type_description
_atom_site_fract_x
_atom_site_fract_y
_atom_site_fract_z
_atom_type_partial_charge
O1    O     O_R   0.831700 0.662810 0.581550 -0.522899
O2    O     O_R   0.168300 0.337190 0.418450 -0.522899
O3    O     O_R   0.168300 0.162810 0.418450 -0.518997
O4    O     O_R   0.831700 0.837190 0.581550 -0.518997
O5    O     O_R   0.842890 0.834390 0.255500 -0.551615
O6    O     O_R   0.157110 0.165610 0.744500 -0.551616
O7    O     O_R   0.157110 0.334390 0.744500 -0.553004
O8    O     O_R   0.842890 0.665610 0.255500 -0.553004
O9    O     O_R   0.661690 0.835580 0.024130 -0.531633
O10   O     O_R   0.338310 0.164420 0.975870 -0.531633
O11   O     O_R   0.338310 0.335580 0.975870 -0.528181
O12   O     O_R   0.661690 0.664420 0.024130 -0.528181
C1    C     C_R   0.864760 0.865148 0.431403 0.727657
C2    C     C_R   0.135240 0.134852 0.568597 0.727657
C3    C     C_R   0.134848 0.364900 0.568211 0.713331
C4    C     C_R   0.865152 0.635100 0.431788 0.713331
C5    C     C_R   0.066762 0.065203 0.533657 -0.121339
C6    C     C_R   0.933238 0.934797 0.466343 -0.121339
C7    C     C_R   0.933699 0.565517 0.467001 -0.109296
C8    C     C_R   0.066301 0.434483 0.532999 -0.109296
H1    H     H_    0.017284 0.889608 0.260744 0.132615
H2    H     H_    0.982716 0.110392 0.739256 0.132615
H3    H     H_    0.982950 0.390018 0.741586 0.132977
H4    H     H_    0.017050 0.609982 0.258414 0.132978
C9    C     C_R   0.008744 0.937926 0.364288 -0.296206
C10   C     C_R   0.991256 0.062074 0.635712 -0.296206
C11   C     C_R   0.991337 0.438005 0.636602 -0.299819
C12   C     C_R   0.008663 0.561995 0.363398 -0.299819
O13   O     O_3   0.687240 0.750000 0.366320 -0.380061
O14   O     O_3   0.312760 0.250000 0.633680 -0.380061
V1    V     V_3+5 0.757720 0.750000 0.115230 1.366056
V2    V     V_3+5 0.242280 0.250000 0.884770 1.366056
O15   O     O_R   0.650500 0.664000 0.690740 -0.549670
O16   O     O_R   0.349500 0.336000 0.309260 -0.549670
O17   O     O_R   0.349500 0.164000 0.309260 -0.542274
O18   O     O_R   0.650500 0.836000 0.690740 -0.542274
C13   C     C_R   0.629808 0.635172 0.854181 0.760215
C14   C     C_R   0.370192 0.364828 0.145819 0.760214
C15   C     C_R   0.371303 0.136384 0.145377 0.765282
C16   C     C_R   0.628697 0.863616 0.854623 0.765281
C17   C     C_R   0.074910 0.002055 0.395834 0.299346
C18   C     C_R   0.925090 0.997945 0.604166 0.299346
C19   C     C_R   0.925847 0.502465 0.605891 0.300739
C20   C     C_R   0.074153 0.497534 0.394109 0.300739
V3    V     V_3+5 0.735670 0.750000 0.607790 1.402696
V4    V     V_3+5 0.264330 0.250000 0.392210 1.402697
O19   O     O_3   0.806150 0.750000 0.906560 -0.373644
O20   O     O_3   0.193850 0.250000 0.093440 -0.373644
C21   C     C_2   0.560915 0.930720 0.849600 -0.394349
C22   C     C_2   0.439085 0.069280 0.150400 -0.394348
C23   C     C_2   0.445727 0.425569 0.152949 -0.391900
C24   C     C_2   0.554273 0.574430 0.847051 -0.391900
C25   C     C_2   0.534188 0.965862 0.011645 0.278092
C26   C     C_2   0.465812 0.034138 0.988356 0.278093
C27   C     C_2   0.455599 0.476891 0.001275 0.291209
C28   C     C_2   0.544401 0.523109 0.998724 0.291209
H5    H     H_    0.466900 0.046836 0.295630 0.154871
H6    H     H_    0.533100 0.953164 0.704370 0.154872
H7    H     H_    0.500654 0.579068 0.720491 0.137271
H8    H     H_    0.499346 0.420931 0.279509 0.137271
N1    N     N_2   0.152438 0.000130 0.295712 -0.535306
H9    H     H_    0.187159 0.944703 0.312047 0.239597
C29   C     C_3   0.132181 0.024996 0.092686 -0.483158
H10   H     H_    0.086946 0.978650 0.006165 0.173087
H11   H     H_    0.197659 0.029861 0.032061 0.179957
H12   H     H_    0.097725 0.086114 0.079035 0.212846
N2    N     N_2   0.847562 0.999870 0.704288 -0.535307
H13   H     H_    0.812841 0.055297 0.687952 0.239597
C30   C     C_3   0.867819 0.975004 0.907314 -0.483158
H14   H     H_    0.913053 0.021350 0.993835 0.173087
H15   H     H_    0.902275 0.913886 0.920965 0.212846
H16   H     H_    0.802341 0.970139 0.967938 0.179956
N3    N     N_2   0.850331 0.502164 0.711759 -0.531723
H17   H     H_    0.815313 0.446676 0.703543 0.240348
C31   C     C_3   0.874146 0.530516 0.911342 -0.480376
H18   H     H_    0.915272 0.482976 0.002203 0.173122
H19   H     H_    0.810109 0.542180 0.972441 0.180613
H20   H     H_    0.914012 0.589144 0.917549 0.207524
N4    N     N_2   0.149669 0.497836 0.288241 -0.531723
H21   H     H_    0.184687 0.553323 0.296457 0.240348
C32   C     C_3   0.125854 0.469484 0.088658 -0.480376
H22   H     H_    0.084728 0.517023 0.997797 0.173122
H23   H     H_    0.085988 0.410856 0.082451 0.207524
H24   H     H_    0.189891 0.457820 0.027559 0.180613
N5    N     N_2   0.430554 0.060326 0.793407 -0.533300
H25   H     H_    0.435802 0.122012 0.761216 0.280346
C33   C     C_3   0.348337 0.017781 0.699610 -0.497162
H26   H     H_    0.288443 0.032883 0.772653 0.186297
H27   H     H_    0.359208 0.950030 0.705211 0.174749
H28   H     H_    0.332515 0.036614 0.543783 0.208086
N6    N     N_2   0.569445 0.939674 0.206593 -0.533300
H29   H     H_    0.564198 0.877987 0.238783 0.280345
C34   C     C_3   0.651663 0.982218 0.300390 -0.497157
H30   H     H_    0.711557 0.967118 0.227343 0.186295
H31   H     H_    0.667486 0.963383 0.456217 0.208086
H32   H     H_    0.640791 0.049970 0.294794 0.174748
N7    N     N_2   0.620860 0.507610 0.150388 -0.546619
H33   H     H_    0.685449 0.506457 0.109619 0.241992
C35   C     C_3   0.617735 0.544477 0.339610 -0.467826
H34   H     H_    0.673639 0.590771 0.371581 0.227705
H35   H     H_    0.629535 0.496184 0.454630 0.173961
H36   H     H_    0.550229 0.574810 0.345707 0.177767
N8    N     N_2   0.379140 0.492390 0.849611 -0.546619
H37   H     H_    0.314551 0.493543 0.890380 0.241992
C36   C     C_3   0.382265 0.455523 0.660389 -0.467827
H38   H     H_    0.326361 0.409229 0.628419 0.227705
H39   H     H_    0.449771 0.425190 0.654293 0.177768
H40   H     H_    0.370465 0.503816 0.545370 0.173962

loop_
_geom_bond_atom_site_label_1
_geom_bond_atom_site_label_2
_ccdc_geom_bond_type
C19   N3    S    
O6    V2    S    
C33   H26   S    
C29   H11   S    
C34   H30   S    
O11   C14   A    
V2    O20   S    
N3    H17   S    
C17   N1    S    
C27   C28   S    
N7    H33   S    
C25   C26   S    
O2    V4    S    
C36   H39   S    
C22   C26   D    
C1    C6    S    
C5    C10   A    
C6    C18   A    
N6    C34   S    
C16   C21   S    
C27   N8    S    
O12   C13   A    
O15   V3    S    
C30   H15   S    
O4    C1    A    
N1    C29   S    
C8    C20   A    
C25   N6    S    
O16   V4    S    
H3    C11   S    
O5    C1    A    
O7    C3    A    
C29   H12   S    
C34   H31   S    
V1    O19   S    
N3    C31   S    
C2    C5    S    
N1    H9    S    
C6    C9    A    
C28   N7    S    
N7    C35   S    
C7    C19   A    
C32   H22   S    
O4    V3    S    
V3    O19   S    
C3    C8    S    
C36   H40   S    
V4    O20   S    
N5    C33   S    
N2    H13   S    
O18   C16   A    
C9    C17   A    
N6    H29   S    
N4    C32   S    
C13   C24   S    
C14   C23   S    
N5    H25   S    
C12   C20   A    
O9    C16   A    
O15   C13   A    
C21   H6    S    
C29   H10   S    
O13   V3    S    
O10   C15   A    
N2    C30   S    
C30   H16   S    
O17   C15   A    
C31   H18   S    
C7    C12   A    
C24   H7    S    
O10   V2    S    
O6    C2    A    
C35   H34   S    
C15   C22   S    
O18   V3    S    
N8    C36   S    
O1    C4    A    
O2    C3    A    
C31   H19   S    
O3    C2    A    
C35   H35   S    
O11   V2    S    
C34   H32   S    
C33   H27   S    
O12   V1    S    
C18   N2    S    
C32   H24   S    
C10   C18   A    
H1    C9    S    
O7    V2    S    
O16   C14   A    
O8    V1    S    
O14   V4    S    
C20   N4    S    
H4    C12   S    
C32   H23   S    
C26   N5    S    
C8    C11   A    
C36   H38   S    
O3    V4    S    
O13   V1    S    
O14   V2    S    
C22   H5    S    
O1    V3    S    
C4    C7    S    
C21   C25   D    
C23   C27   D    
C30   H14   S    
C31   H20   S    
C5    C17   A    
O9    V1    S    
N4    H21   S    
C11   C19   A    
C35   H36   S    
O8    C4    A    
H2    C10   S    
C33   H28   S    
N8    H37   S    
C23   H8    S    
O17   V4    S    
C24   C28   D    
O5    V1    S    
