data_mof_unit_3516.cif
_audit_creation_date              2012-12-10T20:44:49-0500
_audit_creation_method            fapswitch 2.2
_symmetry_space_group_name_H-M    P1
_symmetry_Int_Tables_number       1
_space_group_crystal_system       triclinic
_cell_length_a                    9.849165
_cell_length_b                    10.690751
_cell_length_c                    16.881129
_cell_angle_alpha                 89.369098
_cell_angle_beta                  94.458134
_cell_angle_gamma                 90.290335
_cell_volume                      1771.99673479

loop_
_atom_site_label
_atom_site_type_symbol
_atom_type_description
_atom_site_fract_x
_atom_site_fract_y
_atom_site_fract_z
_atom_type_partial_charge
C1    C     C_R   0.499927 0.260001 0.500978 0.890300
C2    C     C_R   0.501820 0.128242 0.509466 -0.099655
C3    C     C_R   0.386711 0.063599 0.532252 -0.233577
C4    C     C_R   0.517652 0.497383 0.653337 0.867575
C5    C     C_R   0.387506 0.934211 0.533517 -0.226900
C6    C     C_R   0.503793 0.871239 0.512474 -0.094625
C7    C     C_R   0.624075 0.936935 0.503601 0.080503
C8    C     C_3   0.723831 0.928296 0.441464 -0.497374
C9    C     C_3   0.720821 0.070473 0.437202 -0.107736
C10   C     C_R   0.074345 0.398460 0.528104 0.160240
C11   C     C_R   0.067860 0.594428 0.464854 -0.135546
C12   C     C_R   0.654194 0.471081 0.782200 -0.232170
C13   C     C_R   0.923754 0.594208 0.464632 -0.151432
C14   C     C_R   0.931735 0.398809 0.528443 0.193807
C15   C     C_3   0.936188 0.346583 0.610759 0.274010
C16   C     C_R   0.500632 0.739947 0.502023 0.890407
C17   C     C_3   0.090815 0.344765 0.610136 -0.599247
C18   C     C_R   0.482325 0.497867 0.346836 0.862199
C19   C     C_R   0.527381 0.485503 0.739352 -0.020007
C20   C     C_R   0.407677 0.482040 0.778860 -0.237684
C21   C     C_R   0.413956 0.462170 0.859888 -0.166713
C22   C     C_R   0.541095 0.446260 0.903089 0.334315
C23   C     C_R   0.579199 0.417846 0.144594 -0.161944
C24   C     C_R   0.660628 0.451474 0.863856 -0.204203
C25   C     C_3   0.872841 0.183014 0.689904 0.106789
C26   C     C_3   0.810266 0.052679 0.690020 -0.822226
C27   C     C_R   0.588273 0.442292 0.224970 -0.242405
C28   C     C_R   0.453201 0.429795 0.099749 0.328975
C29   C     C_R   0.471845 0.477170 0.261836 -0.026029
C30   C     C_R   0.345147 0.483200 0.218018 -0.213946
C31   C     C_R   0.336211 0.459133 0.137178 -0.196784
C32   C     C_R   0.622215 0.064254 0.500529 0.192094
H1    H     H_    0.686516 0.433504 0.258115 0.161329
H2    H     H_    0.671135 0.392694 0.117396 0.145597
H3    H     H_    0.134891 0.249239 0.611138 0.211740
H4    H     H_    0.758834 0.441434 0.896856 0.133549
H5    H     H_    0.747937 0.474461 0.752848 0.143480
H6    H     H_    0.253674 0.507865 0.245875 0.160716
H7    H     H_    0.319255 0.461247 0.888461 0.144512
H8    H     H_    0.238998 0.468060 0.102943 0.135644
H9    H     H_    0.308694 0.494521 0.747377 0.154010
H10   H     H_    0.294602 0.112005 0.544738 0.170376
H11   H     H_    0.723929 0.094847 0.317478 0.191136
H12   H     H_    0.295562 0.884375 0.546352 0.170457
H13   H     H_    0.655961 0.214168 0.363242 0.197830
H14   H     H_    0.808684 0.245454 0.723738 0.138725
H15   H     H_    0.977184 0.177883 0.720314 0.140056
H16   H     H_    0.867113 0.989086 0.652989 0.254911
H17   H     H_    0.814427 0.015021 0.751720 0.206976
H18   H     H_    0.702142 0.056658 0.666128 0.252018
H19   H     H_    0.823708 0.891578 0.466388 0.180252
H20   H     H_    0.680592 0.880900 0.386734 0.208775
H21   H     H_    0.819338 0.116580 0.456390 0.188603
H22   H     H_    0.119007 0.671748 0.437751 0.149789
H23   H     H_    0.866107 0.670894 0.436993 0.152410
H24   H     H_    0.895933 0.413829 0.653034 0.073453
H25   H     H_    0.142076 0.410382 0.653401 0.179061
N1    N     N_2   0.553350 0.435540 0.986543 -0.209050
N2    N     N_2   0.442053 0.425139 0.016279 -0.212311
N3    N     N_R   0.142860 0.499130 0.500540 -0.100601
N4    N     N_R   0.857210 0.499170 0.500530 -0.137416
N5    N     N_3   0.658335 0.116564 0.361114 -0.443303
O1    O     O_R   0.614690 0.316790 0.499990 -0.603254
O2    O     O_R   0.385350 0.316760 0.500000 -0.618267
O3    O     O_R   0.627460 0.498860 0.616130 -0.624154
O4    O     O_R   0.398120 0.498820 0.616130 -0.621018
O5    O     O_R   0.614650 0.683240 0.500000 -0.618494
O6    O     O_R   0.385310 0.683210 0.500010 -0.628673
O7    O     O_R   0.601880 0.501180 0.383870 -0.628363
O8    O     O_R   0.372540 0.501140 0.383870 -0.616385
O9    O     O_3   0.877568 0.225754 0.610764 -0.592665
Zn1   Zn    Zn3+2 0.653130 0.500020 0.499990 0.950568
Zn2   Zn    Zn3+2 0.346870 0.499980 0.500010 0.946967

loop_
_geom_bond_atom_site_label_1
_geom_bond_atom_site_label_2
_ccdc_geom_bond_type
C22   N1    S    
O7    Zn1   S    
C10   N3    A    
O2    Zn2   S    
C3    H10   S    
C18   O8    A    
C6    C7    A    
C16   O6    A    
C23   C27   A    
C27   C29   A    
O3    Zn1   S    
C15   O9    S    
C8    H20   S    
C19   C20   A    
C21   H7    S    
C26   H16   S    
C30   C31   A    
C23   H2    S    
C15   H24   S    
C16   O5    A    
O8    Zn2   S    
C20   H9    S    
O6    Zn2   S    
C7    C8    S    
C18   C29   S    
C21   C22   A    
O1    Zn1   S    
C4    O4    A    
C11   C13   A    
C8    H19   S    
C1    C2    S    
C24   H4    S    
C11   H22   S    
C18   O7    A    
C25   O9    S    
C5    C6    A    
C1    O1    A    
C12   C19   A    
N4    Zn1   S    
N3    Zn2   S    
C5    H12   S    
C2    C3    A    
C26   H18   S    
C4    C19   S    
C4    O3    A    
C22   C24   A    
C26   H17   S    
N1    N2    D    
C9    H21   S    
C10   C17   S    
C29   C30   A    
C11   N3    A    
C9    C32   S    
C1    O2    A    
H13   N5    S    
C14   N4    A    
C13   N4    A    
C20   C21   A    
C30   H6    S    
C2    C32   A    
O5    Zn1   S    
C10   C14   A    
C28   N2    S    
C12   H5    S    
C15   C17   S    
C12   C24   A    
C14   C15   S    
C7    C32   A    
C17   H3    S    
C31   H8    S    
C13   H23   S    
C25   C26   S    
C23   C28   A    
O4    Zn2   S    
C6    C16   S    
C25   H14   S    
C28   C31   A    
C27   H1    S    
C25   H15   S    
C9    N5    S    
H11   N5    S    
C17   H25   S    
C8    C9    S    
C3    C5    A    
