data_mof_unit_2508.cif
_audit_creation_date              2012-12-11T16:11:47-0500
_audit_creation_method            fapswitch 2.2
_symmetry_space_group_name_H-M    P1
_symmetry_Int_Tables_number       1
_space_group_crystal_system       triclinic
_cell_length_a                    6.936272
_cell_length_b                    14.308309
_cell_length_c                    15.790063
_cell_angle_alpha                 90.036999
_cell_angle_beta                  89.95726
_cell_angle_gamma                 90.013038
_cell_volume                      1567.10489087

loop_
_atom_site_label
_atom_site_type_symbol
_atom_type_description
_atom_site_fract_x
_atom_site_fract_y
_atom_site_fract_z
_atom_type_partial_charge
O1    O     O_R   0.638960 0.835150 0.161940 -0.546542
O2    O     O_R   0.361040 0.164850 0.838060 -0.546352
O3    O     O_R   0.309170 0.846340 0.337470 -0.546181
O4    O     O_R   0.690830 0.153660 0.662530 -0.547389
O5    O     O_R   0.138810 0.664830 0.338070 -0.537388
O6    O     O_R   0.861190 0.335170 0.661930 -0.537944
C1    C     C_R   0.478197 0.868600 0.366599 0.678991
C2    C     C_R   0.521783 0.131346 0.633446 0.674696
O7    O     O_R   0.309250 0.846350 0.162570 -0.547380
O8    O     O_R   0.690750 0.153650 0.837430 -0.546863
O9    O     O_R   0.138880 0.664840 0.161920 -0.540746
O10   O     O_R   0.861120 0.335160 0.838080 -0.540089
C3    C     C_R   0.478360 0.868628 0.133439 0.663172
C4    C     C_R   0.521637 0.131360 0.866551 0.663895
O11   O     O_R   0.638880 0.835150 0.338090 -0.545540
O12   O     O_R   0.361120 0.164850 0.661910 -0.546032
O13   O     O_3   0.472380 0.690440 0.250000 -0.350024
O14   O     O_3   0.527620 0.309560 0.750000 -0.348722
V1    V     V_3+5 0.197550 0.761040 0.250010 1.444840
V2    V     V_3+5 0.802450 0.238960 0.749990 1.437902
O15   O     O_R   0.809160 0.653640 0.162540 -0.536101
O16   O     O_R   0.190840 0.346360 0.837460 -0.535419
C5    C     C_R   0.978232 0.631184 0.133579 0.727694
C6    C     C_R   0.021762 0.368845 0.866395 0.730395
O17   O     O_R   0.809090 0.653640 0.337440 -0.522465
O18   O     O_R   0.190910 0.346360 0.662560 -0.520733
C7    C     C_R   0.978120 0.631657 0.366617 0.799809
C8    C     C_R   0.021889 0.368368 0.633401 0.794792
V3    V     V_3+5 0.697540 0.738950 0.250000 1.492917
V4    V     V_3+5 0.302460 0.261050 0.750000 1.489184
O19   O     O_3   0.972580 0.809550 0.250010 -0.385466
O20   O     O_3   0.027420 0.190450 0.749990 -0.385832
C9    C     C_3   0.177960 0.533592 0.483382 -0.196161
C10   C     C_3   0.822114 0.466477 0.516660 -0.218798
C11   C     C_3   0.069532 0.541173 0.568413 0.551429
C12   C     C_3   0.930566 0.458897 0.431638 0.488497
H1    H     H_    0.324384 0.561682 0.470623 0.170197
H2    H     H_    0.675696 0.438374 0.529403 0.173802
C13   C     C_3   0.010270 0.438198 0.562694 -0.195197
C14   C     C_3   0.989802 0.561866 0.437354 -0.183253
C15   C     C_3   0.117406 0.429084 0.477272 -0.286614
C16   C     C_3   0.882692 0.570997 0.522783 -0.244896
H3    H     H_    0.212422 0.370269 0.458226 0.165267
H4    H     H_    0.787715 0.629823 0.541840 0.171359
C17   C     C_3   0.821463 0.479528 0.973111 -0.135544
C18   C     C_3   0.178524 0.520540 0.026826 -0.134963
C19   C     C_3   0.897797 0.463177 0.064054 -0.086676
C20   C     C_3   0.102184 0.536889 0.935880 -0.091636
H5    H     H_    0.811980 0.433234 0.116802 0.188415
H6    H     H_    0.187926 0.566832 0.883105 0.180514
H7    H     H_    0.673840 0.462508 0.950714 0.129231
H8    H     H_    0.326148 0.537559 0.049221 0.129286
C21   C     C_3   0.989508 0.561083 0.062779 -0.029545
C22   C     C_3   0.010478 0.438981 0.937163 -0.028757
C23   C     C_3   0.913210 0.578245 0.972633 -0.138048
C24   C     C_3   0.086774 0.421823 0.027307 -0.134408
H9    H     H_    0.841322 0.643103 0.950538 0.122925
H10   H     H_    0.158662 0.356965 0.049404 0.127181
C25   C     C_3   0.678007 0.970151 0.480671 -0.119687
C26   C     C_3   0.321894 0.029723 0.519441 -0.126100
C27   C     C_3   0.608549 0.072889 0.475965 -0.128401
C28   C     C_3   0.391343 0.926977 0.524145 -0.139061
H11   H     H_    0.698809 0.133319 0.456877 0.136540
H12   H     H_    0.301054 0.866552 0.543280 0.152128
H13   H     H_    0.825256 0.945467 0.464448 0.116210
H14   H     H_    0.174652 0.054422 0.535658 0.112534
C29   C     C_3   0.510301 0.061174 0.562702 -0.018409
C30   C     C_3   0.489611 0.938703 0.437402 -0.016955
C31   C     C_3   0.579634 0.959244 0.568221 -0.134188
C32   C     C_3   0.420263 0.040631 0.431892 -0.126732
H15   H     H_    0.645424 0.926126 0.624805 0.117514
H16   H     H_    0.354446 0.073753 0.375316 0.119177
C33   C     C_3   0.678576 0.972394 0.020929 -0.115557
C34   C     C_3   0.321417 0.027579 0.979048 -0.117149
C35   C     C_3   0.584959 0.960154 0.932558 -0.142015
C36   C     C_3   0.415033 0.039819 0.067418 -0.135230
H17   H     H_    0.655170 0.927750 0.876581 0.109358
H18   H     H_    0.344816 0.072223 0.123394 0.115442
H19   H     H_    0.826249 0.949515 0.038399 0.110797
H20   H     H_    0.173744 0.050458 0.961577 0.111094
C37   C     C_3   0.510149 0.061240 0.937361 -0.009652
C38   C     C_3   0.489844 0.938734 0.062617 -0.007852
C39   C     C_3   0.603668 0.074295 0.024936 -0.135985
C40   C     C_3   0.396325 0.925677 0.975041 -0.142214
H21   H     H_    0.689508 0.135934 0.045011 0.113823
H22   H     H_    0.310488 0.864038 0.954963 0.106118
S1    S     S_3+6 0.161393 0.597196 0.660608 -0.038733
O21   O     O_2   0.012494 0.592614 0.729644 -0.358850
O22   O     O_2   0.342268 0.548591 0.688880 -0.341562
O23   O     O_3   0.210622 0.709417 0.637882 -0.530959
H23   H     H_    0.263208 0.735873 0.691054 0.353525
S2    S     S_3+6 0.839080 0.402891 0.339296 -0.010011
O24   O     O_2   0.658196 0.451455 0.311070 -0.315621
O25   O     O_2   0.986973 0.407690 0.269860 -0.352448
O26   O     O_3   0.788596 0.290574 0.361049 -0.502122
H24   H     H_    0.912033 0.263626 0.380963 0.312545

loop_
_geom_bond_atom_site_label_1
_geom_bond_atom_site_label_2
_ccdc_geom_bond_type
C27   C32   S    
C20   C23   S    
S1    O21   D    
O13   V3    S    
O26   H24   S    
C10   C16   S    
O4    C2    A    
V1    O19   S    
C13   C15   S    
C20   C22   S    
O9    V1    S    
C34   C36   S    
C36   H18   S    
C40   H22   S    
O3    C1    A    
C35   C40   S    
C17   H7    S    
C6    C22   S    
C18   H8    S    
C26   C28   S    
C17   C19   S    
C31   H15   S    
C11   C16   S    
O7    C3    A    
C28   H12   S    
C9    C11   S    
C1    C30   S    
O5    C7    A    
C11   S1    S    
O7    V1    S    
O6    C8    A    
C26   C29   S    
O8    V2    S    
O3    V1    S    
O14   V4    S    
C10   C12   S    
C19   C21   S    
C12   S2    S    
C20   H6    S    
C26   H14   S    
C2    O12   A    
C34   H20   S    
C15   H3    S    
C12   C15   S    
C16   H4    S    
C36   C39   S    
O1    V3    S    
C37   C39   S    
O11   V3    S    
C18   C20   S    
C21   C23   S    
O17   V3    S    
C22   C24   S    
C25   C27   S    
C9    C14   S    
C10   C13   S    
C12   C14   S    
C19   H5    S    
O8    C4    A    
C36   C38   S    
C35   C37   S    
C1    O11   A    
C8    C13   S    
O15   V3    S    
C3    C38   S    
S2    O26   S    
C9    H1    S    
C28   C31   S    
C29   C31   S    
C11   C13   S    
C25   C30   S    
C27   C29   S    
C26   C32   S    
C7    C14   S    
O10   V2    S    
S2    O25   D    
C33   H19   S    
C35   H17   S    
C25   C31   S    
C5    C21   S    
C39   H21   S    
C17   C22   S    
O18   V4    S    
C38   C40   S    
C23   H9    S    
O16   C6    A    
O1    C3    A    
C33   C35   S    
C34   C37   S    
C33   C38   S    
V2    O20   S    
O16   V4    S    
C10   H2    S    
C27   H11   S    
C34   C40   S    
C14   C16   S    
O5    V1    S    
O17   C7    A    
O6    V2    S    
O10   C6    A    
O18   C8    A    
C28   C30   S    
O2    V4    S    
C9    C15   S    
O15   C5    A    
V3    O19   S    
C25   H13   S    
V4    O20   S    
O23   H23   S    
C18   C21   S    
O9    C5    A    
S2    O24   D    
O13   V1    S    
C24   H10   S    
O14   V2    S    
O2    C4    A    
O4    V2    S    
C17   C23   S    
C2    C29   S    
C30   C32   S    
S1    O23   S    
C18   C24   S    
S1    O22   D    
C32   H16   S    
C4    C37   S    
O12   V4    S    
C33   C39   S    
C19   C24   S    
