data_mof_unit_1031.cif
_audit_creation_date              2012-12-10T17:51:25-0500
_audit_creation_method            fapswitch 2.2
_symmetry_space_group_name_H-M    P1
_symmetry_Int_Tables_number       1
_space_group_crystal_system       triclinic
_cell_length_a                    14.673413
_cell_length_b                    14.742385
_cell_length_c                    17.211407
_cell_angle_alpha                 106.353593
_cell_angle_beta                  73.30992
_cell_angle_gamma                 115.055082
_cell_volume                      3175.39787921

loop_
_atom_site_label
_atom_site_type_symbol
_atom_type_description
_atom_site_fract_x
_atom_site_fract_y
_atom_site_fract_z
_atom_type_partial_charge
C1    C     C_R   0.118309 0.688262 0.517624 0.794923
C2    C     C_R   0.881764 0.311938 0.480518 0.790437
C3    C     C_R   0.184078 0.797057 0.533345 -0.148316
C4    C     C_R   0.815686 0.204580 0.456357 -0.139293
C5    C     C_R   0.218047 0.972532 0.602974 -0.141005
C6    C     C_R   0.780475 0.035380 0.371977 -0.130436
C7    C     C_R   0.150394 0.870802 0.592551 -0.018705
C8    C     C_R   0.850451 0.134223 0.393332 -0.016768
C9    C     C_R   0.284916 0.826262 0.488999 -0.149383
C10   C     C_R   0.711696 0.175394 0.493018 -0.211590
C11   C     C_R   0.356361 0.926256 0.505065 0.088602
C12   C     C_R   0.639238 0.080593 0.464953 0.089520
C13   C     C_R   0.320360 0.000020 0.561677 0.102145
C14   C     C_R   0.675821 0.008889 0.406041 0.097909
C15   C     C_R   0.462872 0.954206 0.469330 0.071715
C16   C     C_R   0.531811 0.055062 0.494116 0.071776
C17   C     C_R   0.491002 0.127852 0.545636 -0.183577
C18   C     C_R   0.503230 0.884594 0.411011 -0.120852
C19   C     C_R   0.387319 0.100454 0.578845 -0.179120
C20   C     C_R   0.607495 0.912005 0.379709 -0.174073
C21   C     C_R   0.315368 0.363469 0.340283 -0.203128
C22   C     C_R   0.700486 0.662969 0.647029 -0.198337
C23   C     C_R   0.989142 0.502899 0.652749 0.847446
C24   C     C_R   0.011932 0.498643 0.347531 0.843234
C25   C     C_R   0.222994 0.377621 0.371756 0.106502
C26   C     C_R   0.783194 0.631838 0.623496 0.110219
C27   C     C_R   0.283699 0.484774 0.491728 0.109152
C28   C     C_R   0.717817 0.519091 0.506964 0.109427
C29   C     C_R   0.384159 0.482202 0.459387 -0.023175
C30   C     C_R   0.635637 0.554013 0.523555 -0.023365
C31   C     C_R   0.397863 0.416818 0.382489 0.068589
C32   C     C_R   0.625922 0.625225 0.597414 0.067076
C33   C     C_R   0.469756 0.539695 0.501296 0.001494
C34   C     C_R   0.561377 0.517723 0.471270 -0.001064
C35   C     C_R   0.577436 0.465097 0.388325 -0.089907
C36   C     C_R   0.470289 0.622189 0.569156 -0.068942
C37   C     C_R   0.494592 0.410030 0.346686 0.187693
C38   C     C_R   0.544856 0.660606 0.618873 0.194050
C39   C     C_R   0.987301 0.511438 0.739568 -0.146506
C40   C     C_R   0.019293 0.497040 0.261181 -0.131193
C41   C     C_R   0.080954 0.554942 0.766364 -0.266491
C42   C     C_R   0.930435 0.445699 0.227753 -0.239586
C43   C     C_R   0.083220 0.567964 0.849080 0.305179
C44   C     C_R   0.934735 0.440082 0.144836 0.308969
C45   C     C_R   0.990380 0.535317 0.905663 0.022171
C46   C     C_R   0.029498 0.486520 0.094850 0.014664
C47   C     C_R   0.896797 0.494267 0.879478 -0.169817
C48   C     C_R   0.118847 0.535470 0.127579 -0.170248
C49   C     C_R   0.894357 0.481459 0.796765 0.262118
C50   C     C_R   0.114451 0.541798 0.210676 0.257802
C51   C     C_2   0.987796 0.536848 0.991392 -0.098146
C52   C     C_2   0.036956 0.489357 0.009269 -0.103921
Cu1   Cu    Cu3+1 0.916740 0.524770 0.521640 0.991374
Cu2   Cu    Cu3+1 0.083260 0.475230 0.478360 0.987922
H1    H     H_    0.152576 0.580836 0.723103 0.172848
H2    H     H_    0.858248 0.407808 0.265875 0.159607
H3    H     H_    0.537014 0.207467 0.561015 0.149369
H4    H     H_    0.456634 0.808206 0.386819 0.185550
H5    H     H_    0.723578 0.456949 0.457238 0.107761
H6    H     H_    0.264131 0.524483 0.552973 0.115857
H7    H     H_    0.840556 0.663058 0.661419 0.135178
H8    H     H_    0.163785 0.342349 0.335463 0.133462
H9    H     H_    0.321811 0.313604 0.281206 0.205782
H10   H     H_    0.697197 0.717663 0.703673 0.207635
H11   H     H_    0.086938 0.456688 0.961190 0.188284
H12   H     H_    0.936591 0.567653 0.039879 0.187245
H13   H     H_    0.825452 0.468721 0.923097 0.208364
H14   H     H_    0.191590 0.571576 0.088956 0.208144
H15   H     H_    0.359732 0.158143 0.619952 0.157595
H16   H     H_    0.634859 0.856585 0.334407 0.170724
H17   H     H_    0.689183 0.228998 0.543592 0.173104
H18   H     H_    0.305921 0.767835 0.443625 0.199393
H19   H     H_    0.192849 0.029749 0.647792 0.181657
H20   H     H_    0.806607 0.980556 0.324584 0.184311
N1    N     N_R   0.208390 0.438070 0.445820 -0.194160
N2    N     N_R   0.791610 0.561930 0.554180 -0.189934
O1    O     O_R   0.020090 0.662480 0.528530 -0.592774
O2    O     O_R   0.979910 0.337520 0.471470 -0.592460
O3    O     O_R   0.160710 0.620650 0.491980 -0.543628
O4    O     O_R   0.839290 0.379350 0.508020 -0.577431
O5    O     O_R   0.921540 0.523360 0.633990 -0.563412
O6    O     O_R   0.078460 0.476640 0.366010 -0.571364
O7    O     O_R   0.062170 0.481520 0.597440 -0.593028
O8    O     O_R   0.937830 0.518480 0.402560 -0.565605
Br1   Br    Br    0.516747 0.330124 0.237059 -0.436607
Br2   Br    Br    0.538163 0.767184 0.714577 -0.435850
C53   C     C_2   0.682226 0.482359 0.338035 0.392937
H21   H     H_    0.698714 0.421145 0.292122 0.128334
O9    O     O_2   0.750407 0.566616 0.345632 -0.503641
C54   C     C_2   0.407727 0.683368 0.579875 0.375749
H22   H     H_    0.371806 0.711751 0.640852 0.126495
O10   O     O_2   0.398213 0.704985 0.520007 -0.555572
Br3   Br    Br    0.239274 0.617578 0.252655 -0.466314
Br4   Br    Br    0.762461 0.416135 0.765293 -0.448748
Br5   Br    Br    0.810639 0.364533 0.102080 -0.436722
Br6   Br    Br    0.214302 0.635563 0.881781 -0.452027
C55   C     C_2   0.955680 0.163646 0.343404 0.402690
H23   H     H_    0.997170 0.240804 0.332447 0.059387
O11   O     O_2   0.995782 0.100937 0.311564 -0.511509
C56   C     C_2   0.049325 0.843130 0.649247 0.413165
H24   H     H_    0.011645 0.768001 0.665082 0.058471
O12   O     O_2   0.008312 0.905134 0.680874 -0.513473

loop_
_geom_bond_atom_site_label_1
_geom_bond_atom_site_label_2
_ccdc_geom_bond_type
C15   C18   A    
C53   H21   S    
C29   C33   A    
C27   C29   A    
C1    O1    A    
Cu1   O1    S    
C9    H18   S    
C4    C8    A    
C55   H23   S    
C39   C41   A    
Cu1   Cu2   S    
C21   C31   A    
C22   C32   A    
C38   Br2   S    
Cu1   O8    S    
C2    O2    A    
C37   Br1   S    
C35   C37   A    
C26   H7    S    
C3    C7    A    
C27   H6    S    
C23   C39   S    
C45   C51   S    
C35   C53   S    
C15   C16   A    
C46   C52   S    
C33   C36   A    
Cu1   O5    S    
C34   C35   A    
C23   O7    A    
C24   O6    A    
C41   H1    S    
C42   H2    S    
C11   C15   A    
C18   H4    S    
C12   C16   A    
C16   C17   A    
C26   N2    A    
C32   C38   A    
C49   Br4   S    
C5    C13   A    
C10   H17   S    
C40   C42   A    
C41   C43   A    
C20   H16   S    
C42   C44   A    
C27   N1    A    
C47   H13   S    
Cu2   O7    S    
C55   O11   D    
C44   C46   A    
C6    H20   S    
C45   C47   A    
C46   C48   A    
C7    C56   S    
C30   C34   A    
C51   C52   D    
C14   C20   A    
Cu1   O4    S    
C47   C49   A    
C5    C7    A    
C13   C19   A    
C6    C8    A    
C31   C37   A    
C1    C3    S    
C51   H12   S    
C2    C4    S    
C8    C55   S    
C3    C9    A    
C6    C14   A    
C43   C45   A    
C54   O10   D    
C56   O12   D    
C43   Br6   S    
C48   H14   S    
C48   C50   A    
C9    C11   A    
C10   C12   A    
C39   C49   A    
C12   C14   A    
C53   O9    D    
C1    O3    A    
C19   H15   S    
Cu1   N2    S    
C4    C10   A    
C28   N2    A    
Cu2   O6    S    
Cu2   O3    S    
C28   H5    S    
C36   C54   S    
C21   C25   A    
C24   C40   S    
C23   O5    A    
C50   Br3   S    
C36   C38   A    
C24   O8    A    
C29   C31   A    
C44   Br5   S    
C30   C32   A    
C11   C13   A    
C54   H22   S    
C40   C50   A    
C28   C30   A    
C56   H24   S    
C17   C19   A    
C33   C34   A    
C18   C20   A    
C25   H8    S    
C5    H19   S    
C21   H9    S    
C2    O4    A    
C22   H10   S    
Cu2   N1    S    
C22   C26   A    
C25   N1    A    
C52   H11   S    
C17   H3    S    
Cu2   O2    S    
