data_mof_unit_1613.cif
_audit_creation_date              2012-12-11T15:41:24-0500
_audit_creation_method            fapswitch 2.2
_symmetry_space_group_name_H-M    P1
_symmetry_Int_Tables_number       1
_space_group_crystal_system       triclinic
_cell_length_a                    14.835511
_cell_length_b                    14.809051
_cell_length_c                    14.862811
_cell_angle_alpha                 108.800239
_cell_angle_beta                  109.651043
_cell_angle_gamma                 109.150485
_cell_volume                      2538.4409323

loop_
_atom_site_label
_atom_site_type_symbol
_atom_type_description
_atom_site_fract_x
_atom_site_fract_y
_atom_site_fract_z
_atom_type_partial_charge
C1    C     C_R   0.195187 0.995897 0.904002 -0.118877
C2    C     C_R   0.804284 0.911395 0.413761 -0.128744
C3    C     C_R   0.193327 0.314787 0.972450 -0.171192
C4    C     C_R   0.706310 0.813328 0.337068 -0.143371
C5    C     C_R   0.297394 0.348275 0.055913 0.108688
C6    C     C_R   0.705166 0.727992 0.258625 0.114288
C7    C     C_R   0.304183 0.302725 0.126159 -0.144315
C8    C     C_R   0.803946 0.741838 0.259488 -0.184733
C9    C     C_R   0.209032 0.226397 0.113907 -0.088916
C10   C     C_R   0.901718 0.840042 0.336467 -0.103521
C11   C     C_R   0.106232 0.195476 0.032273 -0.075682
C12   C     C_R   0.748342 0.933022 0.025761 -0.119849
C13   C     C_R   0.901876 0.924766 0.413415 -0.088276
C14   C     C_R   0.402334 0.529541 0.074107 -0.230211
C15   C     C_R   0.597387 0.526535 0.166833 -0.231035
C16   C     C_R   0.800886 0.209393 0.301970 -0.136084
C17   C     C_R   0.246593 0.777865 0.685460 -0.124865
C18   C     C_R   0.502720 0.620702 0.112889 0.053114
C19   C     C_R   0.497225 0.428569 0.102655 0.053549
C20   C     C_R   0.600809 0.624649 0.177086 0.031249
C21   C     C_R   0.399179 0.434324 0.074463 0.033969
C22   C     C_R   0.059425 0.430353 0.405732 0.055793
C23   C     C_R   0.860917 0.302297 0.302938 0.070509
C24   C     C_R   0.023846 0.544713 0.570577 0.051138
C25   C     C_R   0.147389 0.523771 0.499919 -0.247183
C26   C     C_R   0.937302 0.451802 0.477641 -0.236753
C27   C     C_R   0.129034 0.579336 0.581451 0.053934
C28   C     C_R   0.955345 0.395335 0.396727 0.049107
C29   C     C_R   0.595088 0.167408 0.624517 -0.244680
C30   C     C_R   0.400966 0.067574 0.429153 -0.244710
C31   C     C_R   0.598914 0.168759 0.532849 0.074970
C32   C     C_R   0.396857 0.072589 0.522567 0.082578
C33   C     C_R   0.501461 0.102174 0.430337 0.055474
C34   C     C_R   0.218516 0.675840 0.676836 0.054266
C35   C     C_R   0.494742 0.107136 0.616468 0.053702
C36   C     C_R   0.963542 0.838933 0.940312 -0.165207
C37   C     C_R   0.866811 0.935818 0.836872 -0.188347
C38   C     C_R   0.871399 0.840438 0.941975 -0.166765
C39   C     C_R   0.959035 0.934073 0.834896 -0.165239
C40   C     C_R   0.408788 0.976310 0.223472 -0.128447
C41   C     C_R   0.588862 0.097999 0.790755 -0.136994
C42   C     C_R   0.831329 0.900896 0.901983 0.140086
C43   C     C_R   0.014683 0.896653 0.897348 0.144964
C44   C     C_R   0.590038 0.313770 0.066402 -0.119905
C45   C     C_R   0.501249 0.053064 0.326575 0.062975
C46   C     C_R   0.410451 0.701710 0.008544 -0.127599
C47   C     C_R   0.592223 0.063458 0.314307 -0.132837
C48   C     C_R   0.407102 0.003733 0.699775 -0.139591
C49   C     C_R   0.406646 0.222431 0.972801 -0.128734
C50   C     C_R   0.592206 0.791311 0.096312 -0.149801
C51   C     C_R   0.801471 0.301482 0.209620 -0.143364
C52   C     C_R   0.248835 0.685655 0.779257 -0.116993
C53   C     C_R   0.195731 0.904018 0.995750 -0.146696
C54   C     C_R   0.748107 0.025564 0.933145 -0.128576
C55   C     C_R   0.130883 0.932721 0.932665 0.048352
C56   C     C_R   0.496341 0.069885 0.697864 0.071656
C57   C     C_R   0.773552 0.947178 0.947573 0.034110
C58   C     C_1   0.076872 0.371616 0.320565 0.034661
C59   C     C_1   0.002359 0.604331 0.651896 0.050813
C60   C     C_1   0.703209 0.239360 0.548417 -0.000312
C61   C     C_1   0.291820 0.043285 0.517652 -0.005254
C62   C     C_R   0.497260 0.324843 0.052299 0.052980
C63   C     C_R   0.502399 0.700538 0.073255 0.064991
C64   C     C_R   0.098310 0.238663 0.960887 -0.126128
H1    H     H_    0.167590 0.020194 0.843371 0.089844
H2    H     H_    0.977329 0.850556 0.336203 0.118247
H3    H     H_    0.326426 0.531618 0.042604 0.119048
H4    H     H_    0.673409 0.526932 0.206903 0.123891
H5    H     H_    0.229339 0.553290 0.510086 0.140032
H6    H     H_    0.855092 0.424002 0.466935 0.148980
H7    H     H_    0.671652 0.208899 0.700119 0.124769
H8    H     H_    0.324684 0.030863 0.354479 0.125219
H9    H     H_    0.999897 0.802366 0.982836 0.107666
H10   H     H_    0.832521 0.976132 0.798253 0.111205
H11   H     H_    0.828816 0.181440 0.359222 0.102357
H12   H     H_    0.758480 0.879488 0.058220 0.094956
H13   H     H_    0.226581 0.797405 0.619813 0.104409
H14   H     H_    0.840576 0.804968 0.985624 0.109886
H15   H     H_    0.992411 0.972974 0.794688 0.114666
H16   H     H_    0.323709 0.946502 0.201893 0.095699
H17   H     H_    0.672273 0.159289 0.823465 0.086819
H18   H     H_    0.674635 0.376567 0.119832 0.093357
H19   H     H_    0.326525 0.651510 0.985887 0.085329
H20   H     H_    0.677233 0.109785 0.375623 0.110936
H21   H     H_    0.321783 0.974834 0.648804 0.110655
H22   H     H_    0.321151 0.199967 0.937622 0.116794
H23   H     H_    0.018431 0.213662 0.897012 0.106768
H24   H     H_    0.677308 0.823774 0.151935 0.119712
H25   H     H_    0.829514 0.358675 0.181874 0.097296
H26   H     H_    0.231038 0.620763 0.800068 0.101249
H27   H     H_    0.169033 0.842877 0.019500 0.089527
H28   H     H_    0.757649 0.057956 0.879505 0.093008
H29   H     H_    0.032752 0.138351 0.024782 0.122578
H30   H     H_    0.977625 0.000774 0.472787 0.111890
H31   H     H_    0.804514 0.977058 0.473414 0.110461
H32   H     H_    0.185543 0.347325 0.916330 0.110229
H33   H     H_    0.631254 0.804085 0.338234 0.117732
H34   H     H_    0.383141 0.327514 0.191499 0.118218
H35   H     H_    0.804957 0.677418 0.199647 0.111501
H36   H     H_    0.214935 0.192264 0.168659 0.115049
N1    N     N_R   0.293810 0.002730 0.945950 -0.041000
N2    N     N_R   0.443210 0.997250 0.791090 -0.041407
N3    N     N_R   0.443180 0.152110 0.945950 -0.042734
N4    N     N_R   0.556820 0.847890 0.054050 -0.040819
N5    N     N_R   0.706170 0.208950 0.152090 -0.040537
N6    N     N_R   0.293830 0.791050 0.847910 -0.041547
N7    N     N_R   0.293800 0.945910 0.002760 -0.038687
N8    N     N_R   0.706200 0.054090 0.997240 -0.038535
N9    N     N_1   0.090682 0.324436 0.252225 -0.087461
N10   N     N_1   0.985197 0.651983 0.716871 -0.083604
N11   N     N_1   0.787216 0.296700 0.562085 -0.100362
N12   N     N_R   0.706190 0.997270 0.054050 -0.039501
N13   N     N_1   0.207179 0.020324 0.512769 -0.111374
N14   N     N_R   0.706160 0.152130 0.208910 -0.040471
N15   N     N_R   0.293840 0.847870 0.791090 -0.042264
N16   N     N_R   0.443140 0.945920 0.152090 -0.041591
N17   N     N_R   0.556860 0.054080 0.847910 -0.039514
N18   N     N_R   0.556830 0.208940 0.002760 -0.041436
N19   N     N_R   0.443170 0.791060 0.997240 -0.039702
N20   N     N_R   0.556790 0.002750 0.208910 -0.042236
Ni1   Ni    Ni4+2 0.369690 0.999990 0.869700 0.214176
Ni2   Ni    Ni4+2 0.630310 0.000010 0.130300 0.215993
Ni3   Ni    Ni4+2 0.369670 0.869670 0.000000 0.210679
Ni4   Ni    Ni4+2 0.630330 0.130330 0.000000 0.211819

loop_
_geom_bond_atom_site_label_1
_geom_bond_atom_site_label_2
_ccdc_geom_bond_type
N1    N7    A    
C37   H10   S    
C50   N4    A    
N15   Ni1   S    
N16   Ni3   S    
C58   N9    T    
C33   C45   S    
C14   C18   A    
C53   C55   A    
C52   H26   S    
C24   C27   A    
N7    Ni3   S    
C9    H36   S    
N6    N15   A    
C3    C64   A    
C15   C19   A    
C6    C8    A    
C14   C21   A    
C2    H31   S    
C7    H34   S    
C8    H35   S    
C24   C26   A    
C32   C61   S    
C38   C42   A    
C44   H18   S    
C18   C63   S    
N4    Ni2   S    
C19   C62   S    
C16   H11   S    
C59   N10   T    
C48   C56   A    
C37   C42   A    
C2    C13   A    
C22   C25   A    
N6    Ni3   S    
C53   H27   S    
C1    H1    S    
C14   H3    S    
C40   H16   S    
C3    H32   S    
N2    Ni1   S    
C64   H23   S    
C50   H24   S    
N4    N19   A    
C11   H29   S    
C45   C47   A    
C52   N6    A    
C22   C28   A    
C4    H33   S    
C50   C63   A    
C40   C45   A    
N8    Ni4   S    
C42   C57   S    
C17   H13   S    
N20   Ni2   S    
C10   H2    S    
C27   C34   S    
C15   C20   A    
C32   C35   A    
N5    N14   A    
C4    C6    A    
C11   C64   A    
C5    C7    A    
C39   C43   A    
C38   H14   S    
C44   C62   A    
C47   H20   S    
N1    Ni1   S    
N8    N12   A    
N5    Ni4   S    
C39   H15   S    
C31   C60   S    
C2    C4    A    
C41   C56   A    
C54   H28   S    
C49   N3    A    
C53   N7    A    
C23   C51   A    
C44   N18   A    
C51   N5    A    
C41   H17   S    
C31   C33   A    
N18   Ni4   S    
C23   C28   S    
C9    C11   A    
N2    N17   A    
C12   C57   A    
C43   C55   S    
C47   N20   A    
C16   C23   A    
C12   H12   S    
C61   N13   T    
C26   H6    S    
N3    N18   A    
C25   H5    S    
C17   C34   A    
N3    Ni1   S    
C1    N1    A    
C12   N12   A    
C17   N15   A    
C7    C9    A    
C49   C62   A    
C30   C33   A    
C19   C21   A    
C35   C56   S    
C34   C52   A    
C49   H22   S    
N17   Ni4   S    
C8    C10   A    
C48   N2    A    
C3    C5    A    
C10   C13   A    
C16   N14   A    
C22   C58   S    
C30   H8    S    
N19   Ni3   S    
C25   C27   A    
C6    C20   S    
N12   Ni2   S    
C29   C35   A    
C26   C28   A    
C54   N8    A    
C13   H30   S    
C36   C38   A    
C1    C55   A    
C29   C31   A    
C60   N11   T    
C51   H25   S    
C30   C32   A    
C40   N16   A    
C46   C63   A    
C24   C59   S    
C15   H4    S    
C46   N19   A    
C18   C20   A    
C36   H9    S    
C46   H19   S    
N14   Ni2   S    
N16   N20   A    
C5    C21   S    
C37   C39   A    
C48   H21   S    
C36   C43   A    
C41   N17   A    
C29   H7    S    
C54   C57   A    
