data_mof_unit_314.cif
_audit_creation_date              2012-12-10T17:50:33-0500
_audit_creation_method            fapswitch 2.2
_symmetry_space_group_name_H-M    P1
_symmetry_Int_Tables_number       1
_space_group_crystal_system       triclinic
_cell_length_a                    15.720856
_cell_length_b                    10.673299
_cell_length_c                    9.89451
_cell_angle_alpha                 89.296888
_cell_angle_beta                  89.975163
_cell_angle_gamma                 91.536777
_cell_volume                      1659.51083651

loop_
_atom_site_label
_atom_site_type_symbol
_atom_type_description
_atom_site_fract_x
_atom_site_fract_y
_atom_site_fract_z
_atom_type_partial_charge
C1    C     C_R   0.504499 0.259278 0.501645 0.863462
C2    C     C_3   0.082825 0.499559 0.499024 0.088721
C3    C     C_3   0.973801 0.601272 0.566366 -0.241396
C4    C     C_3   0.917320 0.499847 0.500291 0.112478
C5    C     C_3   0.030046 0.604739 0.437596 -0.238226
C6    C     C_3   0.971671 0.503587 0.371516 -0.107341
C7    C     C_1   0.173705 0.499402 0.499725 -0.003866
C8    C     C_1   0.826408 0.500045 0.500178 -0.033409
C9    C     C_R   0.517510 0.102563 0.757946 -0.170038
C10   C     C_R   0.491246 0.039797 0.875674 -0.196388
C11   C     C_R   0.439875 0.932198 0.867264 -0.160500
C12   C     C_R   0.337956 0.499357 0.500015 0.873482
C13   C     C_R   0.422163 0.879150 0.741246 0.201001
C14   C     C_R   0.460597 0.933411 0.622800 0.090665
C15   C     C_R   0.494699 0.055582 0.629255 0.057505
C16   C     C_R   0.504229 0.124161 0.505748 -0.109373
C17   C     C_R   0.498267 0.063260 0.381593 -0.221193
C18   C     C_R   0.485303 0.936151 0.378743 -0.219231
C19   C     C_R   0.471356 0.869918 0.499467 -0.131676
C20   C     C_R   0.388921 0.334885 0.142139 -0.162023
C21   C     C_R   0.334693 0.253183 0.072741 -0.205041
C22   C     C_R   0.334690 0.253434 0.932917 -0.155007
C23   C     C_R   0.488822 0.738237 0.499581 0.892138
C24   C     C_R   0.389081 0.335159 0.861710 -0.138433
C25   C     C_R   0.445410 0.418570 0.928637 0.141517
C26   C     C_R   0.445390 0.418545 0.073342 0.169589
C27   C     C_R   0.551841 0.578464 0.070465 -0.119699
C28   C     C_R   0.551801 0.578452 0.927237 -0.115591
C29   C     C_R   0.662063 0.500331 0.500001 0.914514
C30   C     C_3   0.969847 0.394389 0.561915 -0.241945
C31   C     C_3   0.026107 0.398397 0.433155 -0.238256
C32   C     C_1   0.249021 0.499333 0.500035 -0.169328
C33   C     C_1   0.751062 0.500200 0.500030 -0.189505
C34   C     C_3   0.027772 0.495882 0.625696 0.696937
H1    H     H_    0.049534 0.315924 0.378439 0.161921
H2    H     H_    0.413502 0.890369 0.958953 0.145434
H3    H     H_    0.489518 0.889572 0.282340 0.170464
H4    H     H_    0.594151 0.642551 0.123478 0.148463
H5    H     H_    0.384293 0.329720 0.249262 0.207303
H6    H     H_    0.292228 0.189524 0.127992 0.153720
H7    H     H_    0.292455 0.189688 0.879082 0.157903
H8    H     H_    0.385361 0.329557 0.754648 0.208099
H9    H     H_    0.594034 0.642599 0.872403 0.156111
H10   H     H_    0.943507 0.309101 0.613865 0.154958
H11   H     H_    0.946335 0.506763 0.266851 0.156015
H12   H     H_    0.056678 0.690285 0.386505 0.162209
H13   H     H_    0.950664 0.683447 0.621915 0.154970
H14   H     H_    0.505927 0.113058 0.286056 0.172033
H15   H     H_    0.557788 0.185197 0.769946 0.176991
H16   H     H_    0.507473 0.078008 0.973498 0.153193
N1    N     N_R   0.499210 0.498800 0.142780 -0.120552
N2    N     N_R   0.499180 0.498720 0.857170 -0.130218
O1    O     O_R   0.500000 0.316780 0.614690 -0.651149
O2    O     O_R   0.499990 0.316750 0.385360 -0.640118
O3    O     O_R   0.376780 0.500000 0.614650 -0.633547
O4    O     O_R   0.376770 0.499980 0.385310 -0.631114
O5    O     O_R   0.500010 0.683250 0.614640 -0.609325
O6    O     O_R   0.500000 0.683220 0.385310 -0.622611
O7    O     O_R   0.623230 0.500020 0.614690 -0.610180
O8    O     O_R   0.623220 0.500000 0.385350 -0.607427
Zn1   Zn    Zn3+2 0.500010 0.500020 0.653130 0.926077
Zn2   Zn    Zn3+2 0.499990 0.499980 0.346870 0.936075
C35   C     C_3   0.354450 0.776622 0.736330 -0.825007
H17   H     H_    0.337189 0.751886 0.631157 0.221431
H18   H     H_    0.376085 0.692313 0.791860 0.267262
H19   H     H_    0.295664 0.809122 0.785643 0.225144
F1    F     F_    0.059091 0.491920 0.756193 -0.669072

loop_
_geom_bond_atom_site_label_1
_geom_bond_atom_site_label_2
_ccdc_geom_bond_type
C34   F1    S    
O6    Zn2   S    
C23   O6    A    
C19   C23   S    
C1    O2    A    
C35   H18   S    
C24   C25   A    
O5    Zn1   S    
C6    H11   S    
C22   H7    S    
C24   H8    S    
C9    C10   A    
C29   O7    A    
C28   H9    S    
C26   N1    A    
C2    C7    S    
C13   C35   S    
C17   H14   S    
C30   C31   S    
C4    C8    S    
C2    C34   S    
C17   C18   A    
C9    C15   A    
C25   N2    A    
C1    C16   S    
C13   C14   A    
C12   C32   S    
C28   N2    A    
C30   H10   S    
C12   O4    A    
N1    Zn2   S    
C20   C26   A    
C11   C13   A    
O3    Zn1   S    
C31   H1    S    
C4    C6    S    
C11   H2    S    
C18   H3    S    
C27   N1    A    
C6    C31   S    
C22   C24   A    
N2    Zn1   S    
C5    C6    S    
O4    Zn2   S    
C35   H19   S    
C2    C5    S    
O7    Zn1   S    
C10   C11   A    
C30   C34   S    
C27   H4    S    
C35   H17   S    
C10   H16   S    
C29   C33   S    
C12   O3    A    
C9    H15   S    
C20   C21   A    
O8    Zn2   S    
C18   C19   A    
C5    H12   S    
C3    H13   S    
C27   C28   A    
C23   O5    A    
C20   H5    S    
C1    O1    A    
C14   C15   A    
C2    C31   S    
C7    C32   T    
O2    Zn2   S    
C3    C34   S    
C25   C26   A    
C21   C22   A    
C29   O8    A    
O1    Zn1   S    
C14   C19   A    
C4    C30   S    
C3    C4    S    
C15   C16   A    
C16   C17   A    
C8    C33   T    
C3    C5    S    
C21   H6    S    
