data_mof_unit_3448.cif
_audit_creation_date              2012-12-11T14:30:15-0500
_audit_creation_method            fapswitch 2.2
_symmetry_space_group_name_H-M    P1
_symmetry_Int_Tables_number       1
_space_group_crystal_system       monoclinic
_cell_length_a                    13.327723
_cell_length_b                    13.373167
_cell_length_c                    27.072171
_cell_angle_alpha                 90.0
_cell_angle_beta                  90.0
_cell_angle_gamma                 119.851167
_cell_volume                      4184.97934855

loop_
_atom_site_label
_atom_site_type_symbol
_atom_type_description
_atom_site_fract_x
_atom_site_fract_y
_atom_site_fract_z
_atom_type_partial_charge
C1    C     C_R   0.567926 0.451187 0.824300 0.561758
C2    C     C_R   0.455511 0.562899 0.177734 0.535869
C3    C     C_R   0.030601 0.317413 0.475894 0.161960
C4    C     C_R   0.301243 0.993847 0.025785 0.115271
C5    C     C_R   0.695836 0.701802 0.473299 0.153165
C6    C     C_R   0.306609 0.005604 0.526276 0.115516
C7    C     C_R   0.998521 0.300578 0.973431 0.146967
C8    C     C_R   0.712955 0.684664 0.523739 0.156324
C9    C     C_R   0.306610 0.005604 0.973724 0.115516
C10   C     C_R   0.998521 0.300578 0.526569 0.146967
C11   C     C_R   0.712955 0.684664 0.976261 0.156324
C12   C     C_R   0.438451 0.893986 0.322117 0.540159
C13   C     C_R   0.114986 0.548289 0.176049 0.559662
C14   C     C_R   0.031161 0.495699 0.969076 0.002215
C15   C     C_R   0.490733 0.010247 0.526413 0.028862
C16   C     C_R   0.556718 0.486616 0.981649 0.010966
C17   C     C_R   0.031161 0.495699 0.530924 0.002215
C18   C     C_R   0.490733 0.010247 0.973587 0.028862
C19   C     C_R   0.556718 0.486616 0.518350 0.010966
C20   C     C_R   0.477815 0.984012 0.475186 0.019987
C21   C     C_R   0.892475 0.436983 0.677675 0.533237
C22   C     C_R   0.065471 0.513188 0.019120 0.009309
C23   C     C_R   0.539260 0.503931 0.468308 0.001943
C24   C     C_R   0.477815 0.984012 0.024814 0.019987
C25   C     C_R   0.065471 0.513188 0.480880 0.009309
C26   C     C_R   0.539260 0.503931 0.031692 0.001942
C27   C     C_R   0.104948 0.696862 0.960519 0.172963
C28   C     C_R   0.651062 0.978456 0.526228 0.108446
C29   C     C_R   0.398873 0.293053 0.989563 0.078117
C30   C     C_R   0.104948 0.696862 0.539481 0.172963
C31   C     C_R   0.651062 0.978456 0.973772 0.108445
C32   C     C_R   0.543609 0.104992 0.821703 0.567605
C33   C     C_R   0.398873 0.293053 0.510437 0.078117
C34   C     C_R   0.667914 0.010840 0.476465 0.188926
C35   C     C_R   0.098920 0.706268 0.011492 0.078438
C36   C     C_R   0.415753 0.302093 0.459508 0.170461
C37   C     C_R   0.667914 0.010840 0.023535 0.188927
C38   C     C_R   0.098920 0.706268 0.488508 0.078438
C39   C     C_R   0.415753 0.302093 0.040492 0.170460
C40   C     C_R   0.993102 0.573278 0.893580 0.097588
C41   C     C_R   0.597841 0.032372 0.603553 0.103856
C42   C     C_R   0.479846 0.367426 0.907304 0.099509
C43   C     C_R   0.567926 0.451187 0.675700 0.561758
C44   C     C_R   0.993102 0.573278 0.606420 0.097588
C45   C     C_R   0.597841 0.032372 0.896447 0.103856
C46   C     C_R   0.479846 0.367426 0.592696 0.099509
C47   C     C_R   0.563971 0.960963 0.398744 0.103220
C48   C     C_R   0.106931 0.631760 0.093559 0.100734
C49   C     C_R   0.425110 0.425119 0.392467 0.098698
C50   C     C_R   0.563971 0.960963 0.101256 0.103219
C51   C     C_R   0.106931 0.631760 0.406441 0.100734
C52   C     C_R   0.425110 0.425119 0.107533 0.098698
C53   C     C_R   0.087612 0.536678 0.122509 0.028514
C54   C     C_R   0.892475 0.436983 0.822325 0.533236
C55   C     C_R   0.466013 0.944174 0.372553 0.012452
C56   C     C_R   0.483603 0.535341 0.128533 0.000928
C57   C     C_R   0.087612 0.536678 0.377491 0.028514
C58   C     C_R   0.466013 0.944174 0.127446 0.012452
C59   C     C_R   0.483603 0.535341 0.371467 0.000928
C60   C     C_R   0.517956 0.051331 0.628690 0.056499
C61   C     C_R   0.947674 0.464477 0.871635 0.002401
C62   C     C_R   0.554142 0.462641 0.621859 0.028813
C63   C     C_R   0.517956 0.051331 0.871310 0.056499
C64   C     C_R   0.947674 0.464477 0.628365 0.002401
C65   C     C_R   0.543609 0.104992 0.678297 0.567604
C66   C     C_R   0.554142 0.462641 0.878141 0.028812
C67   C     C_R   0.036681 0.587985 0.941603 0.074282
C68   C     C_R   0.585532 0.014512 0.552220 0.031173
C69   C     C_R   0.483022 0.378800 0.959456 0.027782
C70   C     C_R   0.036682 0.587985 0.558397 0.074282
C71   C     C_R   0.585532 0.014512 0.947780 0.031173
C72   C     C_R   0.483022 0.378800 0.540544 0.027782
C73   C     C_R   0.567547 0.977791 0.449946 0.072859
C74   C     C_R   0.097559 0.620380 0.041465 0.026808
C75   C     C_R   0.454945 0.410649 0.440419 0.076443
C76   C     C_R   0.455511 0.562899 0.322266 0.535869
C77   C     C_R   0.567547 0.977791 0.050054 0.072859
C78   C     C_R   0.097559 0.620380 0.458535 0.026808
C79   C     C_R   0.454945 0.410649 0.059581 0.076443
C80   C     C_R   0.952688 0.374928 0.898033 -0.111942
C81   C     C_R   0.417425 0.034635 0.603625 -0.108308
C82   C     C_R   0.632861 0.566425 0.901629 -0.120087
C83   C     C_R   0.952688 0.374928 0.601967 -0.111942
C84   C     C_R   0.417425 0.034635 0.896375 -0.108307
C85   C     C_R   0.632861 0.566425 0.598371 -0.120087
C86   C     C_R   0.382572 0.961900 0.397397 -0.100338
C87   C     C_R   0.438451 0.893986 0.177883 0.540159
C88   C     C_R   0.063320 0.433384 0.098895 -0.120053
C89   C     C_R   0.574843 0.626453 0.398453 -0.110036
C90   C     C_R   0.382572 0.961900 0.102603 -0.100338
C91   C     C_R   0.063320 0.433384 0.401105 -0.120054
C92   C     C_R   0.574843 0.626453 0.101547 -0.110036
C93   C     C_R   0.993875 0.389182 0.946617 0.000975
C94   C     C_R   0.405002 0.019280 0.552176 -0.000047
C95   C     C_R   0.636575 0.579234 0.953077 0.004175
C96   C     C_R   0.993875 0.389182 0.553383 0.000975
C97   C     C_R   0.405002 0.019280 0.947824 -0.000046
C98   C     C_R   0.114986 0.548289 0.323951 0.559662
C99   C     C_R   0.636575 0.579234 0.546923 0.004175
C100  C     C_R   0.384853 0.977524 0.448854 -0.000534
C101  C     C_R   0.055283 0.421323 0.047476 0.001866
C102  C     C_R   0.604359 0.611823 0.446454 0.001850
C103  C     C_R   0.384853 0.977524 0.051146 -0.000534
C104  C     C_R   0.055283 0.421323 0.452524 0.001866
C105  C     C_R   0.604359 0.611823 0.053546 0.001850
C106  C     C_R   0.030601 0.317413 0.024106 0.161960
C107  C     C_R   0.301243 0.993847 0.474215 0.115271
C108  C     C_R   0.695836 0.701802 0.026701 0.153165
Cr1   Cr    Cr6+3 0.487630 0.241180 0.750000 1.075240
Cr2   Cr    Cr6+3 0.753550 0.512370 0.750000 1.034190
Cr3   Cr    Cr6+3 0.758820 0.246450 0.750000 1.078693
Cr4   Cr    Cr6+3 0.241180 0.487630 0.250000 1.034985
Cr5   Cr    Cr6+3 0.512370 0.753550 0.250000 1.031316
Cr6   Cr    Cr6+3 0.246450 0.758820 0.250000 1.078673
H1    H     H_    0.049550 0.361544 0.121491 0.179915
H2    H     H_    0.349920 0.036852 0.875400 0.185118
H3    H     H_    0.921179 0.292198 0.619147 0.167451
H4    H     H_    0.690236 0.638353 0.878915 0.179359
H5    H     H_    0.163953 0.804799 0.092071 0.250168
H6    H     H_    0.059686 0.729182 0.133448 0.270686
H7    H     H_    0.685518 0.027175 0.344527 0.260017
H8    H     H_    0.644351 0.888910 0.361147 0.261375
H9    H     H_    0.266143 0.338469 0.139201 0.267961
H10   H     H_    0.370590 0.321131 0.167950 0.253327
H11   H     H_    0.163953 0.804799 0.407929 0.250168
H12   H     H_    0.314197 0.961581 0.376121 0.186347
H13   H     H_    0.059686 0.729182 0.366552 0.270686
H14   H     H_    0.685518 0.027175 0.155472 0.260017
H15   H     H_    0.644351 0.888910 0.138853 0.261375
H16   H     H_    0.266143 0.338469 0.360799 0.267960
H17   H     H_    0.370590 0.321131 0.332050 0.253327
H18   H     H_    0.765854 0.106270 0.621898 0.253203
H19   H     H_    0.696714 0.959272 0.621027 0.284313
H20   H     H_    0.915242 0.655498 0.862523 0.267522
H21   H     H_    0.040117 0.680062 0.834048 0.256776
H22   H     H_    0.362194 0.195070 0.590935 0.249424
H23   H     H_    0.621112 0.710762 0.117787 0.167380
H24   H     H_    0.334733 0.271119 0.632338 0.272653
H25   H     H_    0.765854 0.106269 0.878102 0.253203
H26   H     H_    0.696714 0.959272 0.878973 0.284313
H27   H     H_    0.915242 0.655498 0.637477 0.267522
H28   H     H_    0.040117 0.680062 0.665952 0.256776
H29   H     H_    0.362192 0.195070 0.909065 0.249424
H30   H     H_    0.334733 0.271120 0.867661 0.272652
H31   H     H_    0.049550 0.361544 0.378509 0.179915
H32   H     H_    0.314197 0.961581 0.123879 0.186347
H33   H     H_    0.621112 0.710762 0.382213 0.167380
H34   H     H_    0.349920 0.036851 0.624600 0.185118
H35   H     H_    0.921179 0.292198 0.880852 0.167451
H36   H     H_    0.690236 0.638353 0.621085 0.179359
I1    I     I_    0.956851 0.721402 0.031370 -0.281982
I2    I     I_    0.556596 0.798497 0.960329 -0.339422
I3    I     I_    0.266543 0.744586 0.571371 -0.322071
I4    I     I_    0.244159 0.285473 0.970890 -0.279900
I5    I     I_    0.023938 0.180292 0.067905 -0.162240
I6    I     I_    0.178577 0.019464 0.433747 -0.198688
I7    I     I_    0.802488 0.866010 0.060748 -0.185736
I8    I     I_    0.023937 0.180292 0.432095 -0.162240
I9    I     I_    0.178576 0.019464 0.066253 -0.198688
I10   I     I_    0.802489 0.866010 0.439252 -0.185736
I11   I     I_    0.158588 0.983918 0.565846 -0.195156
I12   I     I_    0.759030 0.189692 0.462178 -0.311660
I13   I     I_    0.946953 0.137434 0.939787 -0.225112
I14   I     I_    0.841037 0.823146 0.567456 -0.197692
I15   I     I_    0.158588 0.983917 0.934154 -0.195157
I16   I     I_    0.946953 0.137433 0.560213 -0.225112
I17   I     I_    0.841037 0.823146 0.932544 -0.197692
I18   I     I_    0.529827 0.253488 0.071404 -0.333327
I19   I     I_    0.956851 0.721402 0.468630 -0.281982
I20   I     I_    0.759030 0.189692 0.037822 -0.311660
I21   I     I_    0.529827 0.253488 0.428595 -0.333327
I22   I     I_    0.556596 0.798497 0.539671 -0.339422
I23   I     I_    0.266543 0.744586 0.928629 -0.322071
I24   I     I_    0.244159 0.285473 0.529110 -0.279900
N1    N     N_3   0.135270 0.738420 0.117468 -0.575939
N2    N     N_3   0.689749 0.031210 0.869453 -0.572583
N3    N     N_3   0.999117 0.670282 0.631930 -0.562883
N4    N     N_3   0.400664 0.260986 0.883522 -0.578236
N5    N     N_3   0.663449 0.969815 0.374146 -0.562887
N6    N     N_3   0.337474 0.327167 0.133772 -0.564064
N7    N     N_3   0.135270 0.738420 0.382532 -0.575939
N8    N     N_3   0.663449 0.969815 0.125854 -0.562888
N9    N     N_3   0.337474 0.327167 0.366228 -0.564064
N10   N     N_3   0.689749 0.031210 0.630547 -0.572583
N11   N     N_3   0.999117 0.670282 0.868070 -0.562883
N12   N     N_3   0.400664 0.260986 0.616478 -0.578235
O1    O     O_R   0.460870 0.120930 0.805240 -0.511612
O2    O     O_R   0.120930 0.460870 0.194760 -0.523144
O3    O     O_R   0.539130 0.660060 0.305240 -0.516727
O4    O     O_R   0.339940 0.879070 0.194760 -0.496728
O5    O     O_R   0.498910 0.350470 0.801870 -0.468105
O6    O     O_R   0.851560 0.501090 0.698130 -0.516040
O7    O     O_R   0.649530 0.148440 0.801870 -0.469444
O8    O     O_R   0.498910 0.350470 0.698130 -0.468104
O9    O     O_R   0.851560 0.501090 0.801870 -0.516039
O10   O     O_R   0.649530 0.148440 0.698130 -0.469444
O11   O     O_R   0.350470 0.498910 0.301870 -0.512858
O12   O     O_R   0.660060 0.539130 0.694760 -0.520986
O13   O     O_R   0.501090 0.851560 0.198130 -0.517959
O14   O     O_R   0.148440 0.649530 0.301870 -0.467772
O15   O     O_R   0.350470 0.498910 0.198130 -0.512858
O16   O     O_R   0.501090 0.851560 0.301870 -0.517959
O17   O     O_R   0.148440 0.649530 0.198130 -0.467772
O18   O     O_3   0.666667 0.333333 0.750000 -0.304152
O19   O     O_3   0.333333 0.666667 0.250000 -0.289467
O20   O     O_R   0.879070 0.339940 0.805240 -0.509985
O21   O     O_R   0.460870 0.120930 0.694760 -0.511612
O22   O     O_R   0.660060 0.539130 0.805240 -0.520986
O23   O     O_R   0.879070 0.339940 0.694760 -0.509985
O24   O     O_R   0.120930 0.460870 0.305240 -0.523144
O25   O     O_R   0.539130 0.660060 0.194760 -0.516726
O26   O     O_R   0.339940 0.879070 0.305240 -0.496728

loop_
_geom_bond_atom_site_label_1
_geom_bond_atom_site_label_2
_ccdc_geom_bond_type
C3    C104  A    
H15   N8    S    
C35   C74   A    
Cr6   O4    S    
C89   C102  A    
Cr2   O12   S    
C87   O13   A    
C91   C104  A    
C58   C87   S    
C27   I23   S    
C15   C94   A    
C52   N6    S    
C88   C101  A    
H25   N2    S    
C64   C83   A    
C28   C68   A    
H7    N5    S    
C44   C64   A    
C98   O24   A    
C39   C79   A    
C2    O25   A    
C22   C101  A    
C46   C62   A    
C43   O8    A    
C18   C24   A    
C84   C97   A    
H24   N12   S    
C8    C99   A    
Cr1   O5    S    
Cr4   O19   S    
H16   N9    S    
C4    I9    S    
C86   H12   S    
C14   C67   A    
C61   C80   A    
C4    C103  A    
C18   C71   A    
C33   C36   A    
C30   C38   A    
Cr2   O18   S    
C59   C89   A    
H29   N4    S    
Cr6   O26   S    
C39   I18   S    
Cr1   O21   S    
C1    O22   A    
C85   H36   S    
C21   C64   S    
C47   N5    S    
C76   O3    A    
H19   N10   S    
C33   C72   A    
H5    N1    S    
C49   N9    S    
H17   N9    S    
C28   I22   S    
C30   I3    S    
C6    C94   A    
C40   C67   A    
C3    I8    S    
C6    C107  A    
C49   C75   A    
C41   N10   S    
C44   C70   A    
C51   C57   A    
C18   C97   A    
C12   O16   A    
C53   C88   A    
C52   C79   A    
C86   C100  A    
C14   C93   A    
C46   C72   A    
C107  I6    S    
C10   I16   S    
Cr3   O10   S    
C48   N1    S    
C5    I10   S    
C31   C71   A    
C28   C34   A    
C17   C70   A    
C84   H2    S    
C13   O2    A    
Cr6   O14   S    
C11   I17   S    
H20   N11   S    
C19   C72   A    
C50   N8    S    
C2    O15   A    
C35   I1    S    
Cr4   O15   S    
C92   H23   S    
C26   C105  A    
C30   C70   A    
C41   C68   A    
C29   C69   A    
C16   C26   A    
C80   H35   S    
C7    C93   A    
C62   C85   A    
C81   C94   A    
H11   N7    S    
C25   C78   A    
C50   C58   A    
C48   C74   A    
H14   N8    S    
C23   C102  A    
Cr5   O25   S    
C8    I14   S    
C45   N2    S    
C37   I20   S    
C19   C99   A    
C32   O7    A    
C21   O6    A    
C108  I7    S    
C38   C78   A    
C27   C35   A    
C47   C73   A    
Cr5   O16   S    
C7    I13   S    
C45   C63   A    
C42   C69   A    
Cr1   O1    S    
C40   C61   A    
C13   O17   A    
C15   C20   A    
Cr5   O19   S    
Cr3   O18   S    
C19   C23   A    
Cr3   O23   S    
C13   C53   S    
C85   C99   A    
C36   C75   A    
C66   C82   A    
C60   C81   A    
C24   C77   A    
H6    N1    S    
C20   C100  A    
C6    I11   S    
C10   C96   A    
H26   N2    S    
C81   H34   S    
C29   C39   A    
C1    C66   S    
Cr5   O13   S    
C7    C106  A    
Cr1   O8    S    
C17   C96   A    
C100  C107  A    
C105  C108  A    
C46   N12   S    
C33   I24   S    
C58   C90   A    
Cr3   O20   S    
C12   O26   A    
C83   C96   A    
Cr3   O7    S    
C87   O4    A    
C83   H3    S    
C1    O5    A    
C27   C67   A    
H30   N4    S    
C60   C65   S    
H13   N7    S    
H27   N3    S    
C22   C74   A    
C50   C77   A    
Cr4   O11   S    
C91   H31   S    
C45   C71   A    
C38   I19   S    
C47   C55   A    
C11   C95   A    
C101  C106  A    
C89   H33   S    
C88   H1    S    
C11   C108  A    
C5    C102  A    
C36   I21   S    
C9    C97   A    
C82   C95   A    
C57   C91   A    
C32   O1    A    
H22   N12   S    
Cr1   O18   S    
C51   N7    S    
C16   C69   A    
C41   C60   A    
C23   C75   A    
H9    N6    S    
C34   I12   S    
C44   N3    S    
Cr4   O2    S    
C5    C8    A    
C25   C104  A    
C65   O21   A    
C54   C61   S    
C48   C53   A    
C32   C63   S    
Cr5   O3    S    
C15   C68   A    
C26   C79   A    
C49   C59   A    
Cr6   O19   S    
C98   O14   A    
C63   C84   A    
C76   O11   A    
C24   C103  A    
C17   C25   A    
C65   O10   A    
C55   C86   A    
C9    I15   S    
C80   C93   A    
C51   C78   A    
C90   H32   S    
C3    C10   A    
C2    C56   S    
H18   N10   S    
C31   I2    S    
C16   C95   A    
C14   C22   A    
C37   C77   A    
C42   N4    S    
C57   C98   S    
Cr2   O6    S    
H8    N5    S    
C42   C66   A    
C21   O23   A    
C20   C73   A    
C43   O12   A    
C90   C103  A    
H10   N6    S    
C12   C55   S    
C54   O20   A    
C54   O9    A    
C34   C73   A    
H28   N3    S    
C31   C37   A    
C92   C105  A    
C56   C92   A    
C106  I5    S    
Cr2   O9    S    
C40   N11   S    
C82   H4    S    
Cr6   O17   S    
Cr2   O22   S    
C4    C9    A    
C59   C76   S    
H21   N11   S    
C52   C56   A    
C43   C62   S    
Cr4   O24   S    
C29   I4    S    
