data_mof_unit_2889.cif
_audit_creation_date              2012-12-10T17:23:10-0500
_audit_creation_method            fapswitch 2.2
_symmetry_space_group_name_H-M    P1
_symmetry_Int_Tables_number       1
_space_group_crystal_system       triclinic
_cell_length_a                    15.855317
_cell_length_b                    10.903742
_cell_length_c                    9.621209
_cell_angle_alpha                 90.532064
_cell_angle_beta                  89.740634
_cell_angle_gamma                 93.910919
_cell_volume                      1659.37900299

loop_
_atom_site_label
_atom_site_type_symbol
_atom_type_description
_atom_site_fract_x
_atom_site_fract_y
_atom_site_fract_z
_atom_type_partial_charge
C1    C     C_R   0.494359 0.261955 0.498775 0.843057
C2    C     C_3   0.083474 0.502155 0.499614 0.028371
C3    C     C_3   0.976917 0.611575 0.542136 -0.111520
C4    C     C_3   0.916626 0.501640 0.498988 0.028376
C5    C     C_3   0.032466 0.589342 0.413610 0.366662
C6    C     C_3   0.971873 0.479185 0.371011 -0.072136
C7    C     C_1   0.175058 0.501520 0.499917 0.055531
C8    C     C_1   0.824953 0.500658 0.498951 0.010861
C9    C     C_R   0.393663 0.125154 0.710715 0.361192
C10   C     C_R   0.382901 0.076312 0.842571 -0.206391
C11   C     C_R   0.396894 0.953743 0.863530 -0.071483
C12   C     C_R   0.340089 0.500163 0.500023 0.876346
C13   C     C_R   0.411125 0.878649 0.746757 -0.067868
C14   C     C_R   0.443616 0.933638 0.620731 -0.004260
C15   C     C_R   0.440161 0.063311 0.609316 0.025892
C16   C     C_R   0.478973 0.126640 0.494849 -0.124951
C17   C     C_R   0.505099 0.058671 0.378780 -0.044462
C18   C     C_R   0.500161 0.932003 0.383148 -0.170392
C19   C     C_R   0.476160 0.868108 0.504154 -0.088414
C20   C     C_R   0.639834 0.635760 0.133033 -0.112496
C21   C     C_R   0.710808 0.667098 0.048794 0.351711
C22   C     C_R   0.700347 0.678018 0.908236 -0.238347
C23   C     C_R   0.490168 0.735723 0.501700 0.797632
C24   C     C_R   0.623427 0.642925 0.850135 -0.207478
C25   C     C_R   0.561585 0.570881 0.923794 0.197169
C26   C     C_R   0.564771 0.569890 0.073555 0.099202
C27   C     C_R   0.441672 0.431038 0.072865 0.055155
C28   C     C_R   0.441715 0.432118 0.925635 -0.055255
C29   C     C_R   0.659859 0.499128 0.499817 0.822337
C30   C     C_3   0.967387 0.413735 0.585800 -0.162538
C31   C     C_3   0.023526 0.390925 0.455909 -0.217129
C32   C     C_1   0.250511 0.500837 0.500058 -0.054172
C33   C     C_1   0.749445 0.499848 0.499247 -0.126382
C34   C     C_3   0.028304 0.524672 0.627710 -0.087895
Cu1   Cu    Cu3+1 0.499990 0.499990 0.640660 0.986816
Cu2   Cu    Cu3+1 0.500010 0.500010 0.359340 0.996757
H1    H     H_    0.043588 0.300408 0.419622 0.189966
H2    H     H_    0.520735 0.883254 0.291733 0.168044
H3    H     H_    0.750738 0.719737 0.844332 0.201325
H4    H     H_    0.616918 0.670233 0.745376 0.222347
H5    H     H_    0.393982 0.376646 0.870018 0.183999
H6    H     H_    0.939838 0.342106 0.657138 0.176661
H7    H     H_    0.353748 0.128845 0.923690 0.173955
N1    N     N_R   0.500800 0.501210 0.147910 -0.205698
N2    N     N_R   0.500830 0.501290 0.852040 -0.193343
O1    O     O_R   0.499990 0.319640 0.618810 -0.557557
O2    O     O_R   0.500000 0.319660 0.381240 -0.576983
O3    O     O_R   0.379070 0.499980 0.618770 -0.536037
O4    O     O_R   0.379080 0.500000 0.381190 -0.581615
O5    O     O_R   0.500000 0.680340 0.618760 -0.615690
O6    O     O_R   0.500010 0.680360 0.381190 -0.589019
O7    O     O_R   0.620920 0.500000 0.618810 -0.591289
O8    O     O_R   0.620930 0.500020 0.381230 -0.577932
C35   C     C_1   0.378296 0.901966 0.999190 0.282608
N3    N     N_1   0.363459 0.860474 0.107573 -0.238603
C36   C     C_1   0.360983 0.763448 0.748025 0.304914
N4    N     N_1   0.316535 0.675393 0.756340 -0.248250
C37   C     C_1   0.380194 0.349636 0.142112 0.310368
N5    N     N_1   0.330717 0.283559 0.197039 -0.248938
C38   C     C_1   0.646594 0.706675 0.259910 0.410340
N6    N     N_1   0.658603 0.766444 0.359003 -0.295898
Cl1   Cl    Cl    0.810707 0.717875 0.117738 -0.553311
C39   C     C_1   0.940313 0.453940 0.229754 0.389901
N7    N     N_1   0.915443 0.434053 0.118367 -0.217897
Cl2   Cl    Cl    0.076359 0.704851 0.299326 -0.518079
C40   C     C_1   0.950516 0.731579 0.589343 0.356311
N8    N     N_1   0.929631 0.826092 0.626578 -0.221936
C41   C     C_1   0.060053 0.549278 0.769050 0.319012
N9    N     N_1   0.085086 0.568690 0.880431 -0.183456
C42   C     C_1   0.540464 0.114527 0.253573 0.289604
N10   N     N_1   0.568655 0.158690 0.153174 -0.265177
Cl3   Cl    Cl    0.323290 0.234921 0.662331 -0.642144

loop_
_geom_bond_atom_site_label_1
_geom_bond_atom_site_label_2
_ccdc_geom_bond_type
C2    C7    S    
C9    Cl3   S    
C12   O3    A    
C12   O4    A    
C26   N1    A    
C29   O8    A    
C5    C6    S    
C1    O1    A    
C15   C16   A    
C29   C33   S    
C28   H5    S    
C36   N4    T    
Cu2   O2    S    
C18   C19   A    
Cu2   O8    S    
C41   N9    T    
C27   N1    A    
Cu1   Cu2   S    
C16   C17   A    
C42   N10   T    
C20   C38   S    
C9    C10   A    
C4    C8    S    
C13   C36   S    
C2    C34   S    
C6    C31   S    
C17   C42   S    
C21   C22   A    
C12   C32   S    
Cu1   O3    S    
C25   C26   A    
C2    C31   S    
C28   N2    A    
C30   C34   S    
C24   C25   A    
C5    Cl2   S    
C34   C41   S    
C1    O2    A    
C23   O5    A    
C3    C34   S    
C37   N5    T    
C31   H1    S    
C38   N6    T    
C6    C39   S    
C19   C23   S    
C23   O6    A    
Cu1   O5    S    
C17   C18   A    
C1    C16   S    
C11   C35   S    
C21   Cl1   S    
Cu2   O6    S    
C4    C6    S    
C22   C24   A    
Cu2   N1    S    
C2    C5    S    
C3    C4    S    
Cu1   N2    S    
C25   N2    A    
Cu1   O7    S    
C35   N3    T    
C7    C32   T    
C10   H7    S    
C14   C19   A    
C3    C5    S    
C27   C37   S    
C18   H2    S    
C11   C13   A    
C30   C31   S    
C20   C26   A    
C22   H3    S    
C24   H4    S    
C40   N8    T    
C8    C33   T    
C9    C15   A    
C10   C11   A    
C39   N7    T    
C3    C40   S    
C20   C21   A    
C27   C28   A    
C14   C15   A    
C30   H6    S    
C13   C14   A    
Cu1   O1    S    
C4    C30   S    
Cu2   O4    S    
C29   O7    A    
