data_mof_unit_331.cif
_audit_creation_date              2012-12-11T20:55:35-0500
_audit_creation_method            fapswitch 2.2
_symmetry_space_group_name_H-M    P1
_symmetry_Int_Tables_number       1
_space_group_crystal_system       triclinic
_cell_length_a                    8.267493
_cell_length_b                    19.121351
_cell_length_c                    22.78487
_cell_angle_alpha                 99.908137
_cell_angle_beta                  90.054913
_cell_angle_gamma                 91.915432
_cell_volume                      3546.17211516

loop_
_atom_site_label
_atom_site_type_symbol
_atom_type_description
_atom_site_fract_x
_atom_site_fract_y
_atom_site_fract_z
_atom_type_partial_charge
Ba1   Ba    Ba6+2 0.157290 0.533910 0.474710 1.652014
Ba2   Ba    Ba6+2 0.652900 0.466090 0.525240 1.645213
C1    C     C_3   0.358615 0.742254 0.266222 -0.334294
C2    C     C_R   0.989359 0.271862 0.479333 0.054362
C3    C     C_R   0.138778 0.187625 0.550050 -0.155832
C4    C     C_3   0.923906 0.722088 0.348093 0.384674
C5    C     C_R   0.205862 0.254350 0.544699 0.000383
C6    C     C_R   0.674836 0.810582 0.447912 -0.162973
C7    C     C_R   0.606305 0.744414 0.454271 -0.002226
C8    C     C_R   0.858981 0.801667 0.528188 -0.149031
C9    C     C_R   0.821751 0.727677 0.520187 0.055272
C10   C     C_R   0.020570 0.153522 0.508726 0.001685
C11   C     C_R   0.120564 0.298623 0.514902 -0.245468
C12   C     C_3   0.416458 0.716509 0.321942 0.326642
C13   C     C_R   0.793748 0.845053 0.488765 0.000440
C14   C     C_R   0.688565 0.701055 0.485849 -0.240288
C15   C     C_R   0.230246 0.034171 0.538164 -0.077323
C16   C     C_3   0.940128 0.793408 0.326599 -0.261155
C17   C     C_R   0.323964 0.982023 0.555132 -0.081952
C18   C     C_R   0.277959 0.911688 0.537317 -0.066535
C19   C     C_R   0.132332 0.894797 0.507068 -0.076524
C20   C     C_R   0.015038 0.946074 0.505619 0.012456
C21   C     C_R   0.068933 0.019598 0.517045 0.039036
C22   C     C_R   0.851352 0.923865 0.490136 -0.015830
C23   C     C_3   0.484167 0.684097 0.619060 0.307291
C24   C     C_R   0.746080 0.978765 0.479427 0.039438
C25   C     C_R   0.800021 0.052262 0.490982 0.013637
C26   C     C_R   0.963527 0.074498 0.506565 -0.016817
C27   C     C_R   0.584784 0.964365 0.458124 -0.077198
C28   C     C_3   0.820695 0.374994 0.342200 0.299811
C29   C     C_R   0.491251 0.016729 0.441333 -0.079290
C30   C     C_R   0.537299 0.087011 0.459540 -0.065934
C31   C     C_R   0.682835 0.103568 0.489770 -0.078190
C32   C     C_R   0.643959 0.524084 0.335422 -0.302491
C33   C     C_R   0.367013 0.563127 0.948335 -0.025259
C34   C     C_3   0.492025 0.764508 0.636747 -0.377798
C35   C     C_R   0.318058 0.559573 0.888552 0.586468
C36   C     C_R   0.246287 0.435471 0.880998 0.582654
C37   C     C_R   0.297231 0.436879 0.940366 -0.022599
C38   C     C_R   0.357772 0.501197 0.974150 -0.051992
C39   C     C_R   0.425520 0.627142 0.982828 -0.074668
C40   C     C_3   0.814660 0.355889 0.274585 -0.359651
C41   C     C_R   0.474153 0.629700 0.041851 -0.073891
C42   C     C_R   0.467041 0.568193 0.068066 -0.021777
C43   C     C_R   0.409218 0.503641 0.034027 -0.053264
C44   C     C_R   0.290376 0.375390 0.966592 -0.076603
C45   C     C_3   0.885509 0.284012 0.649883 0.361729
C46   C     C_R   0.343479 0.377570 0.025131 -0.073164
C47   C     C_R   0.403144 0.441505 0.059536 -0.023811
C48   C     C_R   0.457158 0.444664 0.118797 0.587566
C49   C     C_R   0.515545 0.570021 0.127681 0.587410
C50   C     C_2   0.063799 0.477005 0.773258 -0.069613
C51   C     C_3   0.019955 0.482946 0.709587 -0.058156
C52   C     C_3   0.998063 0.632394 0.660080 0.298475
C53   C     C_1   0.302753 0.511556 0.694147 0.015810
C54   C     C_2   0.343734 0.511090 0.750234 -0.091853
C55   C     C_2   0.217708 0.493234 0.793231 0.216868
C56   C     C_3   0.878225 0.212061 0.669893 -0.360830
C57   C     C_R   0.707790 0.544316 0.235921 -0.097119
C58   C     C_R   0.750003 0.550144 0.296151 -0.037570
C59   C     C_R   0.500815 0.487656 0.314591 0.036146
C60   C     C_R   0.455782 0.483012 0.254619 -0.084867
C61   C     C_R   0.557846 0.512182 0.214667 0.208880
C62   C     C_2   0.169260 0.478335 0.671051 -0.282106
C63   C     C_3   0.036242 0.662128 0.725194 -0.359242
C64   C     C_3   0.320420 0.317260 0.393712 0.316955
C65   C     C_3   0.317734 0.236782 0.376359 -0.377649
C66   C     C_1   0.850666 0.791217 0.270609 0.299706
C67   C     C_3   0.389404 0.295844 0.679912 0.307475
C68   C     C_3   0.453840 0.282071 0.739201 -0.356817
C69   C     C_R   0.954928 0.197568 0.469869 -0.149717
H1    H     H_    0.417386 0.657421 0.313114 0.037269
H2    H     H_    0.196669 0.334499 0.404984 -0.000273
H3    H     H_    0.401295 0.332616 0.433046 0.081939
H4    H     H_    0.240654 0.716144 0.250889 0.153375
H5    H     H_    0.233767 0.219532 0.338149 0.127120
H6    H     H_    0.276523 0.211776 0.414396 0.056944
H7    H     H_    0.441190 0.218704 0.363730 0.128878
H8    H     H_    0.541143 0.738743 0.331294 -0.037112
H9    H     H_    0.448046 0.729442 0.230141 0.152195
H10   H     H_    0.607796 0.665863 0.607428 0.016858
H11   H     H_    0.403743 0.670392 0.579401 0.075543
H12   H     H_    0.730068 0.309603 0.260804 0.140094
H13   H     H_    0.574264 0.780413 0.675664 0.131471
H14   H     H_    0.538496 0.788969 0.599011 0.056291
H15   H     H_    0.369290 0.784232 0.648401 0.125203
H16   H     H_    0.346168 0.800767 0.275470 0.103533
H17   H     H_    0.790135 0.283853 0.615460 0.099304
H18   H     H_    0.005835 0.292494 0.630918 -0.055750
H19   H     H_    0.885626 0.168895 0.630761 0.070090
H20   H     H_    0.980403 0.208334 0.700759 0.119282
H21   H     H_    0.762279 0.204807 0.692982 0.141572
H22   H     H_    0.263164 0.273780 0.674344 -0.021149
H23   H     H_    0.772399 0.401195 0.254977 0.069146
H24   H     H_    0.390576 0.354301 0.681155 0.043988
H25   H     H_    0.373513 0.305695 0.775642 0.137164
H26   H     H_    0.577187 0.306432 0.747654 0.157815
H27   H     H_    0.983804 0.727644 0.392464 0.065871
H28   H     H_    0.458113 0.224015 0.738885 0.112518
H29   H     H_    0.871199 0.175762 0.434450 0.076105
H30   H     H_    0.178541 0.164525 0.587336 0.063465
H31   H     H_    0.634864 0.833213 0.410459 0.059751
H32   H     H_    0.943967 0.823686 0.563108 0.077420
H33   H     H_    0.162579 0.353114 0.516513 0.061436
H34   H     H_    0.937232 0.342427 0.257160 0.130144
H35   H     H_    0.643387 0.647382 0.486277 0.065401
H36   H     H_    0.295177 0.083176 0.538454 0.075348
H37   H     H_    0.442930 0.995707 0.574539 0.079782
H38   H     H_    0.360907 0.870953 0.543300 0.099653
H39   H     H_    0.793637 0.708219 0.352641 -0.111091
H40   H     H_    0.109691 0.841286 0.484936 0.126120
H41   H     H_    0.519391 0.915470 0.457699 0.074467
H42   H     H_    0.372268 0.003214 0.421887 0.078935
H43   H     H_    0.454672 0.128050 0.454064 0.096684
H44   H     H_    0.705436 0.156866 0.512183 0.127232
H45   H     H_    0.111117 0.614081 0.637475 0.021326
H46   H     H_    0.336886 0.328927 0.043480 0.124635
H47   H     H_    0.244913 0.325132 0.941749 0.122037
H48   H     H_    0.518014 0.680135 0.066875 0.127865
H49   H     H_    0.791691 0.564083 0.205673 0.111853
H50   H     H_    0.433766 0.675638 0.964294 0.125786
H51   H     H_    0.892402 0.836159 0.360554 0.032996
H52   H     H_    0.467296 0.524165 0.765380 0.103802
H53   H     H_    0.969264 0.466381 0.803901 0.096076
H54   H     H_    0.342224 0.456393 0.239061 0.118855
H55   H     H_    0.678453 0.527776 0.381700 0.080111
H56   H     H_    0.908650 0.587378 0.657225 0.035915
H57   H     H_    0.167875 0.447955 0.626129 0.064466
H58   H     H_    0.069272 0.806943 0.319685 0.113703
H59   H     H_    0.697602 0.387335 0.358766 0.011605
H60   H     H_    0.903554 0.422119 0.354813 0.062504
H61   H     H_    0.118194 0.709876 0.728298 0.147458
H62   H     H_    0.097030 0.622566 0.746886 0.082950
H63   H     H_    0.922728 0.677124 0.749478 0.120161
N1    N     N_R   0.259928 0.496100 0.855469 -0.428575
N2    N     N_R   0.510001 0.508752 0.152698 -0.425255
N3    N     N_1   0.780165 0.789426 0.226450 -0.266961
O1    O     O_2   0.108070 0.674980 0.540650 -0.457900
O2    O     O_2   0.687532 0.445188 0.697657 -0.481191
O3    O     O_3   0.862479 0.337206 0.699278 -0.595724
O4    O     O_3   0.861930 0.586170 0.535430 -0.487163
O5    O     O_3   0.451480 0.461630 0.428900 -0.494530
O6    O     O_2   0.599240 0.538720 0.642170 -0.458568
O7    O     O_3   0.423961 0.653697 0.666915 -0.634591
O8    O     O_2   0.529260 0.247280 0.518247 -0.507220
O9    O     O_3   0.487589 0.262435 0.633887 -0.598483
O10   O     O_2   0.325965 0.613139 0.865981 -0.592850
O11   O     O_2   0.191081 0.380186 0.851849 -0.604196
O12   O     O_3   0.375397 0.347325 0.345326 -0.627421
O13   O     O_2   0.458903 0.390155 0.139983 -0.596732
O14   O     O_2   0.561489 0.626468 0.157540 -0.609185
O15   O     O_3   0.366390 0.628250 0.433820 -0.461381
O16   O     O_2   0.287964 0.751783 0.485626 -0.503715
O17   O     O_3   0.931938 0.686398 0.634711 -0.636087
O18   O     O_3   0.313045 0.740597 0.369544 -0.590148
O19   O     O_2   0.211060 0.461230 0.357810 -0.458812
O20   O     O_3   0.958150 0.591500 0.402390 -0.484143
O21   O     O_2   0.083943 0.538965 0.296440 -0.478245
O22   O     O_3   0.999400 0.669905 0.307383 -0.589923
O23   O     O_2   0.702240 0.324970 0.459330 -0.460705
O24   O     O_3   0.948380 0.413820 0.464520 -0.492432
O25   O     O_3   0.443920 0.371740 0.566130 -0.462363
O26   O     O_3   0.876163 0.316738 0.364985 -0.631167
O27   O     O_3   0.358830 0.538360 0.571050 -0.480183
O28   O     O_3   0.852160 0.408490 0.597560 -0.488133
P1    P     P_3+3 0.933470 0.664380 0.557030 0.982768
P2    P     P_3+3 0.383600 0.440030 0.365120 0.993676
P3    P     P_3+3 0.947992 0.586661 0.325032 0.973007
P4    P     P_3+3 0.876840 0.335610 0.442930 0.981987
P5    P     P_3+3 0.855817 0.419534 0.675700 0.972912
P6    P     P_3+3 0.395760 0.718176 0.434163 0.935194
P7    P     P_3+3 0.417935 0.561149 0.645720 0.958320
P8    P     P_3+3 0.414354 0.282015 0.566900 0.922856

loop_
_geom_bond_atom_site_label_1
_geom_bond_atom_site_label_2
_ccdc_geom_bond_type
C23   H10   S    
C53   C54   D    
C57   H49   S    
Ba2   O6    S    
C12   O18   S    
C45   H18   S    
C27   H41   S    
C17   C18   A    
O12   P2    S    
C7    P6    S    
Ba2   O25   S    
C4    O22   S    
O21   P3    D    
C52   C63   S    
C68   H28   S    
C25   C31   A    
C44   H47   S    
O4    P1    S    
C58   P3    S    
C12   H8    S    
Ba1   O15   S    
C4    H27   S    
C8    H32   S    
C33   C35   A    
C7    C14   A    
C22   C24   A    
O6    P7    D    
C67   H22   S    
C8    C13   A    
C15   H36   S    
C36   C37   A    
C51   C62   S    
Ba1   P2    S    
C16   C66   S    
C28   H60   S    
C64   H3    S    
O9    P8    S    
O22   P3    S    
O20   P3    S    
O2    P5    D    
Ba1   Ba2   S    
C49   N2    Am   
C39   H50   S    
C2    C11   A    
Ba1   O5    S    
O5    P2    S    
Ba1   O27   S    
C6    C7    A    
C62   H57   S    
C65   H6    S    
C45   O3    S    
C9    P1    S    
O23   P4    D    
C35   N1    Am   
C45   H17   S    
C1    H4    S    
C56   H20   S    
C63   H63   S    
C68   H26   S    
C14   H35   S    
O24   P4    S    
C17   H37   S    
C64   C65   S    
C49   O14   D    
C57   C58   A    
C19   C20   A    
C32   C58   A    
C67   O9    S    
C39   C41   A    
C66   N3    T    
C67   C68   S    
C65   H7    S    
C28   O26   S    
O26   P4    S    
C1    H9    S    
Ba2   O24   S    
C19   H40   S    
C44   C46   A    
C38   C43   A    
C4    C16   S    
C3    H30   S    
C31   H44   S    
C42   C43   A    
C2    P4    S    
C1    H16   S    
C54   H52   S    
C64   O12   S    
C50   C55   D    
Ba2   O27   S    
C37   C38   A    
C3    C5    A    
O15   P6    S    
C23   C34   S    
O19   P2    D    
C34   H15   S    
C28   H59   S    
C64   H2    S    
C32   C59   A    
C52   H45   S    
C59   P2    S    
C4    H39   S    
Ba1   O19   S    
C68   H25   S    
C41   C42   A    
C60   C61   A    
C9    C14   A    
C48   O13   D    
C29   C30   A    
C43   C47   A    
C32   H55   S    
O25   P8    S    
C53   C62   D    
O16   P6    D    
C24   C25   A    
C15   C21   A    
C36   N1    Am   
C35   O10   D    
C11   H33   S    
C56   H19   S    
Ba2   O28   S    
C36   O11   D    
C1    C12   S    
C51   P5    S    
C16   H51   S    
C37   C44   A    
C42   C49   A    
C46   C47   A    
C10   C69   A    
O8    P8    D    
C6    C13   A    
C23   H11   S    
Ba2   O5    S    
C20   C22   A    
O27   P7    S    
C23   O7    S    
C21   C26   A    
C54   C55   S    
C53   P7    S    
C63   H61   S    
C50   C51   S    
C52   H56   S    
O28   P5    S    
C13   C22   S    
O3    P5    S    
C40   H23   S    
C12   H1    S    
C28   C40   S    
C40   H12   S    
C67   H24   S    
C52   O17   S    
C60   H54   S    
O17   P1    S    
C46   H46   S    
C34   H14   S    
C69   H29   S    
O7    P7    S    
C57   C61   A    
O1    P1    D    
C30   C31   A    
Ba1   O20   S    
C33   C38   A    
C27   C29   A    
C48   N2    Am   
C61   N2    S    
C45   C56   S    
C50   H53   S    
C6    H31   S    
Ba1   P1    S    
C34   H13   S    
C5    P8    S    
C15   C17   A    
C59   C60   A    
C33   C39   A    
C40   H34   S    
Ba1   O4    S    
C8    C9    A    
Ba2   P4    S    
Ba1   O24   S    
C18   H38   S    
O18   P6    S    
C5    C11   A    
C18   C19   A    
C10   C26   S    
C24   C27   A    
Ba2   O23   S    
C47   C48   A    
C25   C26   A    
Ba2   O4    S    
C20   C21   A    
C55   N1    S    
C16   H58   S    
C65   H5    S    
C30   H43   S    
C56   H21   S    
C29   H42   S    
C2    C69   A    
C63   H62   S    
Ba1   O1    S    
C41   H48   S    
C3    C10   A    
