data_mof_unit_1034.cif
_audit_creation_date              2012-12-10T17:22:40-0500
_audit_creation_method            fapswitch 2.2
_symmetry_space_group_name_H-M    P1
_symmetry_Int_Tables_number       1
_space_group_crystal_system       triclinic
_cell_length_a                    10.622799
_cell_length_b                    10.900295
_cell_length_c                    9.671197
_cell_angle_alpha                 88.729167
_cell_angle_beta                  88.30671
_cell_angle_gamma                 97.904594
_cell_volume                      1108.32963979

loop_
_atom_site_label
_atom_site_type_symbol
_atom_type_description
_atom_site_fract_x
_atom_site_fract_y
_atom_site_fract_z
_atom_type_partial_charge
C1    C     C_R   0.493312 0.262068 0.500824 0.846965
C2    C     C_3   0.964534 0.497849 0.366830 -0.191951
C3    C     C_3   0.031042 0.397967 0.441074 -0.154983
C4    C     C_3   0.123236 0.502118 0.503570 -0.062091
C5    C     C_R   0.264831 0.085491 0.614852 0.210314
C6    C     C_R   0.182373 0.010136 0.707628 0.268890
C7    C     C_R   0.208867 0.891738 0.745829 0.108050
C8    C     C_R   0.309986 0.844925 0.678933 -0.202674
C9    C     C_R   0.394661 0.920056 0.586177 0.019447
C10   C     C_R   0.382025 0.047462 0.570693 -0.049846
C11   C     C_R   0.480915 0.126862 0.497775 -0.165012
C12   C     C_R   0.260002 0.501799 0.501464 0.802450
C13   C     C_R   0.562829 0.075212 0.406525 0.210144
C14   C     C_R   0.544486 0.947909 0.389134 0.085127
C15   C     C_R   0.480391 0.869869 0.494684 -0.085450
C16   C     C_R   0.680044 0.685196 0.121795 0.231634
C17   C     C_R   0.751048 0.774960 0.034465 -0.211689
C18   C     C_R   0.744943 0.769396 0.894423 -0.249083
C19   C     C_R   0.667225 0.674387 0.837596 -0.096209
C20   C     C_R   0.583686 0.586738 0.917912 0.105717
C21   C     C_R   0.586096 0.588881 0.067564 0.141097
C22   C     C_R   0.418023 0.419159 0.080523 0.236293
C23   C     C_R   0.494089 0.736927 0.498536 0.808281
C24   C     C_R   0.417061 0.420123 0.932833 0.287970
C25   C     C_R   0.740206 0.499900 0.498481 0.838973
C26   C     C_3   0.036356 0.505571 0.633306 -0.216401
C27   C     C_3   0.943438 0.404082 0.568769 0.232201
C28   C     C_3   0.877205 0.501143 0.496001 -0.041188
C29   C     C_3   0.969497 0.605159 0.558306 -0.267256
C30   C     C_3   0.058345 0.601020 0.429716 0.287880
Cu1   Cu    Cu3+1 0.499990 0.499990 0.640660 0.968522
Cu2   Cu    Cu3+1 0.500010 0.500010 0.359340 1.022467
H1    H     H_    0.315965 0.748130 0.696417 0.184494
H2    H     H_    0.819644 0.846162 0.076684 0.172277
H3    H     H_    0.805190 0.836492 0.828856 0.152530
H4    H     H_    0.677218 0.674829 0.728512 0.198740
H5    H     H_    0.066918 0.506836 0.742112 0.178649
H6    H     H_    0.940749 0.690345 0.603068 0.144712
H7    H     H_    0.934381 0.494365 0.257914 0.175664
H8    H     H_    0.056501 0.312461 0.393989 0.174449
N1    N     N_R   0.501210 0.501210 0.147910 -0.188167
N2    N     N_R   0.501250 0.501290 0.852040 -0.221550
O1    O     O_R   0.499990 0.319640 0.618810 -0.541354
O2    O     O_R   0.500000 0.319660 0.381240 -0.529809
O3    O     O_R   0.316850 0.499960 0.618770 -0.567618
O4    O     O_R   0.316860 0.499980 0.381190 -0.547063
O5    O     O_R   0.500000 0.680340 0.618760 -0.631212
O6    O     O_R   0.500010 0.680360 0.381190 -0.512544
O7    O     O_R   0.683140 0.500020 0.618810 -0.611695
O8    O     O_R   0.683150 0.500040 0.381230 -0.540143
N3    N     N_3   0.877131 0.295552 0.643376 -0.546290
H9    H     H_    0.946487 0.247013 0.683690 0.261893
H10   H     H_    0.828273 0.326894 0.727999 0.232574
N4    N     N_3   0.126964 0.816408 0.844816 -0.570620
H11   H     H_    0.040481 0.789148 0.798260 0.204756
H12   H     H_    0.164694 0.735285 0.869588 0.237448
N5    N     N_3   0.568916 0.901044 0.255381 -0.551880
H13   H     H_    0.658881 0.940363 0.218056 0.242238
H14   H     H_    0.503260 0.930648 0.188104 0.258675
N6    N     N_3   0.330498 0.332531 0.161356 -0.523080
H15   H     H_    0.343660 0.242768 0.134167 0.238481
H16   H     H_    0.237825 0.346656 0.138918 0.229785
N7    N     N_3   0.722889 0.688381 0.259247 -0.507039
H17   H     H_    0.816473 0.668467 0.254646 0.208792
H18   H     H_    0.730962 0.776429 0.299914 0.215126
Br1   Br    Br    0.289395 0.308066 0.850097 -0.563164
Br2   Br    Br    0.144234 0.746231 0.329822 -0.548383
Br3   Br    Br    0.699860 0.175371 0.301625 -0.530561
N8    N     N_3   0.214792 0.184734 0.545258 -0.567584
H19   H     H_    0.225633 0.174923 0.438420 0.210208
H20   H     H_    0.264352 0.268767 0.572069 0.246094
N9    N     N_3   0.068453 0.053380 0.757770 -0.548040
H21   H     H_    0.067532 0.050805 0.865931 0.256133
H22   H     H_    0.990443 0.992922 0.725530 0.205490

loop_
_geom_bond_atom_site_label_1
_geom_bond_atom_site_label_2
_ccdc_geom_bond_type
C8    C9    A    
N7    H18   S    
C16   C21   A    
Cu1   N2    S    
C24   N2    A    
C19   C20   A    
C1    C11   S    
C7    C8    A    
C25   C28   S    
C6    N9    S    
C26   C27   S    
Cu1   O1    S    
C28   C29   S    
C19   H4    S    
C22   N6    S    
C5    C6    A    
N5    H14   S    
C22   N1    A    
N6    H16   S    
C18   C19   A    
N8    H20   S    
C25   O8    A    
C5    N8    S    
C2    H7    S    
C1    O1    A    
C16   C17   A    
C29   H6    S    
Cu2   N1    S    
C16   N7    S    
C4    C12   S    
C9    C10   A    
C30   Br2   S    
C24   Br1   S    
C15   C23   S    
Cu1   O5    S    
C13   C14   A    
Cu2   O6    S    
Cu1   O7    S    
C27   N3    S    
N4    H12   S    
C23   O5    A    
N3    H9    S    
N9    H22   S    
N9    H21   S    
N6    H15   S    
N3    H10   S    
C29   C30   S    
C1    O2    A    
C20   N2    A    
Cu1   Cu2   S    
C17   C18   A    
Cu2   O2    S    
Cu2   O8    S    
C21   N1    A    
C12   O4    A    
C3    H8    S    
C22   C24   A    
C17   H2    S    
C3    C4    S    
C18   H3    S    
C14   N5    S    
N4    H11   S    
C23   O6    A    
Cu2   O4    S    
C12   O3    A    
C4    C26   S    
C26   H5    S    
C6    C7    A    
C2    C30   S    
C3    C27   S    
C2    C3    S    
C9    C15   A    
C5    C10   A    
C11   C13   A    
N5    H13   S    
C8    H1    S    
N8    H19   S    
C25   O7    A    
C10   C11   A    
N7    H17   S    
C20   C21   A    
C26   C29   S    
Cu1   O3    S    
C27   C28   S    
C14   C15   A    
C2    C28   S    
C7    N4    S    
C4    C30   S    
C13   Br3   S    
