data_mof_unit_983.cif
_audit_creation_date              2012-12-11T18:13:23-0500
_audit_creation_method            fapswitch 2.2
_symmetry_space_group_name_H-M    P1
_symmetry_Int_Tables_number       1
_space_group_crystal_system       triclinic
_cell_length_a                    8.171026
_cell_length_b                    12.653894
_cell_length_c                    18.702003
_cell_angle_alpha                 99.458557
_cell_angle_beta                  91.133666
_cell_angle_gamma                 98.595677
_cell_volume                      1884.03478119

loop_
_atom_site_label
_atom_site_type_symbol
_atom_type_description
_atom_site_fract_x
_atom_site_fract_y
_atom_site_fract_z
_atom_type_partial_charge
Ba1   Ba    Ba6+2 0.852780 0.548340 0.465070 1.636347
Ba2   Ba    Ba6+2 0.337060 0.451750 0.534940 1.634853
C1    C     C_3   0.580503 0.900200 0.252207 -0.415327
C2    C     C_3   0.632467 0.820553 0.297608 0.342424
C3    C     C_3   0.460342 0.274778 0.313939 0.309823
C4    C     C_3   0.435056 0.237263 0.232444 -0.399872
C5    C     C_3   0.060113 0.235360 0.735981 0.385176
C6    C     C_3   0.087824 0.213109 0.812799 0.196382
C7    C     C_3   0.555690 0.177853 0.702289 0.314630
C8    C     C_3   0.606883 0.099560 0.748933 -0.387317
C9    C     C_R   0.993740 0.446828 0.047807 0.008769
C10   C     C_R   0.892361 0.393276 0.095134 0.034088
C11   C     C_R   0.729439 0.346096 0.071997 -0.079118
C12   C     C_3   0.129350 0.761402 0.264929 0.365334
C13   C     C_R   0.667878 0.351345 0.002589 -0.081006
C14   C     C_R   0.768880 0.402351 0.954422 0.038192
C15   C     C_R   0.932384 0.450523 0.976934 0.016358
C16   C     C_R   0.709133 0.404201 0.883923 -0.105401
C17   C     C_R   0.811772 0.450726 0.833823 -0.047081
C18   C     C_R   0.975047 0.502156 0.856760 -0.013832
C19   C     C_R   0.034274 0.502089 0.928699 -0.012344
C20   C     C_R   0.757521 0.445335 0.760940 -0.006862
C21   C     C_R   0.866386 0.486657 0.711818 -0.297963
C22   C     C_R   0.024029 0.543502 0.733915 0.048049
C23   C     C_3   0.109500 0.785934 0.188570 -0.363961
C24   C     C_R   0.079326 0.553217 0.807999 -0.045437
C25   C     C_R   0.156450 0.495686 0.071021 -0.007048
C26   C     C_R   0.215882 0.495342 0.142896 -0.005062
C27   C     C_R   0.111210 0.444979 0.191801 -0.044066
C28   C     C_R   0.953577 0.389032 0.165207 -0.039488
C29   C     C_R   0.236417 0.609855 0.834794 -0.039655
C30   C     C_R   0.297844 0.605303 0.904791 0.032565
C31   C     C_R   0.196793 0.551242 0.951986 0.004905
C32   C     C_R   0.258300 0.547294 0.022795 0.014425
C33   C     C_R   0.460698 0.652602 0.927962 -0.081381
C34   C     C_3   0.234732 0.787644 0.619531 0.281119
C35   C     C_R   0.522615 0.646756 0.997204 -0.088939
C36   C     C_R   0.421887 0.595308 0.045262 0.031174
C37   C     C_R   0.379547 0.546115 0.165697 -0.044518
C38   C     C_R   0.482022 0.592811 0.115602 -0.110627
C39   C     C_R   0.434359 0.550668 0.238442 -0.001515
C40   C     C_R   0.326206 0.508468 0.287459 -0.298630
C41   C     C_R   0.166922 0.454330 0.265776 0.042932
C42   C     C_R   0.764433 0.182825 0.529524 -0.277970
C43   C     C_R   0.428435 0.807212 0.469552 -0.286498
C44   C     C_R   0.402199 0.984445 0.444408 -0.105927
C45   C     C_3   0.247820 0.910146 0.635329 -0.353894
C46   C     C_R   0.337627 0.875851 0.440305 -0.012784
C47   C     C_R   0.577824 0.848102 0.509070 0.068744
C48   C     C_R   0.642361 0.960342 0.517004 -0.060545
C49   C     C_R   0.553913 0.028481 0.482747 -0.062750
C50   C     C_R   0.617605 0.139584 0.489157 0.045680
C51   C     C_R   0.856142 0.116549 0.560460 -0.014316
C52   C     C_R   0.793235 0.006606 0.556602 -0.092825
C53   C     C_3   0.960631 0.212356 0.381099 0.278402
C54   C     C_3   0.945748 0.089746 0.364782 -0.349802
C55   C     C_3   0.729896 0.707761 0.682939 0.310175
C56   C     C_3   0.753698 0.746705 0.764397 -0.392087
H1    H     H_    0.723385 0.864791 0.341248 0.076754
H2    H     H_    0.335991 0.943213 0.682088 0.111060
H3    H     H_    0.292574 0.945515 0.587692 0.084812
H4    H     H_    0.124613 0.933068 0.648510 0.140352
H5    H     H_    0.840898 0.235428 0.397884 0.002534
H6    H     H_    0.055597 0.242876 0.425719 0.082569
H7    H     H_    0.851513 0.057086 0.320215 0.114851
H8    H     H_    0.907941 0.054469 0.413326 0.086807
H9    H     H_    0.066841 0.066223 0.348277 0.142499
H10   H     H_    0.846264 0.683220 0.661839 0.012224
H11   H     H_    0.628594 0.637430 0.672748 0.065813
H12   H     H_    0.526007 0.964507 0.287183 0.104630
H13   H     H_    0.861196 0.812928 0.776181 0.139416
H14   H     H_    0.776391 0.679310 0.792473 0.053699
H15   H     H_    0.640741 0.777533 0.785670 0.121585
H16   H     H_    0.520796 0.785917 0.323730 -0.050630
H17   H     H_    0.486989 0.856933 0.209390 0.114354
H18   H     H_    0.342986 0.298070 0.335437 0.018349
H19   H     H_    0.559960 0.346228 0.324022 0.059683
H20   H     H_    0.330830 0.168794 0.220654 0.130184
H21   H     H_    0.406092 0.304731 0.205707 0.056927
H22   H     H_    0.549554 0.210132 0.210007 0.118929
H23   H     H_    0.689128 0.937969 0.225625 0.131768
H24   H     H_    0.148842 0.720638 0.148610 0.071000
H25   H     H_    0.132225 0.315739 0.732128 0.031324
H26   H     H_    0.926628 0.238087 0.726715 -0.085681
H27   H     H_    0.222585 0.219213 0.826215 0.077008
H28   H     H_    0.039509 0.275562 0.851942 0.036921
H29   H     H_    0.465927 0.132591 0.658542 0.082887
H30   H     H_    0.697921 0.144213 0.792309 0.166642
H31   H     H_    0.663713 0.035266 0.715065 0.108756
H32   H     H_    0.047418 0.684321 0.268384 0.094630
H33   H     H_    0.497534 0.061719 0.775024 0.120487
H34   H     H_    0.648885 0.305788 0.107822 0.061490
H35   H     H_    0.541438 0.314471 0.986317 0.071355
H36   H     H_    0.824596 0.478914 0.655688 0.070329
H37   H     H_    0.582865 0.367067 0.868506 0.102766
H38   H     H_    0.874471 0.344017 0.198993 0.096620
H39   H     H_    0.315215 0.655293 0.801130 0.096438
H40   H     H_    0.540980 0.693385 0.892271 0.064586
H41   H     H_    0.649079 0.683594 0.013456 0.073223
H42   H     H_    0.608612 0.629357 0.130846 0.108405
H43   H     H_    0.259923 0.751287 0.274517 -0.075335
H44   H     H_    0.368823 0.514834 0.343367 0.072807
H45   H     H_    0.329015 0.033563 0.419181 0.102389
H46   H     H_    0.865668 0.958827 0.583325 0.104877
H47   H     H_    0.813127 0.267979 0.532992 0.064212
H48   H     H_    0.377356 0.722340 0.465349 0.071497
H49   H     H_    0.977992 0.791208 0.175867 0.150918
H50   H     H_    0.187029 0.864185 0.183873 0.112094
H51   H     H_    0.356921 0.765663 0.605452 0.006449
H52   H     H_    0.143877 0.756598 0.573242 0.076530
O1    O     O_2   0.873090 0.425890 0.325140 -0.466602
O2    O     O_3   0.690160 0.793137 0.650524 -0.640384
O3    O     O_3   0.085548 0.847002 0.315011 -0.598947
O4    O     O_2   0.316610 0.574140 0.674900 -0.468135
O5    O     O_3   0.067290 0.565720 0.585630 -0.496774
O6    O     O_3   0.530210 0.372990 0.631200 -0.463149
O7    O     O_3   0.185815 0.747056 0.682144 -0.639798
O8    O     O_3   0.611340 0.366290 0.463630 -0.477276
O9    O     O_3   0.108550 0.314140 0.595200 -0.480867
O10   O     O_2   0.195807 0.121362 0.551375 -0.482496
O11   O     O_3   0.113132 0.153612 0.685614 -0.604726
O12   O     O_3   0.122420 0.434370 0.414380 -0.495067
O13   O     O_3   0.578370 0.633800 0.536380 -0.488716
O14   O     O_2   0.341510 0.231850 0.465510 -0.467765
O15   O     O_3   0.504695 0.189620 0.345738 -0.650657
O16   O     O_2   0.416163 0.453351 0.756676 -0.497850
O17   O     O_3   0.478438 0.255763 0.746048 -0.601880
O18   O     O_3   0.659500 0.627100 0.368810 -0.472152
O19   O     O_2   0.776458 0.546927 0.243641 -0.497030
O20   O     O_3   0.003016 0.253036 0.317855 -0.639652
O21   O     O_3   0.708039 0.742865 0.252778 -0.597859
O22   O     O_2   0.848200 0.768190 0.534530 -0.473191
O23   O     O_3   0.081160 0.685950 0.404810 -0.486989
O24   O     O_2   0.999514 0.879379 0.449532 -0.485008
P1    P     P_3+3 0.041040 0.394770 0.336330 0.972040
P2    P     P_3+3 0.672880 0.754030 0.556100 0.971124
P3    P     P_3+3 0.126559 0.823853 0.402893 0.949700
P4    P     P_3+3 0.148670 0.605320 0.663680 0.972390
P5    P     P_3+3 0.066864 0.175146 0.597857 0.955013
P6    P     P_3+3 0.644092 0.614407 0.274840 0.950026
P7    P     P_3+3 0.522431 0.230164 0.439969 0.934114
P8    P     P_3+3 0.546229 0.384269 0.724970 0.949516
O25   O     O_3   0.003699 0.110801 0.820357 -0.727266
H53   H     H_    0.074412 0.056847 0.800021 0.322964
H54   H     H_    0.667659 0.212191 0.676168 -0.046140

loop_
_geom_bond_atom_site_label_1
_geom_bond_atom_site_label_2
_ccdc_geom_bond_type
C5    H25   S    
C53   C54   S    
O23   P3    S    
C39   C40   A    
C17   C18   A    
Ba1   O18   S    
Ba1   O22   S    
O1    P1    D    
C45   H4    S    
Ba2   O8    S    
C5    C6    S    
C37   C39   A    
C54   H9    S    
C42   H47   S    
C8    H30   S    
C7    O17   S    
C46   P3    S    
C52   H46   S    
C26   C27   A    
C33   C35   A    
O2    P2    S    
Ba1   Ba2   S    
C3    C4    S    
C56   H13   S    
C4    H20   S    
C55   O2    S    
C19   C31   A    
C13   C14   A    
C2    H1    S    
C34   C45   S    
C6    H27   S    
Ba1   O12   S    
C12   H32   S    
C39   P6    S    
C28   H38   S    
O21   P6    S    
C45   H2    S    
Ba2   O6    S    
C42   C51   A    
O20   P1    S    
C8    H31   S    
O15   P7    S    
C14   C15   A    
C53   H5    S    
C1    H23   S    
C21   C22   A    
C43   C47   A    
Ba1   P2    S    
C1    H17   S    
C7    C8    S    
C2    H16   S    
O8    P7    S    
O4    P4    D    
C5    H26   S    
C24   C29   A    
C51   P5    S    
C27   C41   A    
C16   H37   S    
O24   P3    D    
Ba1   O23   S    
C40   H44   S    
C48   C49   A    
C2    O21   S    
C55   C56   S    
Ba2   O12   S    
C25   C32   A    
C44   C46   A    
C49   C50   A    
Ba2   P4    S    
C30   C33   A    
C45   H3    S    
C17   C20   A    
C37   C38   A    
C16   C17   A    
C12   H43   S    
C26   C37   A    
C22   P4    S    
Ba2   O13   S    
C44   C49   A    
O16   P8    D    
C15   C19   A    
O17   P8    S    
Ba1   O13   S    
C13   H35   S    
C35   C36   A    
Ba2   O5    S    
C5    O11   S    
C4    H22   S    
C29   C30   A    
O5    P4    S    
C9    C25   A    
O22   P2    D    
C53   O20   S    
C53   H6    S    
C20   P8    S    
C31   C32   A    
O10   P5    D    
C48   C52   A    
C1    H12   S    
C10   C11   A    
C41   P1    S    
C34   O7    S    
O6    P8    S    
C47   P2    S    
C8    H33   S    
C11   C13   A    
C11   H34   S    
C34   H52   S    
C23   H24   S    
O3    P3    S    
O14   P7    D    
C40   C41   A    
C55   H10   S    
C3    H19   S    
C1    C2    S    
C33   H40   S    
C35   H41   S    
C43   H48   S    
C23   H49   S    
C43   C46   A    
C9    C15   A    
C10   C28   A    
C32   C36   A    
C22   C24   A    
O7    P4    S    
C42   C50   A    
C38   H42   S    
C9    C10   A    
C51   C52   A    
Ba2   O14   S    
C12   O3    S    
C44   H45   S    
C50   P7    S    
C21   H36   S    
O13   P2    S    
O9    P5    S    
C30   C31   A    
O11   P5    S    
C3    H18   S    
O25   H53   S    
O18   P6    S    
Ba1   O1    S    
C36   C38   A    
Ba2   O4    S    
C56   H14   S    
C4    H21   S    
O19   P6    D    
C18   C24   A    
C54   H8    S    
Ba2   O9    S    
C7    H54   S    
C6    O25   S    
C6    H28   S    
Ba1   O8    S    
C29   H39   S    
C12   C23   S    
O12   P1    S    
C27   C28   A    
C18   C19   A    
C56   H15   S    
C14   C16   A    
C47   C48   A    
C3    O15   S    
C34   H51   S    
C20   C21   A    
Ba1   O5    S    
C55   H11   S    
Ba1   P1    S    
C7    H29   S    
C54   H7    S    
C23   H50   S    
C25   C26   A    
