data_mof_unit_4154.cif
_audit_creation_date              2012-12-11T14:08:33-0500
_audit_creation_method            fapswitch 2.2
_symmetry_space_group_name_H-M    P1
_symmetry_Int_Tables_number       1
_space_group_crystal_system       triclinic
_cell_length_a                    11.01615
_cell_length_b                    10.988432
_cell_length_c                    18.757824
_cell_angle_alpha                 89.960513
_cell_angle_beta                  89.556568
_cell_angle_gamma                 60.02826
_cell_volume                      1966.91833358

loop_
_atom_site_label
_atom_site_type_symbol
_atom_type_description
_atom_site_fract_x
_atom_site_fract_y
_atom_site_fract_z
_atom_type_partial_charge
Br1   Br    Br    0.497216 0.985875 0.798755 -0.475351
Br2   Br    Br    0.943780 0.586338 0.629013 -0.485345
Br3   Br    Br    0.268247 0.362229 0.692700 -0.317667
Br4   Br    Br    0.984385 0.464195 0.196024 -0.448779
Br5   Br    Br    0.884130 0.361521 0.830875 -0.468034
C1    C     C_R   0.236261 0.645306 0.608576 0.605214
C2    C     C_2   0.787180 0.133445 0.705050 -0.066005
C3    C     C_2   0.178895 0.663213 0.680677 -0.053100
C4    C     C_R   0.653097 0.623918 0.600746 0.585211
C5    C     C_2   0.183351 0.668339 0.837523 -0.124852
C6    C     C_2   0.166272 0.576232 0.798445 -0.115317
C7    C     C_2   0.200169 0.554104 0.722892 0.201182
C8    C     C_2   0.665695 0.677512 0.328779 -0.091655
C9    C     C_2   0.727604 0.736410 0.181312 -0.030097
C10   C     C_2   0.819536 0.635161 0.226203 0.120382
C11   C     C_2   0.794091 0.637032 0.303441 -0.106265
C12   C     C_3   0.711133 0.528170 0.798422 -0.019697
C13   C     C_2   0.572862 0.318927 0.312088 -0.058396
C14   C     C_2   0.641742 0.183332 0.170465 -0.072175
C15   C     C_2   0.510309 0.270684 0.192709 -0.135961
C16   C     C_R   0.630911 0.221801 0.599514 0.575893
C17   C     C_2   0.480813 0.305677 0.269214 -0.059854
C18   C     C_2   0.189332 0.661520 0.326301 -0.086510
C19   C     C_2   0.183968 0.644609 0.172720 -0.105792
C20   C     C_2   0.236842 0.713678 0.206432 -0.153383
C21   C     C_2   0.266840 0.691474 0.281530 -0.150681
C22   C     C_R   0.706623 0.096282 0.897024 0.553132
C23   C     C_3   0.696843 0.674340 0.812745 0.018943
C24   C     C_R   0.722543 0.687774 0.888713 0.570399
C25   C     C_R   0.116955 0.707654 0.907148 0.543529
C26   C     C_R   0.674012 0.110095 0.103075 0.544013
C27   C     C_R   0.738175 0.721923 0.103194 0.580275
C28   C     C_R   0.226042 0.647971 0.400207 0.544771
C29   C     C_R   0.099038 0.705556 0.110623 0.555506
C30   C     C_R   0.644943 0.626810 0.396128 0.540489
C31   C     C_R   0.573328 0.306565 0.390313 0.550757
C32   C     C_3   0.545071 0.790268 0.787886 0.000318
C33   C     C_3   0.525304 0.770629 0.708410 -0.235030
C34   C     C_3   0.665102 0.650411 0.676696 0.000014
C35   C     C_3   0.809213 0.687476 0.767405 -0.189389
C36   C     C_1   0.903401 0.139026 0.672079 0.259443
C37   C     C_1   0.566614 0.290239 0.821029 0.265576
C38   C     C_1   0.619386 0.871181 0.208827 0.161003
C39   C     C_1   0.356456 0.308067 0.296718 0.276100
C40   C     C_1   0.673319 0.353565 0.281787 0.183535
C41   C     C_1   0.589898 0.479211 0.702655 0.164393
C42   C     C_3   0.776963 0.693844 0.687468 -0.001455
C43   C     C_3   0.700132 0.512735 0.717852 -0.101295
C44   C     C_2   0.676853 0.147768 0.667850 -0.109497
C45   C     C_2   0.695500 0.161574 0.829620 0.027676
C46   C     C_2   0.798956 0.095036 0.780635 -0.138005
Cr1   Cr    Cr6+3 0.393010 0.398050 0.501480 1.124834
Cr2   Cr    Cr6+3 0.398820 0.707980 0.501630 1.059229
Cr3   Cr    Cr6+3 0.708140 0.393940 0.496850 1.098237
Cr4   Cr    Cr6+3 0.937950 0.938450 0.008940 1.075763
Cr5   Cr    Cr6+3 0.626180 0.937030 0.994750 1.094299
Cr6   Cr    Cr6+3 0.937790 0.625760 0.001410 1.101290
H1    H     H_    0.800881 0.425214 0.697408 0.219291
H2    H     H_    0.573810 0.728362 0.295412 0.111398
H3    H     H_    0.423138 0.296156 0.157293 0.163097
H4    H     H_    0.729993 0.147132 0.206148 0.131391
H5    H     H_    0.243117 0.799666 0.181456 0.180873
H6    H     H_    0.437726 0.748414 0.703013 0.142539
H7    H     H_    0.347013 0.712586 0.301352 0.155886
H8    H     H_    0.188867 0.551949 0.196034 0.146283
H9    H     H_    0.108386 0.639950 0.308505 0.116215
H10   H     H_    0.492484 0.868350 0.677286 0.188720
H11   H     H_    0.814142 0.782658 0.782991 0.116517
H12   H     H_    0.913292 0.595069 0.777426 0.195450
H13   H     H_    0.734127 0.804200 0.669221 0.146771
H14   H     H_    0.624972 0.524749 0.828167 0.136277
H15   H     H_    0.895723 0.001778 0.796161 0.134080
H16   H     H_    0.603219 0.123628 0.694190 0.174048
H17   H     H_    0.130361 0.510185 0.822998 0.200269
H18   H     H_    0.228179 0.728199 0.814668 0.107204
H19   H     H_    0.465690 0.778757 0.819701 0.140878
H20   H     H_    0.131708 0.768505 0.703033 0.064688
H21   H     H_    0.884231 0.577329 0.337476 0.179600
N1    N     N_1   0.996693 0.143190 0.645842 -0.211102
N2    N     N_1   0.460909 0.393688 0.820093 -0.270026
N3    N     N_1   0.532393 0.977873 0.231034 -0.268808
N4    N     N_1   0.257125 0.309665 0.318569 -0.216576
N5    N     N_1   0.754033 0.379646 0.257075 -0.219304
N6    N     N_1   0.499088 0.460896 0.687949 -0.256183
O1    O     O_R   0.507110 0.256280 0.580300 -0.453493
O2    O     O_R   0.837080 0.593860 0.915300 -0.465165
O3    O     O_R   0.064770 0.636080 0.932550 -0.501400
O4    O     O_R   0.280830 0.527190 0.577940 -0.419587
O5    O     O_R   0.068250 0.829200 0.092940 -0.505567
O6    O     O_R   0.799650 0.057040 0.080330 -0.490525
O7    O     O_R   0.586130 0.079760 0.077080 -0.503120
O8    O     O_R   0.627700 0.809630 0.066580 -0.495788
O9    O     O_R   0.816140 0.597180 0.075920 -0.440224
O10   O     O_R   0.045360 0.639170 0.081440 -0.490529
O11   O     O_3   0.833980 0.833750 0.001700 -0.323478
O12   O     O_R   0.524640 0.695370 0.425100 -0.507311
O13   O     O_R   0.261360 0.738990 0.584270 -0.515751
O14   O     O_R   0.532590 0.694780 0.574370 -0.514186
O15   O     O_R   0.744470 0.503750 0.577000 -0.463707
O16   O     O_R   0.698520 0.277230 0.571620 -0.490786
O17   O     O_R   0.498530 0.256920 0.419280 -0.493986
O18   O     O_R   0.272880 0.527780 0.428680 -0.507184
O19   O     O_R   0.252780 0.739630 0.423250 -0.501243
O20   O     O_R   0.735890 0.504390 0.415980 -0.489615
O21   O     O_R   0.690560 0.277820 0.422350 -0.487833
O22   O     O_3   0.499990 0.499990 0.499980 -0.314915
O23   O     O_R   0.089190 0.825870 0.932320 -0.499424
O24   O     O_R   0.819070 0.053960 0.931440 -0.491778
O25   O     O_R   0.607070 0.076440 0.916460 -0.456119
O26   O     O_R   0.647110 0.806550 0.917690 -0.468581

loop_
_geom_bond_atom_site_label_1
_geom_bond_atom_site_label_2
_ccdc_geom_bond_type
Cr5   O11   S    
C37   N2    T    
C4    O14   A    
C25   O23   A    
C35   C42   S    
C14   C15   D    
C12   C43   S    
C14   C26   S    
C16   C44   S    
C30   O12   A    
Cr1   O18   S    
C23   C32   S    
C18   H9    S    
Cr3   O20   S    
Cr1   O1    S    
Cr2   O19   S    
C8    C30   S    
Cr4   O6    S    
C39   N4    T    
C33   C34   S    
Br5   C12   S    
C23   C35   S    
C10   C11   S    
C4    C34   S    
C1    O4    A    
Cr6   O2    S    
C18   C21   D    
C21   H7    S    
Br3   C7    S    
Cr2   O22   S    
Cr5   O7    S    
C17   C39   S    
C18   C28   S    
C15   H3    S    
C22   C45   S    
Br1   C32   S    
C27   O9    A    
Cr1   O22   S    
C4    O15   A    
Cr6   O9    S    
Cr2   O12   S    
Cr3   O16   S    
C40   N5    T    
Cr5   O26   S    
C41   C43   S    
C16   O1    A    
Cr1   O17   S    
C35   H12   S    
Cr3   O22   S    
C28   O18   A    
C1    O13   A    
C24   O26   A    
Cr1   O4    S    
C19   C20   D    
C2    C44   D    
Cr4   O11   S    
C30   O20   A    
C16   O16   A    
C1    C3    S    
Cr2   O13   S    
C20   C21   S    
C19   C29   S    
Cr6   O3    S    
Cr4   O23   S    
C31   O17   A    
C42   H13   S    
C32   C33   S    
C5    H18   S    
C5    C25   S    
C3    C7    D    
C26   O6    A    
C45   C46   D    
C24   O2    A    
C19   H8    S    
C37   C45   S    
C41   N6    T    
C32   H19   S    
C15   C17   S    
C12   H14   S    
C26   O7    A    
Cr6   O10   S    
Cr6   O11   S    
C3    H20   S    
Cr2   O14   S    
C44   H16   S    
Cr3   O15   S    
C46   H15   S    
C13   C40   S    
Cr5   O25   S    
C34   C42   S    
C33   H6    S    
C23   C24   S    
Cr3   O21   S    
C31   O21   A    
C28   O19   A    
C12   C23   S    
C29   O10   A    
C9    C27   S    
C6    H17   S    
C36   N1    T    
C6    C7    S    
C43   H1    S    
C8    H2    S    
Br2   C42   S    
Cr4   O24   S    
Br4   C10   S    
C13   C17   D    
C29   O5    A    
C2    C46   S    
Cr4   O5    S    
C27   O8    A    
C22   O24   A    
C14   H4    S    
C38   N3    T    
C11   H21   S    
C20   H5    S    
C2    C36   S    
C5    C6    D    
Cr5   O8    S    
C33   H10   S    
C22   O25   A    
C35   H11   S    
C8    C11   D    
C9    C10   D    
C9    C38   S    
C25   O3    A    
C13   C31   S    
C34   C43   S    
