data_mof_unit_2210.cif
_audit_creation_date              2012-12-10T18:05:57-0500
_audit_creation_method            fapswitch 2.2
_symmetry_space_group_name_H-M    P1
_symmetry_Int_Tables_number       1
_space_group_crystal_system       triclinic
_cell_length_a                    12.577693
_cell_length_b                    13.06588
_cell_length_c                    15.000848
_cell_angle_alpha                 90.850715
_cell_angle_beta                  102.446038
_cell_angle_gamma                 81.949731
_cell_volume                      2383.26251545

loop_
_atom_site_label
_atom_site_type_symbol
_atom_type_description
_atom_site_fract_x
_atom_site_fract_y
_atom_site_fract_z
_atom_type_partial_charge
C1    C     C_R   0.438307 0.691619 0.491216 0.952536
C2    C     C_R   0.597262 0.512742 0.110624 0.112180
C3    C     C_R   0.317290 0.445648 0.012099 -0.179081
C4    C     C_R   0.318245 0.444381 0.919627 -0.128914
C5    C     C_R   0.411226 0.466554 0.890541 0.102781
C6    C     C_R   0.504711 0.489045 0.954264 0.059391
C7    C     C_R   0.598540 0.511748 0.925277 0.097873
C8    C     C_R   0.691280 0.533411 0.989038 -0.143945
C9    C     C_R   0.690727 0.533702 0.081588 -0.167726
C10   C     C_R   0.411886 0.467785 0.798537 -0.174910
C11   C     C_R   0.503841 0.492879 0.769654 -0.070953
C12   C     C_R   0.501452 0.497533 0.673229 0.972809
C13   C     C_R   0.597401 0.513575 0.832792 -0.136028
C14   C     C_R   0.687391 0.070329 0.652823 -0.114299
C15   C     C_R   0.598758 0.200113 0.537570 -0.129390
C16   C     C_R   0.306744 0.836193 0.413821 -0.234917
C17   C     C_R   0.282867 0.940179 0.389132 0.461109
C18   C     C_R   0.354157 0.008364 0.429429 -0.195351
C19   C     C_R   0.447110 0.974110 0.499760 0.004277
C20   C     C_R   0.458191 0.873360 0.535838 -0.060201
C21   C     C_R   0.528153 0.037003 0.536276 0.057863
C22   C     C_R   0.608663 0.005437 0.616641 -0.081441
C23   C     C_R   0.561596 0.308519 0.513087 0.890742
C24   C     C_R   0.605010 0.912771 0.661566 0.340640
C25   C     C_R   0.528595 0.847902 0.622181 0.299472
C26   C     C_R   0.530780 0.131086 0.494629 -0.230359
C27   C     C_R   0.681284 0.168416 0.615237 0.366663
C28   C     C_R   0.397026 0.801782 0.484366 -0.112885
C29   C     C_R   0.095269 0.333236 0.384840 -0.204446
C30   C     C_R   0.799485 0.627390 0.611212 -0.109376
C31   C     C_R   0.907294 0.643225 0.646359 0.335616
C32   C     C_R   0.992845 0.586116 0.612711 0.318332
C33   C     C_R   0.967034 0.519945 0.536727 -0.137029
C34   C     C_R   0.499837 0.499034 0.326903 0.879067
C35   C     C_R   0.856735 0.500329 0.509969 0.119209
C36   C     C_R   0.044741 0.469313 0.488323 -0.013999
C37   C     C_R   0.016122 0.387671 0.427541 0.065827
C38   C     C_R   0.908493 0.364080 0.408974 0.328677
C39   C     C_R   0.830053 0.422439 0.447582 -0.178966
C40   C     C_R   0.148061 0.500448 0.493196 0.038704
C41   C     C_R   0.199274 0.362091 0.399921 -0.008825
C42   C     C_R   0.595145 0.515142 0.202411 -0.202514
C43   C     C_R   0.500816 0.495608 0.230930 -0.068493
C44   C     C_R   0.408529 0.471898 0.167945 -0.226623
C45   C     C_R   0.409441 0.468758 0.075782 0.110163
C46   C     C_R   0.503934 0.489852 0.046924 0.072877
H1    H     H_    0.666949 0.532879 0.251382 0.170640
H2    H     H_    0.750595 0.048111 0.713225 0.235351
H3    H     H_    0.257640 0.781833 0.375468 0.186873
H4    H     H_    0.170801 0.570071 0.526395 0.189358
H5    H     H_    0.244541 0.429167 0.033763 0.166366
H6    H     H_    0.763705 0.550667 0.967296 0.178042
H7    H     H_    0.762811 0.551074 0.130317 0.163685
N1    N     N_R   0.222190 0.444670 0.452360 -0.120452
N2    N     N_R   0.776970 0.554790 0.547140 -0.138431
O1    O     O_R   0.366740 0.627160 0.477250 -0.612349
O2    O     O_R   0.544830 0.662520 0.507680 -0.604876
O3    O     O_R   0.410940 0.482340 0.616930 -0.608980
O4    O     O_R   0.589030 0.517700 0.647360 -0.586223
O5    O     O_R   0.455170 0.337480 0.492320 -0.628077
O6    O     O_R   0.633260 0.372840 0.522750 -0.581572
O7    O     O_R   0.410970 0.482300 0.352640 -0.627949
O8    O     O_R   0.589060 0.517660 0.383070 -0.648249
Zn1   Zn    Zn3+2 0.381090 0.476390 0.479680 0.978583
Zn2   Zn    Zn3+2 0.618910 0.523610 0.520320 1.001581
Cl1   Cl    Cl    0.691589 0.879079 0.769752 -0.465767
H8    H     H_    0.475572 0.156075 0.430815 0.155140
H9    H     H_    0.332879 0.087837 0.406318 0.154699
Cl2   Cl    Cl    0.168328 0.983853 0.302293 -0.538224
Cl3   Cl    Cl    0.506360 0.747366 0.690574 -0.551224
H10   H     H_    0.262002 0.319337 0.369304 0.142377
Cl4   Cl    Cl    0.865430 0.265623 0.333491 -0.562356
H11   H     H_    0.078041 0.268961 0.340312 0.227021
H12   H     H_    0.335961 0.456094 0.190385 0.168612
H13   H     H_    0.733567 0.668297 0.639261 0.214273
Cl5   Cl    Cl    0.126893 0.582977 0.681272 -0.570265
Cl6   Cl    Cl    0.933095 0.729769 0.737001 -0.426293
H14   H     H_    0.748448 0.403897 0.428455 0.227927
H15   H     H_    0.246161 0.427027 0.870886 0.190239
H16   H     H_    0.340261 0.449913 0.749549 0.205822
H17   H     H_    0.668817 0.532198 0.810156 0.192234
Cl7   Cl    Cl    0.771951 0.251133 0.672874 -0.553675

loop_
_geom_bond_atom_site_label_1
_geom_bond_atom_site_label_2
_ccdc_geom_bond_type
C16   C28   A    
C21   C26   A    
O8    Zn2   S    
C17   Cl2   S    
C19   C20   A    
C7    C8    A    
C45   C46   A    
C2    C46   A    
C26   H8    S    
C36   C37   A    
C19   C21   A    
C1    O1    A    
C5    C6    A    
C29   H11   S    
C20   C25   A    
C18   H9    S    
C13   H17   S    
C34   O7    A    
C33   C36   A    
C18   C19   A    
O7    Zn1   S    
C12   O4    A    
C8    C9    A    
C1    C28   S    
O1    Zn1   S    
C14   C27   A    
C8    H6    S    
C24   Cl1   S    
C41   H10   S    
C12   O3    A    
C15   C23   S    
C21   C22   A    
N2    Zn2   S    
C31   Cl6   S    
O3    Zn1   S    
C23   O5    A    
C38   Cl4   S    
C35   N2    A    
C39   H14   S    
C36   C40   A    
C38   C39   A    
C24   C25   A    
C4    H15   S    
C3    H5    S    
C16   C17   A    
C15   C26   A    
C14   H2    S    
C20   C28   A    
C3    C45   A    
C35   C39   A    
C43   C44   A    
C37   C38   A    
C1    O2    A    
C15   C27   A    
C31   C32   A    
C7    C13   A    
C17   C18   A    
C16   H3    S    
C44   H12   S    
C40   N1    A    
C22   C24   A    
C9    H7    S    
C42   C43   A    
C3    C4    A    
C44   C45   A    
C10   H16   S    
C6    C46   A    
C29   C41   A    
C27   Cl7   S    
C34   C43   S    
O2    Zn2   S    
C4    C5    A    
C32   Cl5   S    
C11   C12   S    
C6    C7    A    
C30   N2    A    
O5    Zn1   S    
C32   C33   A    
C14   C22   A    
C5    C10   A    
O4    Zn2   S    
C30   H13   S    
C11   C13   A    
C30   C31   A    
N1    Zn1   S    
C2    C42   A    
C40   H4    S    
C34   O8    A    
C33   C35   A    
C42   H1    S    
C41   N1    A    
C10   C11   A    
O6    Zn2   S    
C23   O6    A    
C29   C37   A    
C25   Cl3   S    
C2    C9    A    
