data_mof_unit_1567.cif
_audit_creation_date              2012-12-11T15:53:44-0500
_audit_creation_method            fapswitch 2.2
_symmetry_space_group_name_H-M    P1
_symmetry_Int_Tables_number       1
_space_group_crystal_system       triclinic
_cell_length_a                    10.679844
_cell_length_b                    10.732379
_cell_length_c                    17.031266
_cell_angle_alpha                 80.752832
_cell_angle_beta                  99.334789
_cell_angle_gamma                 118.857152
_cell_volume                      1679.3931622

loop_
_atom_site_label
_atom_site_type_symbol
_atom_type_description
_atom_site_fract_x
_atom_site_fract_y
_atom_site_fract_z
_atom_type_partial_charge
C1    C     C_R   0.357400 0.221525 0.625727 0.563937
C2    C     C_R   0.418613 0.826506 0.687080 0.232242
C3    C     C_R   0.385550 0.854873 0.756104 -0.149087
C4    C     C_3   0.080306 0.481644 0.783378 -0.151629
C5    C     C_3   0.110539 0.448819 0.706947 0.382213
C6    C     C_R   0.323147 0.696871 0.650886 -0.018067
C7    C     C_1   0.824587 0.657059 0.705761 -0.052980
C8    C     C_1   0.852202 0.684378 0.773657 -0.075876
C9    C     C_1   0.327572 0.152671 0.704663 -0.044428
C10   C     C_1   0.292189 0.106929 0.771318 -0.074408
C11   C     C_1   0.368840 0.638885 0.274828 -0.064733
C12   C     C_R   0.371791 0.654247 0.588094 0.566733
C13   C     C_1   0.342269 0.657036 0.204367 -0.074614
C14   C     C_R   0.842332 0.673499 0.161721 0.003226
C15   C     C_R   0.859235 0.569421 0.215077 0.018282
C16   C     C_R   0.870350 0.568836 0.295633 -0.004344
C17   C     C_R   0.837377 0.780060 0.275782 -0.161390
C18   C     C_R   0.840598 0.785841 0.193348 -0.161982
C19   C     C_3   0.802803 0.413009 0.214520 0.033529
C20   C     C_3   0.835987 0.412003 0.304983 0.011260
C21   C     C_R   0.839791 0.663563 0.327077 0.010674
C22   C     C_R   0.286893 0.092402 0.173867 0.019637
C23   C     C_R   0.777753 0.619380 0.626585 0.549486
C24   C     C_R   0.265398 0.204626 0.187401 0.029295
C25   C     C_R   0.281941 0.238817 0.263295 0.017982
C26   C     C_R   0.358157 0.060439 0.315113 -0.177137
C27   C     C_R   0.340735 0.024351 0.237266 -0.170371
C28   C     C_3   0.134289 0.224182 0.165732 -0.262476
C29   C     C_3   0.150546 0.258151 0.250317 -0.264150
C30   C     C_R   0.323413 0.165332 0.327831 0.014448
C31   C     C_R   0.892325 0.701929 0.855812 0.534657
C32   C     C_R   0.279559 0.753275 0.883470 0.562091
C33   C     C_R   0.252182 0.057959 0.851300 0.534191
C34   C     C_R   0.348146 0.219744 0.403070 0.536644
C35   C     C_R   0.885701 0.690886 0.083302 0.551225
C36   C     C_R   0.315965 0.698170 0.122849 0.549203
C37   C     C_R   0.250531 0.045754 0.095436 0.565153
C38   C     C_R   0.402461 0.626070 0.358622 0.572588
C39   C     C_R   0.774559 0.622914 0.400931 0.540196
C40   C     C_R   0.273142 0.748468 0.797457 -0.070952
C41   C     C_R   0.166835 0.635099 0.755646 -0.062240
C42   C     C_R   0.191251 0.608267 0.683620 0.021421
Cr1   Cr    Cr6+3 0.608440 0.389080 0.519680 1.044474
Cr2   Cr    Cr6+3 0.288640 0.400090 0.490760 0.963869
Cr3   Cr    Cr6+3 0.602940 0.710800 0.489510 1.000888
Cr4   Cr    Cr6+3 0.052530 0.947560 0.964210 0.990865
Cr5   Cr    Cr6+3 0.059970 0.626800 0.992920 1.011505
Cr6   Cr    Cr6+3 0.373320 0.938440 0.995370 1.004104
H1    H     H_    0.686611 0.360942 0.192117 0.140119
H2    H     H_    0.934329 0.401251 0.328591 0.131792
H3    H     H_    0.392380 0.003659 0.364748 0.136385
H4    H     H_    0.361522 0.939246 0.227179 0.137485
H5    H     H_    0.036044 0.123037 0.152290 0.139695
H6    H     H_    0.152521 0.317209 0.120748 0.156974
H7    H     H_    0.175864 0.369340 0.255229 0.140149
H8    H     H_    0.062909 0.175568 0.285838 0.141894
H9    H     H_    0.463094 0.950624 0.783990 0.156241
H10   H     H_    0.965971 0.453716 0.785021 0.166059
H11   H     H_    0.127480 0.444966 0.839272 0.135719
H12   H     H_    0.821581 0.860039 0.298027 0.130501
H13   H     H_    0.838875 0.875650 0.154689 0.127915
O1    O     O_R   0.754020 0.497590 0.609930 -0.467841
O2    O     O_R   0.295080 0.533620 0.397890 -0.518584
O3    O     O_R   0.485280 0.746620 0.388440 -0.521495
O4    O     O_R   0.720550 0.696220 0.420010 -0.525540
O5    O     O_3   0.500010 0.499990 0.499980 -0.266658
O6    O     O_R   0.163320 0.092900 0.874450 -0.512110
O7    O     O_R   0.934650 0.822080 0.882840 -0.516857
O8    O     O_R   0.915520 0.604140 0.893670 -0.515946
O9    O     O_R   0.191760 0.638110 0.923230 -0.503418
O10   O     O_R   0.406180 0.826930 0.920660 -0.521384
O11   O     O_R   0.358620 0.062870 0.901950 -0.499295
O12   O     O_R   0.481420 0.271390 0.600630 -0.470076
O13   O     O_R   0.163910 0.085460 0.050210 -0.513081
O14   O     O_R   0.935200 0.815170 0.045770 -0.519848
O15   O     O_R   0.916120 0.596690 0.069430 -0.473988
O16   O     O_R   0.192310 0.631200 0.086170 -0.496814
O17   O     O_R   0.406770 0.819480 0.096420 -0.519346
O18   O     O_R   0.359170 0.055960 0.064880 -0.496415
O19   O     O_3   0.161940 0.837600 0.984160 -0.306241
O20   O     O_R   0.263810 0.254550 0.589590 -0.542631
O21   O     O_R   0.300820 0.531200 0.560890 -0.504102
O22   O     O_R   0.491480 0.744020 0.564270 -0.464256
O23   O     O_R   0.726290 0.693800 0.583010 -0.516264
O24   O     O_R   0.747830 0.500190 0.434090 -0.505338
O25   O     O_R   0.475680 0.273800 0.437630 -0.496485
O26   O     O_R   0.257620 0.257160 0.413750 -0.534697
O27   O     O_3   0.554668 0.916835 0.663372 -0.528357
C43   C     C_3   0.654478 0.883428 0.715575 0.012166
H14   H     H_    0.633592 0.773162 0.709603 0.144760
H15   H     H_    0.649988 0.891923 0.779284 0.124575
C44   C     C_3   0.805880 0.987683 0.695124 -0.357734
H16   H     H_    0.829469 0.097035 0.704499 0.184225
H17   H     H_    0.884789 0.961656 0.734953 0.115794
H18   H     H_    0.816653 0.982116 0.632203 0.155531
N1    N     N_2   0.711691 0.312737 0.346248 -0.482245
H19   H     H_    0.616684 0.311429 0.321199 0.272058
C45   C     C_3   0.702013 0.173246 0.371578 -0.290323
H20   H     H_    0.662623 0.107905 0.320011 0.145009
H21   H     H_    0.627328 0.118874 0.418687 0.164037
H22   H     H_    0.807936 0.182310 0.398077 0.115004
N2    N     N_2   0.198670 0.375010 0.723123 -0.499275
H23   H     H_    0.138849 0.265713 0.733719 0.263259
C46   C     C_3   0.332039 0.432734 0.775672 -0.298488
H24   H     H_    0.312332 0.382077 0.837669 0.167644
H25   H     H_    0.381643 0.549744 0.776944 0.128085
H26   H     H_    0.411719 0.410928 0.754640 0.155006
O28   O     O_3   0.977822 0.377098 0.659288 -0.559205
C47   C     C_3   0.990227 0.328278 0.590025 -0.004254
H27   H     H_    0.895421 0.223007 0.581050 0.111584
H28   H     H_    0.082420 0.308778 0.594191 0.202909
C48   C     C_3   0.989912 0.427621 0.516045 -0.330636
H29   H     H_    0.034827 0.539683 0.530082 0.168110
H30   H     H_    0.051530 0.422901 0.471097 0.119721
H31   H     H_    0.878208 0.387499 0.489824 0.186425
N3    N     N_2   0.888969 0.375338 0.175639 -0.479094
H32   H     H_    0.996798 0.419766 0.195005 0.257133
C49   C     C_3   0.821384 0.227652 0.158696 -0.294683
H33   H     H_    0.874403 0.218132 0.110885 0.138909
H34   H     H_    0.706297 0.189287 0.136290 0.162892
H35   H     H_    0.829933 0.159267 0.213396 0.122084

loop_
_geom_bond_atom_site_label_1
_geom_bond_atom_site_label_2
_ccdc_geom_bond_type
Cr1   O12   S    
C5    C42   S    
C16   C21   A    
C41   C42   A    
C14   C18   A    
Cr2   O5    S    
C19   C20   S    
C37   O13   A    
C48   H30   S    
C7    C8    T    
Cr3   O22   S    
N3    H32   S    
C15   C19   S    
C37   O18   A    
C35   O14   A    
C26   C27   A    
Cr6   O18   S    
C28   C29   S    
Cr5   O15   S    
Cr2   O21   S    
C36   O16   A    
C47   H28   S    
C6    C12   S    
C4    C41   S    
C1    O20   A    
C15   C16   A    
O28   C47   S    
C34   O25   A    
Cr6   O17   S    
C49   H33   S    
Cr4   O14   S    
C20   H2    S    
C33   O11   A    
C23   O1    A    
Cr5   O8    S    
N1    C45   S    
C2    O27   S    
C43   H15   S    
Cr2   O26   S    
C9    C10   T    
C20   N1    S    
C39   O4    A    
C2    C6    A    
Cr5   O19   S    
Cr6   O11   S    
C46   H25   S    
C46   H24   S    
C32   O10   A    
C38   O3    A    
Cr2   O2    S    
C25   C29   S    
C31   O7    A    
C35   O15   A    
C23   O23   A    
C30   C34   S    
Cr1   O24   S    
C1    C9    S    
C24   C25   A    
C13   C36   S    
Cr2   O20   S    
C47   C48   S    
C14   C35   S    
C28   H6    S    
C32   O9    A    
C29   H7    S    
C22   C37   S    
C44   H18   S    
C17   C21   A    
C12   O22   A    
C49   H35   S    
C11   C38   S    
Cr5   O9    S    
Cr4   O7    S    
C19   H1    S    
C21   C39   S    
C16   C20   S    
N1    H19   S    
C44   H17   S    
C17   C18   A    
C12   O21   A    
C46   H26   S    
C43   C44   S    
N2    C46   S    
C3    H9    S    
C40   C41   A    
C3    C40   A    
C26   C30   A    
C45   H21   S    
C22   C27   A    
Cr3   O4    S    
C22   C24   A    
Cr3   O23   S    
Cr5   O16   S    
Cr6   O10   S    
Cr4   O13   S    
C27   H4    S    
C33   O6    A    
C38   O2    A    
C25   C30   A    
C5    N2    S    
C8    C31   S    
C24   C28   S    
C4    C5    S    
C28   H5    S    
C18   H13   S    
C29   H8    S    
C45   H22   S    
Cr3   O3    S    
C1    O12   A    
Cr6   O19   S    
C2    C3    A    
Cr4   O6    S    
C36   O17   A    
C26   H3    S    
Cr4   O19   S    
C11   C13   T    
C19   N3    S    
Cr1   O5    S    
C7    C23   S    
C4    H11   S    
C44   H16   S    
N3    C49   S    
C10   C33   S    
C48   H29   S    
C34   O26   A    
C32   C40   S    
N2    H23   S    
C49   H34   S    
Cr1   O25   S    
C17   H12   S    
C31   O8    A    
O27   C43   S    
C45   H20   S    
C6    C42   A    
C4    H10   S    
Cr3   O5    S    
C39   O24   A    
C14   C15   A    
C43   H14   S    
C47   H27   S    
C48   H31   S    
Cr1   O1    S    
C5    O28   S    
