data_mof_unit_4491.cif
_audit_creation_date              2013-03-05T15:51:58-0500
_audit_creation_method            fapswitch 2.2
_symmetry_space_group_name_H-M    P1
_symmetry_Int_Tables_number       1
_space_group_crystal_system       triclinic
_cell_length_a                    18.951906
_cell_length_b                    11.082301
_cell_length_c                    18.718448
_cell_angle_alpha                 90.252691
_cell_angle_beta                  90.776189
_cell_angle_gamma                 89.665462
_cell_volume                      3930.98460126

loop_
_atom_site_label
_atom_site_type_symbol
_atom_site_description
_atom_site_fract_x
_atom_site_fract_y
_atom_site_fract_z
_atom_type_partial_charge
O1    O     O_R   0.214300 0.709080 0.827500 -0.522472
O2    O     O_R   0.785700 0.709080 0.172500 -0.505836
O3    O     O_R   0.714300 0.209080 0.827500 -0.523571
O4    O     O_R   0.285700 0.209080 0.172500 -0.453530
O5    O     O_R   0.236190 0.958390 0.823150 -0.512559
O6    O     O_R   0.763810 0.958390 0.176850 -0.506064
O7    O     O_R   0.736190 0.458390 0.823150 -0.514735
O8    O     O_R   0.263810 0.458390 0.176850 -0.518331
C1    C     C_R   0.271771 0.043340 0.853167 0.536775
C2    C     C_R   0.727672 0.042454 0.146476 0.545133
C3    C     C_R   0.772528 0.541993 0.853629 0.540502
C4    C     C_R   0.227653 0.541741 0.145986 0.534128
O9    O     O_R   0.332090 0.075280 0.831290 -0.489918
O10   O     O_R   0.667910 0.075280 0.168710 -0.517282
O11   O     O_R   0.832090 0.575280 0.831290 -0.498317
O12   O     O_R   0.167910 0.575280 0.168710 -0.513757
O13   O     O_R   0.446280 0.918040 0.826620 -0.447027
O14   O     O_R   0.553720 0.918040 0.173380 -0.446526
O15   O     O_R   0.946280 0.418040 0.826620 -0.452569
O16   O     O_R   0.053720 0.418040 0.173380 -0.429779
C5    C     C_R   0.470534 0.822356 0.854910 0.557049
C6    C     C_R   0.560007 0.817071 0.137857 0.562322
C7    C     C_R   0.970810 0.322057 0.854828 0.555808
C8    C     C_R   0.060636 0.316428 0.138000 0.540145
O17   O     O_R   0.457080 0.716270 0.831760 -0.533675
O18   O     O_R   0.542920 0.716270 0.168240 -0.504343
O19   O     O_R   0.957080 0.216270 0.831760 -0.522785
O20   O     O_R   0.042920 0.216270 0.168240 -0.509876
O21   O     O_R   0.320980 0.624440 0.823040 -0.500443
O22   O     O_R   0.679020 0.624440 0.176960 -0.517269
O23   O     O_R   0.820980 0.124440 0.823040 -0.492553
O24   O     O_R   0.179020 0.124440 0.176960 -0.508208
C9    C     C_R   0.260282 0.635296 0.851215 0.541413
C10   C     C_R   0.739047 0.637963 0.147904 0.561873
C11   C     C_R   0.760904 0.136705 0.851785 0.546524
C12   C     C_R   0.226019 0.183498 0.141120 0.532364
O25   O     O_R   0.213880 0.710510 0.665560 -0.458343
O26   O     O_R   0.786120 0.710510 0.334440 -0.478722
O27   O     O_R   0.713880 0.210510 0.665560 -0.457188
O28   O     O_R   0.286120 0.210510 0.334440 -0.466758
O29   O     O_R   0.235800 0.959720 0.673040 -0.431037
O30   O     O_R   0.764200 0.959720 0.326960 -0.493317
O31   O     O_R   0.735800 0.459720 0.673040 -0.432365
O32   O     O_R   0.264200 0.459720 0.326960 -0.504758
C13   C     C_R   0.270796 0.049816 0.647946 0.579165
C14   C     C_R   0.709070 0.996474 0.361273 0.554082
C15   C     C_R   0.771038 0.549182 0.647491 0.579760
C16   C     C_R   0.224306 0.533340 0.358709 0.549808
O33   O     O_R   0.331670 0.076720 0.669350 -0.495057
O34   O     O_R   0.668330 0.076720 0.330650 -0.498027
O35   O     O_R   0.831670 0.576720 0.669350 -0.493383
O36   O     O_R   0.168330 0.576720 0.330650 -0.503518
O37   O     O_R   0.445900 0.919370 0.676500 -0.511665
O38   O     O_R   0.554100 0.919370 0.323500 -0.489258
O39   O     O_R   0.945900 0.419370 0.676500 -0.514248
O40   O     O_R   0.054100 0.419370 0.323500 -0.474094
C17   C     C_R   0.469093 0.822184 0.646776 0.531457
C18   C     C_R   0.529713 0.824215 0.352474 0.561828
C19   C     C_R   0.968654 0.322117 0.646614 0.529290
C20   C     C_R   0.029694 0.324355 0.352380 0.566909
O41   O     O_R   0.456660 0.717710 0.669820 -0.496646
O42   O     O_R   0.543340 0.717710 0.330180 -0.473212
O43   O     O_R   0.956660 0.217710 0.669820 -0.490030
O44   O     O_R   0.043340 0.217710 0.330180 -0.467302
O45   O     O_R   0.320590 0.625770 0.672930 -0.472117
O46   O     O_R   0.679410 0.625770 0.327070 -0.453451
O47   O     O_R   0.820590 0.125770 0.672930 -0.469565
O48   O     O_R   0.179410 0.125770 0.327070 -0.448934
C21   C     C_R   0.257238 0.631097 0.646809 0.584393
C22   C     C_R   0.738913 0.637884 0.356849 0.552899
C23   C     C_R   0.757299 0.131229 0.646324 0.581812
C24   C     C_R   0.238284 0.139503 0.357480 0.565917
Cr1   Cr    Cr6+3 0.229640 0.835880 0.747370 1.104981
Cr2   Cr    Cr6+3 0.770360 0.835880 0.252630 1.082174
Cr3   Cr    Cr6+3 0.729640 0.335880 0.747370 1.103746
Cr4   Cr    Cr6+3 0.270360 0.335880 0.252630 1.088081
Cr5   Cr    Cr6+3 0.387390 0.989720 0.750850 1.108234
Cr6   Cr    Cr6+3 0.612610 0.989720 0.249150 1.109260
Cr7   Cr    Cr6+3 0.887390 0.489720 0.750850 1.103711
Cr8   Cr    Cr6+3 0.112610 0.489720 0.249150 1.116041
Cr9   Cr    Cr6+3 0.385770 0.677220 0.749340 1.082231
Cr10  Cr    Cr6+3 0.614230 0.677220 0.250660 1.091477
Cr11  Cr    Cr6+3 0.885770 0.177220 0.749340 1.095085
Cr12  Cr    Cr6+3 0.114230 0.177220 0.250660 1.095738
O49   O     O_3   0.334270 0.834280 0.749190 -0.295438
O50   O     O_3   0.665730 0.834280 0.250810 -0.342699
O51   O     O_3   0.834270 0.334280 0.749190 -0.296697
O52   O     O_3   0.165730 0.334280 0.250810 -0.345707
C25   C     C_3   0.475049 0.895832 0.033585 0.229122
C26   C     C_3   0.519511 0.943963 0.972795 0.227246
C27   C     C_3   0.972873 0.381879 0.034374 0.235297
C28   C     C_3   0.014509 0.441257 0.975234 0.226096
C29   C     C_3   0.453084 0.786797 0.988484 -0.162290
C30   C     C_3   0.584938 0.874796 0.001859 -0.181212
C31   C     C_3   0.957735 0.272001 0.986931 -0.141253
C32   C     C_3   0.083319 0.381397 0.003082 -0.169738
H1    H     H_    0.396663 0.761900 0.983592 0.119911
H2    H     H_    0.639877 0.906584 0.008660 0.121055
H3    H     H_    0.905130 0.231856 0.979432 0.151468
H4    H     H_    0.136729 0.417974 0.011272 0.126546
C33   C     C_3   0.499217 0.833910 0.927350 0.010792
C34   C     C_3   0.538661 0.825393 0.062510 0.005892
C35   C     C_3   0.000579 0.331640 0.927069 0.002518
C36   C     C_3   0.040043 0.321657 0.062372 0.002287
C37   C     C_3   0.563457 0.763318 0.955661 -0.166615
C38   C     C_3   0.517698 0.714877 0.017096 -0.150944
C39   C     C_3   0.068462 0.269947 0.954228 -0.169776
C40   C     C_3   0.025955 0.210211 0.014689 -0.150174
C41   C     C_R   0.242742 0.573391 0.072058 0.013245
C42   C     C_R   0.754793 0.585245 0.924550 0.010767
C43   C     C_R   0.744776 0.085331 0.075318 0.026389
C44   C     C_R   0.246577 0.099201 0.919073 0.012193
C45   C     C_R   0.294069 0.510089 0.033916 -0.007180
C46   C     C_R   0.693416 0.551998 0.959978 -0.022052
C47   C     C_R   0.808188 0.060798 0.040804 0.028423
C48   C     C_R   0.192446 0.048120 0.958792 -0.005598
C49   C     C_R   0.296205 0.513683 0.959895 -0.002940
C50   C     C_R   0.689029 0.562551 0.033735 0.000823
C51   C     C_R   0.812109 0.067654 0.966992 0.003893
C52   C     C_R   0.183524 0.077803 0.030257 0.003403
C53   C     C_R   0.188409 0.628281 0.958299 -0.151342
C54   C     C_R   0.806697 0.642546 0.038119 -0.096744
C55   C     C_R   0.691350 0.131843 0.960230 -0.160862
C56   C     C_R   0.278387 0.219371 0.023130 -0.108844
C57   C     C_R   0.188550 0.630440 0.032404 -0.163707
C58   C     C_R   0.809337 0.639281 0.964723 -0.147127
C59   C     C_R   0.688600 0.132422 0.033978 -0.164553
C60   C     C_R   0.285814 0.192893 0.950755 -0.114265
C61   C     C_3   0.372635 0.510112 0.040850 -0.278130
C62   C     C_3   0.654252 0.436363 0.958476 -0.243505
C63   C     C_3   0.857258 0.955997 0.044522 -0.256474
C64   C     C_3   0.176102 0.919067 0.971203 -0.257286
C65   C     C_3   0.374832 0.505875 0.959495 -0.267963
C66   C     C_3   0.650373 0.446125 0.039144 -0.246476
C67   C     C_3   0.861008 0.962024 0.963482 -0.261808
C68   C     C_3   0.166068 0.950909 0.049279 -0.247941
C69   C     C_R   0.246722 0.582685 0.921115 0.013342
C70   C     C_R   0.747312 0.600970 0.074139 0.062703
C71   C     C_R   0.752670 0.096271 0.925022 0.007160
C72   C     C_R   0.229693 0.157591 0.064695 0.027031
H5    H     H_    0.144080 0.673178 0.058225 0.193748
H6    H     H_    0.857990 0.668484 0.940725 0.192124
H7    H     H_    0.639245 0.159384 0.057727 0.200453
H8    H     H_    0.327550 0.236700 0.921971 0.163969
H9    H     H_    0.400384 0.583386 0.934114 0.175576
H10   H     H_    0.595800 0.458346 0.058836 0.150125
H11   H     H_    0.914044 0.987611 0.944129 0.164532
H12   H     H_    0.110587 0.941495 0.066802 0.149104
H13   H     H_    0.393637 0.417465 0.938830 0.161252
H14   H     H_    0.681923 0.376405 0.067905 0.172024
H15   H     H_    0.836582 0.883880 0.935571 0.146965
H16   H     H_    0.206266 0.908765 0.085291 0.182820
C73   C     C_R   0.503201 0.834602 0.424313 0.002885
C74   C     C_R   0.493081 0.823513 0.573762 0.003312
C75   C     C_R   0.003728 0.336079 0.424237 0.009480
C76   C     C_R   0.990466 0.323417 0.573098 0.006429
C77   C     C_R   0.479025 0.731505 0.456604 0.089777
C78   C     C_R   0.473191 0.727251 0.529611 0.075156
C79   C     C_R   0.971137 0.238328 0.454802 0.087911
C80   C     C_R   0.963967 0.233499 0.527662 0.085834
C81   C     C_R   0.521861 0.925113 0.542426 -0.189748
C82   C     C_R   0.525191 0.930875 0.467879 -0.163144
C83   C     C_R   0.027418 0.418508 0.543607 -0.190054
C84   C     C_R   0.033437 0.424441 0.469367 -0.152675
C85   C     C_3   0.410102 0.670696 0.444235 -0.268153
C86   C     C_3   0.403760 0.666323 0.524466 -0.243039
C87   C     C_3   0.898504 0.191823 0.441211 -0.268277
C88   C     C_3   0.891014 0.186092 0.521421 -0.252368
H17   H     H_    0.370042 0.730175 0.418058 0.128396
H18   H     H_    0.408822 0.574833 0.546640 0.232917
H19   H     H_    0.862874 0.259304 0.415448 0.135251
H20   H     H_    0.889861 0.093377 0.542126 0.220402
C89   C     C_R   0.232131 0.541342 0.435246 -0.026675
C90   C     C_R   0.755522 0.600381 0.578144 0.014057
C91   C     C_R   0.717638 0.008257 0.438045 -0.030660
C92   C     C_R   0.254659 0.102622 0.579240 0.017203
C93   C     C_R   0.178072 0.595923 0.471408 -0.077577
C94   C     C_R   0.813170 0.627844 0.535280 0.051601
C95   C     C_R   0.669053 0.076880 0.474174 -0.084152
C96   C     C_R   0.311909 0.130557 0.536093 0.063356
C97   C     C_R   0.176157 0.601469 0.543601 -0.039729
C98   C     C_R   0.806764 0.629188 0.462903 -0.001121
C99   C     C_R   0.672704 0.094749 0.546078 -0.034147
C100  C     C_R   0.304915 0.133265 0.463878 0.008485
C101  C     C_R   0.280819 0.477535 0.551172 0.146570
C102  C     C_R   0.682831 0.578651 0.472208 0.193142
C103  C     C_R   0.776234 0.967518 0.553256 0.146203
C104  C     C_R   0.180629 0.085216 0.473888 0.188058
C105  C     C_R   0.279933 0.469144 0.475560 -0.155311
C106  C     C_R   0.688635 0.595226 0.546702 -0.092175
C107  C     C_R   0.768397 0.943812 0.478950 -0.153239
C108  C     C_R   0.187439 0.098967 0.548541 -0.089310
C109  C     C_3   0.132688 0.701713 0.455962 -0.171075
C110  C     C_3   0.885014 0.570692 0.531726 -0.192594
C111  C     C_3   0.631625 0.191227 0.456350 -0.169495
C112  C     C_3   0.383335 0.072307 0.531420 -0.196323
C113  C     C_3   0.126145 0.708958 0.536217 0.126032
C114  C     C_3   0.877139 0.572975 0.451301 0.079115
C115  C     C_3   0.626506 0.206153 0.536120 0.126759
C116  C     C_3   0.374692 0.075847 0.451092 0.075962
C117  C     C_R   0.235682 0.563099 0.583552 0.019519
C118  C     C_R   0.744058 0.598235 0.429768 -0.034107
C119  C     C_R   0.734213 0.059693 0.584193 0.016874
C120  C     C_R   0.241983 0.103512 0.431097 -0.039524
H21   H     H_    0.082338 0.682755 0.427549 0.188285
H22   H     H_    0.884177 0.477602 0.552887 0.114535
H23   H     H_    0.579932 0.184943 0.428600 0.186658
H24   H     H_    0.382329 0.978734 0.552130 0.117521
H25   H     H_    0.071856 0.690712 0.555125 0.129094
H26   H     H_    0.874135 0.482302 0.425754 0.107877
H27   H     H_    0.571939 0.193738 0.555875 0.131010
H28   H     H_    0.370769 0.985378 0.425243 0.111162
H29   H     H_    0.536279 0.001855 0.575001 0.125996
H30   H     H_    0.543667 0.010258 0.443268 0.168724
H31   H     H_    0.048411 0.489167 0.577459 0.125102
H32   H     H_    0.061783 0.496445 0.446374 0.160352
H33   H     H_    0.898936 0.101345 0.415319 0.202490
H34   H     H_    0.850781 0.249454 0.542756 0.153182
H35   H     H_    0.416528 0.580127 0.419320 0.204911
H36   H     H_    0.359772 0.722838 0.545058 0.144876
N1    N     N_R   0.328331 0.404849 0.593661 0.066476
O53   O     O_R   0.311689 0.374882 0.658412 -0.334428
O54   O     O_R   0.386036 0.361416 0.566687 -0.318235
N2    N     N_R   0.619121 0.525127 0.443274 0.109767
O55   O     O_R   0.622207 0.453200 0.388284 -0.316660
O56   O     O_R   0.563093 0.519702 0.482410 -0.310363
N3    N     N_R   0.828411 0.903823 0.595070 0.067179
O57   O     O_R   0.815766 0.875720 0.661080 -0.330106
O58   O     O_R   0.886916 0.867215 0.566439 -0.302792
N4    N     N_R   0.115336 0.036598 0.445407 0.106742
O59   O     O_R   0.115724 0.965315 0.390045 -0.314259
O60   O     O_R   0.059863 0.034244 0.485460 -0.302362
H37   H     H_    0.316507 0.409227 0.448955 0.204493
H38   H     H_    0.643207 0.585533 0.580284 0.198371
H39   H     H_    0.803365 0.880343 0.453106 0.198563
H40   H     H_    0.142500 0.087724 0.582642 0.200603
H41   H     H_    0.164368 0.773991 0.431438 0.217744
H42   H     H_    0.927303 0.629527 0.553955 0.204421
H43   H     H_    0.668387 0.254731 0.430469 0.223121
H44   H     H_    0.426045 0.130342 0.553511 0.204626
N5    N     N_R   0.154127 0.821366 0.562709 0.124861
O61   O     O_R   0.118037 0.882273 0.609344 -0.304362
O62   O     O_R   0.218311 0.851939 0.546993 -0.402923
N6    N     N_R   0.925785 0.654794 0.415851 0.077627
O63   O     O_R   0.954868 0.621361 0.356382 -0.317537
O64   O     O_R   0.935971 0.764082 0.439384 -0.282452
N7    N     N_R   0.656870 0.318243 0.560044 0.125390
O65   O     O_R   0.622346 0.381654 0.606722 -0.307728
O66   O     O_R   0.721319 0.345522 0.543411 -0.407806
N8    N     N_R   0.423318 0.157179 0.415180 0.074983
O67   O     O_R   0.449789 0.125133 0.354172 -0.317009
O68   O     O_R   0.435734 0.265116 0.439784 -0.293416
N9    N     N_R   0.425067 0.960816 0.078444 0.102253
O69   O     O_R   0.411763 0.074552 0.068175 -0.280579
O70   O     O_R   0.390471 0.902759 0.126857 -0.322410
N10   N     N_R   0.519492 0.068584 0.947770 0.077742
O71   O     O_R   0.520604 0.157179 0.993492 -0.347293
O72   O     O_R   0.527921 0.091776 0.880411 -0.342808
N11   N     N_R   0.919994 0.437890 0.079737 0.090798
O73   O     O_R   0.936749 0.528592 0.120709 -0.280364
O74   O     O_R   0.858295 0.388415 0.085638 -0.368232
N12   N     N_R   0.008596 0.567971 0.955186 0.064998
O75   O     O_R   0.006039 0.650440 0.004713 -0.356774
O76   O     O_R   0.018981 0.600253 0.889497 -0.345388
H45   H     H_    0.598377 0.711212 0.919877 0.142968
H46   H     H_    0.517029 0.620037 0.035498 0.141223
H47   H     H_    0.106869 0.227053 0.917875 0.143737
H48   H     H_    0.029780 0.114537 0.031546 0.142139
H49   H     H_    0.145799 0.674871 0.930890 0.204555
H50   H     H_    0.852018 0.678123 0.066597 0.201961
H51   H     H_    0.645900 0.164571 0.930750 0.216328
H52   H     H_    0.314803 0.280707 0.048142 0.161662
H53   H     H_    0.830523 0.875122 0.064656 0.154866
H54   H     H_    0.222986 0.860797 0.961877 0.158441
H55   H     H_    0.394512 0.427635 0.066479 0.166845
H56   H     H_    0.688278 0.361833 0.939781 0.177294
H57   H     H_    0.392161 0.595489 0.064883 0.163364
H58   H     H_    0.602048 0.444904 0.931121 0.158572
H59   H     H_    0.907882 0.979011 0.071853 0.159444
H60   H     H_    0.126491 0.891407 0.943528 0.163693

loop_
_geom_bond_atom_site_label_1
_geom_bond_atom_site_label_2
_geom_bond_distance
_ccdc_geom_bond_type
O4    C12   1.299610 A    
C77   C78   1.373584 A    
C100  C120  1.375042 A    
O39   C19   1.286980 A    
C74   C81   1.389604 A    
C49   C65   1.492254 S    
Cr7   O51   2.000215 S    
C95   C111  1.485644 S    
C93   C109  1.477305 S    
C74   C78   1.397003 A    
O25   C21   1.252828 A    
C31   H3    1.101093 S    
N8    O68   1.301475 A    
O21   C9    1.276773 A    
N6    O63   1.300293 A    
C102  C118  1.433217 A    
C1    O9    1.272194 A    
O44   Cr12  2.064753 S    
C11   C71   1.454820 S    
C3    O11   1.266547 A    
C7    C35   1.461801 S    
C4    O12   1.267979 A    
C9    C69   1.461351 S    
C23   C119  1.467870 S    
C96   C112  1.499743 S    
C54   C58   1.375766 A    
O2    C10   1.268386 A    
C101  N1    1.438751 S    
O17   Cr9   2.082865 S    
C46   C62   1.484645 S    
C62   C66   1.516116 S    
C68   H16   1.112472 S    
C85   H17   1.112633 S    
C66   H10   1.110024 S    
O16   Cr8   1.961063 S    
C29   C33   1.544110 S    
C87   H19   1.111879 S    
O13   C5    1.268391 A    
O28   Cr4   2.089543 S    
O12   Cr8   2.081250 S    
C102  C106  1.408560 A    
O15   C7    1.272381 A    
C18   C73   1.445754 S    
O46   Cr10  1.961588 S    
N3    O57   1.301314 A    
O48   C24   1.255449 A    
C2    C43   1.457409 S    
C59   H7    1.081032 S    
N4    O60   1.299956 A    
C60   H8    1.081654 S    
C94   C98   1.358713 A    
C61   C65   1.524483 S    
C32   C36   1.542774 S    
C65   H9    1.101281 S    
C26   N10   1.460327 S    
O22   Cr10  1.945097 S    
C19   O43   1.260695 A    
C97   C117  1.409618 A    
Cr12  O52   2.000496 S    
N11   O74   1.300634 A    
C82   H30   1.058464 S    
O7    Cr3   1.962408 S    
C63   H53   1.102514 S    
C17   C74   1.446334 S    
O25   Cr1   2.082870 S    
C20   O44   1.277259 A    
C20   C75   1.443560 S    
C51   C71   1.400270 A    
Cr8   O52   1.990302 S    
O46   C22   1.258779 A    
C10   C70   1.448883 S    
C80   C88   1.484875 S    
C15   C90   1.444841 S    
C31   C40   1.544367 S    
C16   O36   1.270253 A    
C30   C34   1.547864 S    
O27   C23   1.255204 A    
C35   C39   1.534965 S    
N5    O62   1.302439 A    
C50   C70   1.397634 A    
O31   C15   1.295461 A    
C96   C100  1.356891 A    
C22   C118  1.437636 S    
O47   Cr11  1.962114 S    
C97   C113  1.523554 S    
O5    C1    1.284214 A    
O24   C12   1.303338 A    
C111  H43   1.110534 S    
N9    O69   1.298611 A    
C67   H15   1.109661 S    
C37   H45   1.106441 S    
C55   C71   1.397652 A    
O8    Cr4   1.970046 S    
N5    O61   1.300402 A    
C53   C69   1.404405 A    
C40   H48   1.109264 S    
O11   Cr7   2.069591 S    
C57   H5    1.082849 S    
C100  C116  1.486044 S    
N10   O72   1.300038 A    
C39   C40   1.551000 S    
C52   C72   1.397048 A    
O27   Cr3   2.082870 S    
C105  H37   1.081871 S    
C42   C46   1.398799 A    
C50   C66   1.491965 S    
C64   C68   1.516176 S    
C1    C44   1.462513 S    
Cr5   O49   2.000215 S    
C3    C42   1.452467 S    
C31   C35   1.545699 S    
C111  C115  1.505953 S    
C64   H60   1.111344 S    
C109  H21   1.106857 S    
O22   C10   1.277465 A    
C75   C79   1.380320 A    
C76   C80   1.398343 A    
C2    O10   1.262925 A    
C77   C85   1.488180 S    
C27   C28   1.522276 S    
C104  C120  1.436712 A    
C48   C52   1.388477 A    
C112  H24   1.109060 S    
C53   C57   1.387204 A    
N1    O53   1.301505 A    
C29   C38   1.547977 S    
C103  N3    1.436824 S    
C55   C59   1.382116 A    
C48   C64   1.485085 S    
O3    C11   1.270488 A    
O8    C4    1.281863 A    
C110  H42   1.111443 S    
Cr1   O49   1.982748 S    
C68   H12   1.111296 S    
C42   C58   1.405298 A    
C45   C49   1.387461 A    
Cr3   O51   1.982748 S    
N3    O58   1.300055 A    
C86   H18   1.100463 S    
C47   C51   1.387094 A    
C62   H56   1.103573 S    
C53   H49   1.080828 S    
C44   C48   1.398865 A    
O26   Cr2   2.089543 S    
C55   H51   1.078531 S    
C102  N2    1.445979 S    
C56   H52   1.073066 S    
O29   C13   1.295289 A    
O28   C24   1.284155 A    
O14   C6    1.304781 A    
C8    O20   1.296241 A    
C19   C76   1.442359 S    
C101  C105  1.417863 A    
N12   O75   1.300131 A    
C67   H11   1.111773 S    
O40   Cr8   1.958518 S    
C56   C60   1.393708 A    
C104  C108  1.409272 A    
O41   Cr9   2.071005 S    
C43   C59   1.406909 A    
C110  C114  1.511122 S    
C93   C97   1.353428 A    
C32   H4    1.101121 S    
O33   Cr5   2.080744 S    
O5    Cr1   1.962408 S    
C114  H26   1.112365 S    
O35   Cr7   2.080744 S    
C27   N11   1.456630 S    
C85   H35   1.111644 S    
O29   Cr1   1.963710 S    
O32   C16   1.261418 A    
C92   C96   1.398297 A    
C14   C91   1.449410 S    
C87   H33   1.111792 S    
Cr9   O49   1.990576 S    
C18   O42   1.276325 A    
Cr11  O51   1.990576 S    
O26   C22   1.282854 A    
C30   C37   1.557809 S    
C29   H1    1.108362 S    
O20   Cr12  2.082414 S    
N2    O55   1.300840 A    
C81   C82   1.399429 A    
C84   H32   1.060609 S    
C94   C110  1.500493 S    
C113  N5    1.440194 S    
O38   C18   1.279585 A    
C30   H2    1.106675 S    
C107  H39   1.080830 S    
C103  C119  1.418046 A    
O30   C14   1.296535 A    
C101  C117  1.413436 A    
C5    O17   1.277119 A    
C116  N8    1.464713 S    
C83   H31   1.079548 S    
C76   C83   1.389231 A    
C108  H40   1.079348 S    
C90   C94   1.399933 A    
C63   H59   1.111613 S    
C24   C120  1.436933 S    
O42   Cr10  2.064753 S    
O18   Cr10  2.082414 S    
O31   Cr3   1.963710 S    
C104  N4    1.446779 S    
O34   Cr6   2.080223 S    
C26   C30   1.547689 S    
N7    O66   1.302182 A    
O24   Cr12  1.945097 S    
C38   H46   1.107687 S    
O30   Cr2   1.954157 S    
O48   Cr12  1.961588 S    
C54   C70   1.401024 A    
C87   C88   1.511668 S    
O37   C17   1.287878 A    
C15   O35   1.253490 A    
N8    O67   1.300684 A    
Cr10  O50   2.000496 S    
C58   H6    1.082920 S    
C51   C67   1.490581 S    
O40   C20   1.277667 A    
O43   Cr11  2.071005 S    
C52   C68   1.492274 S    
O37   Cr5   1.948451 S    
O21   Cr9   1.953052 S    
O39   Cr7   1.948451 S    
O45   Cr9   1.962114 S    
C79   C80   1.373709 A    
C13   O33   1.253330 A    
O13   Cr5   1.960851 S    
O15   Cr7   1.960851 S    
C90   C106  1.391722 A    
C32   C39   1.558264 S    
C91   C95   1.373949 A    
O23   C11   1.272176 A    
C61   H55   1.109759 S    
C86   H36   1.111896 S    
C36   C40   1.543050 S    
C78   C86   1.484254 S    
C98   C118  1.377523 A    
C56   C72   1.399028 A    
O6    C2    1.283325 A    
C37   C38   1.549390 S    
C73   C82   1.401913 A    
O1    Cr1   2.084252 S    
O19   Cr11  2.082865 S    
O45   C21   1.291370 A    
O47   C23   1.293704 A    
C73   C77   1.378556 A    
N4    O59   1.300356 A    
C44   C60   1.405130 A    
C54   H50   1.080297 S    
C88   H20   1.100196 S    
C111  H23   1.105051 S    
C6    O18   1.300411 A    
C25   C26   1.525092 S    
O36   Cr8   2.080223 S    
O38   Cr6   1.958518 S    
C21   C117  1.455829 S    
C85   C86   1.509241 S    
C25   C34   1.526748 S    
C83   C84   1.397745 A    
C98   C114  1.486977 S    
C28   C32   1.544976 S    
C27   C36   1.521746 S    
C112  C116  1.510951 S    
O1    C9    1.268668 A    
C47   C63   1.484918 S    
O7    C3    1.284658 A    
C116  H28   1.113776 S    
C45   C61   1.492872 S    
C63   C67   1.521357 S    
C91   C107  1.413720 A    
C92   C108  1.391178 A    
C66   H14   1.110815 S    
O23   Cr11  1.953052 S    
O32   Cr4   1.954157 S    
C17   O41   1.261924 A    
C28   C35   1.531645 S    
O16   C8    1.310691 A    
N6    O64   1.301524 A    
C61   H57   1.109223 S    
C106  H38   1.078995 S    
O6    Cr2   1.970046 S    
C7    O19   1.274617 A    
Cr4   O52   1.982952 S    
C103  C107  1.420315 A    
O2    Cr2   2.073013 S    
C41   C45   1.398038 A    
C5    C33   1.459392 S    
Cr6   O50   1.990302 S    
C25   N9    1.459201 S    
C25   C29   1.527565 S    
C79   C87   1.490912 S    
C4    C41   1.461497 S    
C95   C99   1.360447 A    
C33   C37   1.533013 S    
C110  H22   1.106974 S    
O9    Cr5   2.069591 S    
C65   H13   1.110379 S    
C13   C92   1.443554 S    
N9    O70   1.300485 A    
N12   O76   1.299950 A    
C114  N6    1.464280 S    
C27   C31   1.530161 S    
C99   C115  1.520045 S    
C8    C36   1.464648 S    
C62   H58   1.111582 S    
C26   C33   1.531842 S    
C89   C93   1.371728 A    
C64   H54   1.110623 S    
N10   O71   1.299721 A    
Cr2   O50   1.982952 S    
C12   C72   1.460346 S    
C109  H41   1.108666 S    
C46   C50   1.388618 A    
C41   C57   1.407614 A    
O14   Cr6   1.961063 S    
C39   H47   1.106950 S    
N11   O73   1.299912 A    
O3    Cr3   2.084252 S    
C16   C89   1.440705 S    
C112  H44   1.111078 S    
C81   H29   1.078616 S    
C49   C69   1.403294 A    
N2    O56   1.299982 A    
N7    O65   1.300032 A    
C115  N7    1.439175 S    
C75   C84   1.405636 A    
C14   O34   1.303867 A    
C6    C34   1.465124 S    
C99   C119  1.411900 A    
N1    O54   1.299737 A    
C109  C113  1.510784 S    
C89   C105  1.417280 A    
C34   C38   1.538790 S    
C115  H27   1.112488 S    
O10   Cr6   2.081250 S    
O4    Cr4   2.073013 S    
C113  H25   1.112505 S    
C43   C47   1.396869 A    
C88   H34   1.110626 S    
C28   N12   1.458445 S    
