data_mof_unit_4862.cif
_audit_creation_date              2012-12-10T20:36:33-0500
_audit_creation_method            fapswitch 2.2
_symmetry_space_group_name_H-M    P1
_symmetry_Int_Tables_number       1
_space_group_crystal_system       triclinic
_cell_length_a                    10.498343
_cell_length_b                    10.653844
_cell_length_c                    9.874882
_cell_angle_alpha                 89.95608
_cell_angle_beta                  89.376349
_cell_angle_gamma                 90.137971
_cell_volume                      1104.41394717

loop_
_atom_site_label
_atom_site_type_symbol
_atom_type_description
_atom_site_fract_x
_atom_site_fract_y
_atom_site_fract_z
_atom_type_partial_charge
C1    C     C_R   0.508621 0.260411 0.500033 0.861167
C2    C     C_3   0.961620 0.498551 0.369949 -0.139437
C3    C     C_3   0.043054 0.395853 0.436987 -0.187210
C4    C     C_3   0.122188 0.499731 0.501776 0.024720
C5    C     C_R   0.492811 0.064140 0.618752 0.158612
C6    C     C_R   0.531379 0.128896 0.502832 -0.215813
C7    C     C_R   0.591428 0.063550 0.394688 -0.033758
C8    C     C_R   0.582373 0.932727 0.394380 -0.201977
C9    C     C_R   0.520449 0.871449 0.502099 -0.159700
C10   C     C_R   0.488277 0.936763 0.618748 0.140780
C11   C     C_3   0.368727 0.932708 0.702142 -0.481156
C12   C     C_R   0.257280 0.499836 0.500691 0.866946
C13   C     C_3   0.373804 0.074982 0.702619 -0.472814
C14   C     C_R   0.431936 0.411818 0.072134 0.239940
C15   C     C_R   0.576099 0.579576 0.071001 -0.128495
C16   C     C_R   0.576092 0.579601 0.927069 -0.122430
C17   C     C_R   0.431708 0.412027 0.929616 0.230676
C18   C     C_3   0.290964 0.393817 0.926340 -0.527778
C19   C     C_3   0.291440 0.392351 0.079973 -0.507745
C20   C     C_R   0.502576 0.739949 0.500027 0.886495
C21   C     C_R   0.742671 0.499876 0.499189 0.843155
C22   C     C_3   0.038031 0.500787 0.629053 -0.133710
C23   C     C_3   0.956287 0.396891 0.564240 -0.179462
C24   C     C_3   0.877652 0.499622 0.497456 0.036055
C25   C     C_3   0.956768 0.603483 0.562002 -0.176626
C26   C     C_3   0.043505 0.602420 0.434773 -0.182428
H1    H     H_    0.915964 0.313259 0.616578 0.136303
H2    H     H_    0.384373 0.890582 0.803631 0.214868
H3    H     H_    0.294091 0.119429 0.647010 0.193504
H4    H     H_    0.392768 0.114874 0.804424 0.210487
H5    H     H_    0.635617 0.645601 0.124540 0.151510
H6    H     H_    0.635608 0.645646 0.872079 0.152455
H7    H     H_    0.241149 0.476719 0.884300 0.213379
H8    H     H_    0.263665 0.302260 0.881235 0.201208
H9    H     H_    0.240238 0.473373 0.125814 0.222503
H10   H     H_    0.266085 0.299360 0.123839 0.203695
H11   H     H_    0.071456 0.502094 0.735061 0.135711
H12   H     H_    0.916819 0.687944 0.612578 0.133130
H13   H     H_    0.083867 0.686022 0.382421 0.135912
H14   H     H_    0.926381 0.497589 0.264343 0.145391
H15   H     H_    0.083110 0.311477 0.386334 0.135124
H16   H     H_    0.620997 0.879132 0.310224 0.196735
H17   H     H_    0.286324 0.893942 0.645799 0.194569
N1    N     N_R   0.499140 0.499140 0.142800 -0.113581
N2    N     N_R   0.499140 0.499180 0.857150 -0.111124
O1    O     O_R   0.500020 0.316790 0.614690 -0.603814
O2    O     O_R   0.500000 0.316760 0.385350 -0.631038
O3    O     O_R   0.313960 0.499990 0.614650 -0.626326
O4    O     O_R   0.313940 0.499950 0.385310 -0.619375
O5    O     O_R   0.500000 0.683240 0.614650 -0.616136
O6    O     O_R   0.499980 0.683210 0.385310 -0.620746
O7    O     O_R   0.686060 0.500050 0.614690 -0.619799
O8    O     O_R   0.686040 0.500010 0.385350 -0.637886
Zn1   Zn    Zn3+2 0.500010 0.500020 0.653130 0.944340
Zn2   Zn    Zn3+2 0.499990 0.499980 0.346870 0.937809
C27   C     C_2   0.662844 0.128072 0.283933 0.406857
H18   H     H_    0.694481 0.224371 0.295567 0.085797
O9    O     O_2   0.689782 0.073287 0.178906 -0.589472

loop_
_geom_bond_atom_site_label_1
_geom_bond_atom_site_label_2
_ccdc_geom_bond_type
C16   N2    A    
O3    Zn1   S    
C4    C26   S    
C23   C24   S    
C15   H5    S    
C6    C7    A    
C23   H1    S    
C25   H12   S    
C16   H6    S    
C4    C22   S    
C9    C10   A    
C9    C20   S    
O6    Zn2   S    
C14   C19   S    
C14   C17   A    
C12   O3    A    
C5    C13   S    
O1    Zn1   S    
C12   O4    A    
O2    Zn2   S    
C7    C8    A    
C2    C26   S    
C19   H9    S    
C24   C25   S    
C21   O8    A    
C11   C13   S    
N1    Zn2   S    
O5    Zn1   S    
C11   H2    S    
C18   H8    S    
C15   C16   A    
C5    C6    A    
C7    C27   S    
C13   H3    S    
O7    Zn1   S    
N2    Zn1   S    
C17   C18   S    
C20   O6    A    
C2    C3    S    
C19   H10   S    
O8    Zn2   S    
C2    C24   S    
C15   N1    A    
C26   H13   S    
C18   H7    S    
C1    O1    A    
C4    C12   S    
C10   C11   S    
C8    H16   S    
C3    C4    S    
C2    H14   S    
C13   H4    S    
C5    C10   A    
C27   H18   S    
C14   N1    A    
C18   C19   S    
C21   C24   S    
C1    C6    S    
C22   C23   S    
C1    O2    A    
C20   O5    A    
C25   C26   S    
O4    Zn2   S    
C22   H11   S    
C3    C23   S    
C11   H17   S    
C21   O7    A    
C3    H15   S    
C17   N2    A    
C27   O9    D    
C8    C9    A    
C22   C25   S    
