data_mof_unit_516.cif
_audit_creation_date              2012-12-10T20:27:16-0500
_audit_creation_method            fapswitch 2.2
_symmetry_space_group_name_H-M    P1
_symmetry_Int_Tables_number       1
_space_group_crystal_system       triclinic
_cell_length_a                    10.893121
_cell_length_b                    10.853225
_cell_length_c                    9.937145
_cell_angle_alpha                 91.777566
_cell_angle_beta                  102.406016
_cell_angle_gamma                 89.553871
_cell_volume                      1146.83850643

loop_
_atom_site_label
_atom_site_type_symbol
_atom_type_description
_atom_site_fract_x
_atom_site_fract_y
_atom_site_fract_z
_atom_type_partial_charge
Br1   Br    Br    0.703228 0.671330 0.217915 -0.387214
Br2   Br    Br    0.710734 0.662562 0.891359 -0.323495
Br3   Br    Br    0.965287 0.555497 0.746173 -0.426060
Br4   Br    Br    0.129098 0.270747 0.356898 -0.417651
Br5   Br    Br    0.245879 0.899831 0.643836 -0.394008
Br6   Br    Br    0.286052 0.189328 0.692891 -0.403740
C1    C     C_R   0.495976 0.260172 0.496971 0.905188
C2    C     C_R   0.587269 0.565004 0.094519 0.258361
C3    C     C_R   0.588676 0.563161 0.951393 0.260880
C4    C     C_R   0.260559 0.493952 0.443172 0.866519
C5    C     C_R   0.410879 0.436531 0.906536 0.134454
C6    C     C_3   0.273924 0.468200 0.881151 -0.250875
C7    C     C_3   0.276787 0.445117 0.030850 -0.438671
C8    C     C_R   0.491031 0.739393 0.499266 0.923972
C9    C     C_R   0.739331 0.490364 0.554979 0.900731
C10   C     C_2   0.135734 0.442594 0.413486 0.091132
C11   C     C_2   0.042873 0.504042 0.454839 -0.107537
C12   C     C_R   0.485806 0.127606 0.491164 -0.088917
C13   C     C_2   0.874664 0.480646 0.578433 0.057595
C14   C     C_2   0.928714 0.442665 0.473254 -0.049447
C15   C     C_R   0.506078 0.067442 0.616284 -0.035406
C16   C     C_1   0.861505 0.364026 0.360008 0.320830
C17   C     C_1   0.528274 0.139769 0.854840 0.202042
C18   C     C_1   0.252456 0.599578 0.854908 0.337942
C19   C     C_1   0.042366 0.637651 0.458601 0.258100
C20   C     C_1   0.410892 0.117523 0.233615 0.292042
C21   C     C_1   0.373510 0.863436 0.244608 0.278768
C22   C     C_1   0.467876 0.888495 0.854780 0.251648
C23   C     C_R   0.446934 0.059175 0.365669 -0.047715
C24   C     C_R   0.435440 0.931157 0.368984 -0.043613
C25   C     C_R   0.473294 0.871346 0.495773 -0.105323
C26   C     C_R   0.499073 0.940135 0.619433 -0.012736
C27   C     C_3   0.417899 0.950594 0.724981 0.130295
C28   C     C_3   0.439228 0.089812 0.731878 0.168410
C29   C     C_R   0.415099 0.430317 0.049700 0.137256
H1    H     H_    0.210574 0.405885 0.807854 0.241934
H2    H     H_    0.248858 0.525398 0.089997 0.230066
H3    H     H_    0.230054 0.357583 0.046077 0.242650
N1    N     N_R   0.499160 0.499140 0.142600 -0.157530
N2    N     N_R   0.499160 0.499180 0.856960 -0.169644
N3    N     N_1   0.807694 0.301851 0.270122 -0.129787
N4    N     N_1   0.598275 0.178933 0.950853 -0.155562
N5    N     N_1   0.234498 0.703445 0.839152 -0.090611
N6    N     N_1   0.038480 0.744077 0.458446 -0.055743
N7    N     N_1   0.381569 0.162036 0.127258 -0.170943
N8    N     N_1   0.323203 0.809429 0.146231 -0.162271
N9    N     N_1   0.505649 0.842558 0.958952 -0.147437
O1    O     O_R   0.500020 0.316790 0.614700 -0.596675
O2    O     O_R   0.500000 0.316760 0.385350 -0.623883
O3    O     O_R   0.317820 0.500020 0.571850 -0.602253
O4    O     O_R   0.317800 0.499980 0.342510 -0.622505
O5    O     O_R   0.500000 0.683240 0.614650 -0.588984
O6    O     O_R   0.499980 0.683210 0.385300 -0.592859
O7    O     O_R   0.682200 0.500020 0.657490 -0.543628
O8    O     O_R   0.682180 0.499980 0.428150 -0.610514
Zn1   Zn    Zn3+2 0.500010 0.500020 0.653140 1.046844
Zn2   Zn    Zn3+2 0.499990 0.499980 0.346860 1.015579

loop_
_geom_bond_atom_site_label_1
_geom_bond_atom_site_label_2
_ccdc_geom_bond_type
Br4   C10   S    
C29   N1    A    
C5    C6    S    
C22   N9    T    
Br3   C13   S    
C23   C24   A    
O4    Zn2   S    
C2    N1    A    
C6    H1    S    
C12   C15   A    
O3    Zn1   S    
C6    C18   S    
C7    H2    S    
C25   C26   A    
C8    C25   S    
C17   C28   S    
C11   C19   S    
C26   C27   S    
C1    C12   S    
C13   C14   D    
C5    C29   A    
C27   C28   S    
C12   C23   A    
C4    C10   S    
C1    O1    A    
C21   C24   S    
C9    C13   S    
C1    O2    A    
C7    H3    S    
C5    N2    A    
C17   N4    T    
C4    O4    A    
C21   N8    T    
C14   C16   S    
C22   C27   S    
C7    C29   S    
O8    Zn2   S    
C24   C25   A    
C15   C26   A    
O7    Zn1   S    
C16   N3    T    
C4    O3    A    
C9    O7    A    
O5    Zn1   S    
C8    O6    A    
O2    Zn2   S    
C6    C7    S    
C19   N6    T    
C20   C23   S    
C9    O8    A    
O1    Zn1   S    
C18   N5    T    
O6    Zn2   S    
C10   C11   D    
C15   C28   S    
C20   N7    T    
Br2   C3    S    
C11   C14   S    
C3    N2    A    
C8    O5    A    
Br6   C28   S    
Br1   C2    S    
Br5   C27   S    
C2    C3    A    
N2    Zn1   S    
N1    Zn2   S    
