data_mof_unit_3784.cif
_audit_creation_date              2012-12-11T17:19:12-0500
_audit_creation_method            fapswitch 2.2
_symmetry_space_group_name_H-M    P1
_symmetry_Int_Tables_number       1
_space_group_crystal_system       triclinic
_cell_length_a                    14.302183
_cell_length_b                    7.279174
_cell_length_c                    13.882278
_cell_angle_alpha                 89.99186
_cell_angle_beta                  99.732179
_cell_angle_gamma                 90.004496
_cell_volume                      1424.45812026

loop_
_atom_site_label
_atom_site_type_symbol
_atom_type_description
_atom_site_fract_x
_atom_site_fract_y
_atom_site_fract_z
_atom_type_partial_charge
O1    O     O_R   0.648180 0.355050 0.151550 -0.532641
O2    O     O_R   0.351820 0.644950 0.848450 -0.531456
O3    O     O_R   0.851820 0.855050 0.348450 -0.530118
O4    O     O_R   0.148180 0.144950 0.651550 -0.531087
O5    O     O_R   0.835240 0.681980 0.154280 -0.524917
O6    O     O_R   0.164760 0.318020 0.845720 -0.539873
O7    O     O_R   0.664760 0.181980 0.345720 -0.537730
O8    O     O_R   0.335240 0.818020 0.654280 -0.536491
H1    H     H_    0.694706 0.034365 0.813960 0.188306
H2    H     H_    0.305455 0.965466 0.185997 0.167480
H3    H     H_    0.805257 0.534357 0.686068 0.187544
H4    H     H_    0.194791 0.466426 0.313965 0.192142
C1    C     C_R   0.866685 0.516197 0.136653 0.672341
C2    C     C_R   0.133326 0.483806 0.863358 0.668930
C3    C     C_R   0.633350 0.016164 0.363380 0.662525
C4    C     C_R   0.366648 0.983842 0.636609 0.669117
O9    O     O_R   0.647870 0.684600 0.139630 -0.536968
O10   O     O_R   0.352130 0.315400 0.860370 -0.535597
O11   O     O_R   0.852130 0.184600 0.360370 -0.536235
O12   O     O_R   0.147870 0.815400 0.639630 -0.535260
O13   O     O_R   0.663110 0.857440 0.333700 -0.534764
O14   O     O_R   0.336890 0.142560 0.666300 -0.532295
O15   O     O_R   0.836890 0.357440 0.166300 -0.534666
O16   O     O_R   0.163110 0.642560 0.833700 -0.531810
C5    C     C_R   0.615021 0.515842 0.113288 0.734888
C6    C     C_R   0.384977 0.484158 0.886713 0.740243
C7    C     C_R   0.884960 0.015833 0.386732 0.750934
C8    C     C_R   0.115014 0.984159 0.613298 0.740690
H5    H     H_    0.524379 0.016095 0.756614 0.150752
H6    H     H_    0.475704 0.983205 0.243399 0.147320
H7    H     H_    0.975586 0.516095 0.743383 0.150495
H8    H     H_    0.024461 0.484595 0.256648 0.149450
O17   O     O_3   0.755220 0.522230 0.313690 -0.381844
O18   O     O_3   0.244780 0.477770 0.686310 -0.378033
O19   O     O_3   0.744780 0.022230 0.186310 -0.376259
O20   O     O_3   0.255220 0.977770 0.813690 -0.380377
V1    V     V_3+5 0.749030 0.796100 0.238190 1.557509
V2    V     V_3+5 0.250970 0.203900 0.761810 1.521999
V3    V     V_3+5 0.750970 0.296100 0.261810 1.535965
V4    V     V_3+5 0.249030 0.703900 0.738190 1.528842
C9    C     C_1   0.965954 0.005127 0.466836 0.008950
C10   C     C_1   0.033987 0.994841 0.533231 0.007786
C11   C     C_1   0.534012 0.505150 0.033202 0.011130
C12   C     C_1   0.465986 0.494849 0.966800 0.008844
C13   C     C_R   0.570828 0.018017 0.702637 -0.064957
C14   C     C_R   0.429231 0.981738 0.297357 -0.044229
C15   C     C_R   0.929149 0.518007 0.797372 -0.064927
C16   C     C_R   0.070894 0.482547 0.202657 -0.041949
C17   C     C_R   0.668588 0.028707 0.736156 -0.036535
C18   C     C_R   0.331477 0.971457 0.263800 -0.054654
C19   C     C_R   0.831387 0.528682 0.763869 -0.036779
C20   C     C_R   0.168655 0.471881 0.236161 -0.065254
C21   C     C_R   0.731806 0.031438 0.670054 0.479143
C22   C     C_R   0.268201 0.969783 0.329856 0.441648
C23   C     C_R   0.768183 0.531361 0.829985 0.480428
C24   C     C_R   0.231845 0.468790 0.170034 0.466136
C25   C     C_R   0.697114 0.024369 0.570283 -0.188524
C26   C     C_R   0.302875 0.976702 0.429647 -0.170959
C27   C     C_R   0.802893 0.524288 0.929755 -0.187550
C28   C     C_R   0.197129 0.475608 0.070261 -0.221239
C29   C     C_R   0.598759 0.013782 0.534340 0.017288
C30   C     C_R   0.401245 0.986560 0.465632 0.016710
C31   C     C_R   0.901254 0.513751 0.965683 0.014155
C32   C     C_R   0.098772 0.486281 0.034336 0.000915
C33   C     C_R   0.534154 0.008886 0.601752 0.022807
C34   C     C_R   0.465868 0.991124 0.398237 0.019722
C35   C     C_R   0.965840 0.508852 0.898253 0.023713
C36   C     C_R   0.034194 0.491400 0.101771 0.045583
C37   C     C_R   0.564838 0.006257 0.432690 -0.112739
C38   C     C_R   0.435171 0.993790 0.567298 -0.114276
C39   C     C_R   0.935204 0.506386 0.067337 -0.089783
C40   C     C_R   0.064820 0.493645 0.932681 -0.109103
H9    H     H_    0.748414 0.026213 0.521337 0.126672
H10   H     H_    0.251555 0.975419 0.478577 0.125102
H11   H     H_    0.751603 0.526127 0.978710 0.126079
H12   H     H_    0.248410 0.473477 0.021299 0.136164
S1    S     S_3+6 0.144785 0.959357 0.289898 -0.066855
O21   O     O_2   0.105256 0.801455 0.339782 -0.361016
O22   O     O_2   0.099880 0.132287 0.319184 -0.388594
O23   O     O_3   0.118378 0.932143 0.167982 -0.502829
H13   H     H_    0.127567 0.055087 0.140415 0.332091
S2    S     S_3+6 0.855146 0.043444 0.710005 -0.084446
O24   O     O_2   0.899901 0.869207 0.682309 -0.383906
O25   O     O_2   0.894308 0.200373 0.658992 -0.386059
O26   O     O_3   0.880422 0.072898 0.831804 -0.520475
H14   H     H_    0.950554 0.079476 0.847012 0.360330
S3    S     S_3+6 0.355177 0.456564 0.209964 -0.086584
O27   O     O_2   0.394255 0.299582 0.158947 -0.388666
O28   O     O_2   0.400009 0.630741 0.182261 -0.380574
O29   O     O_3   0.380451 0.427048 0.331763 -0.521118
H15   H     H_    0.450582 0.420428 0.346968 0.360119
S4    S     S_3+6 0.644841 0.543348 0.790049 -0.084462
O30   O     O_2   0.600086 0.369120 0.817798 -0.383874
O31   O     O_2   0.605693 0.700299 0.841028 -0.385377
O32   O     O_3   0.619550 0.572753 0.668243 -0.522582
H16   H     H_    0.549417 0.579279 0.653040 0.360313

loop_
_geom_bond_atom_site_label_1
_geom_bond_atom_site_label_2
_ccdc_geom_bond_type
C26   C30   A    
S3    O27   D    
O5    V1    S    
C9    C10   T    
O32   H16   S    
O10   C6    A    
C5    C11   S    
C6    C12   S    
S1    O21   D    
C30   C38   A    
C18   C22   A    
O18   V4    S    
C32   C36   A    
O19   V1    S    
C14   C34   A    
C23   C27   A    
O12   V4    S    
C17   C21   A    
C34   C37   A    
C25   H9    S    
C33   C38   A    
O14   V2    S    
C1    O15   A    
C35   C40   A    
C2    O16   A    
H4    C20   S    
O17   V3    S    
O6    V2    S    
O11   C7    A    
O5    C1    A    
C22   S1    S    
O7    C3    A    
O8    C4    A    
H7    C15   S    
O1    C5    A    
H8    C16   S    
C15   C35   A    
O4    C8    A    
O3    C7    A    
S1    O22   D    
C3    C37   S    
C31   C35   A    
C30   C34   A    
H1    C17   S    
C21   C25   A    
C24   S3    S    
C15   C19   A    
C1    C39   S    
O26   H14   S    
C28   H12   S    
S4    O32   S    
C24   C28   A    
H5    C13   S    
C21   S2    S    
C11   C12   T    
C23   S4    S    
C29   C33   A    
O6    C2    A    
C7    C9    S    
C13   C17   A    
S4    O31   D    
C4    C38   S    
O2    C6    A    
O9    V1    S    
C16   C36   A    
O11   V3    S    
O4    V2    S    
S2    O25   D    
S3    O28   D    
C13   C33   A    
H2    C18   S    
C27   H11   S    
C26   H10   S    
C22   C26   A    
S1    O23   S    
C29   C37   A    
C4    O14   A    
C2    C40   S    
H6    C14   S    
C31   C39   A    
O23   H13   S    
C25   C29   A    
S2    O26   S    
O12   C8    A    
C14   C18   A    
C27   C31   A    
C28   C32   A    
O9    C5    A    
O20   V2    S    
O10   V2    S    
O29   H15   S    
C3    O13   A    
C36   C39   A    
O15   V3    S    
C8    C10   S    
S4    O30   D    
O16   V4    S    
C19   C23   A    
C32   C40   A    
H3    C19   S    
O1    V3    S    
O2    V4    S    
C16   C20   A    
O13   V1    S    
O3    V1    S    
S2    O24   D    
S3    O29   S    
O7    V3    S    
O8    V4    S    
C20   C24   A    
