data_mof_unit_1191.cif
_audit_creation_date              2012-12-10T17:18:54-0500
_audit_creation_method            fapswitch 2.2
_symmetry_space_group_name_H-M    P1
_symmetry_Int_Tables_number       1
_space_group_crystal_system       triclinic
_cell_length_a                    10.319095
_cell_length_b                    10.673463
_cell_length_c                    13.269585
_cell_angle_alpha                 93.248423
_cell_angle_beta                  99.237229
_cell_angle_gamma                 97.18764
_cell_volume                      1426.82720671

loop_
_atom_site_label
_atom_site_type_symbol
_atom_type_description
_atom_site_fract_x
_atom_site_fract_y
_atom_site_fract_z
_atom_type_partial_charge
C1    C     C_R   0.051676 0.732437 0.488812 0.934969
C2    C     C_2   0.987013 0.061234 0.448409 -0.175487
C3    C     C_2   0.432720 0.524942 0.488654 0.104154
C4    C     C_2   0.568639 0.481971 0.493378 0.117186
C5    C     C_R   0.093157 0.518165 0.687063 0.849419
C6    C     C_R   0.907620 0.483694 0.312702 0.847845
C7    C     C_R   0.147335 0.545914 0.796797 -0.141056
C8    C     C_R   0.862234 0.472877 0.201198 -0.131765
C9    C     C_R   0.194623 0.684767 0.952156 -0.232028
C10   C     C_R   0.862554 0.393039 0.026242 -0.212430
C11   C     C_R   0.109550 0.640943 0.860544 0.113422
C12   C     C_R   0.944650 0.266572 0.502286 0.948158
C13   C     C_R   0.923962 0.408318 0.129089 0.108219
C14   C     C_R   0.260425 0.490884 0.830773 -0.267106
C15   C     C_R   0.747133 0.525369 0.166985 -0.234220
C16   C     C_R   0.353472 0.541798 0.916391 0.106724
C17   C     C_R   0.688024 0.512960 0.064039 0.090972
C18   C     C_R   0.317545 0.641020 0.977541 0.058206
C19   C     C_R   0.741891 0.437794 0.995457 0.055720
C20   C     C_R   0.482785 0.503339 0.940330 -0.109340
C21   C     C_R   0.568263 0.561962 0.030565 -0.120229
C22   C     C_3   0.046819 0.344896 0.157487 -0.419545
C23   C     C_R   0.532514 0.667950 0.084585 0.461276
C24   C     C_3   0.172600 0.437922 0.157392 -0.288913
C25   C     C_3   0.296255 0.372163 0.176564 -0.902986
C26   C     C_3   0.989310 0.707260 0.830592 -0.413625
C27   C     C_3   0.023223 0.819280 0.767525 -0.305581
C28   C     C_3   0.901128 0.881657 0.729709 -0.877855
C29   C     C_3   0.699207 0.833333 0.112161 0.067522
C30   C     C_3   0.806031 0.908047 0.194226 -0.285737
C31   C     C_3   0.892147 0.009110 0.148511 -1.010533
C32   C     C_3   0.414638 0.220187 0.832763 0.074248
C33   C     C_3   0.355612 0.123797 0.742587 -0.386455
C34   C     C_R   0.534988 0.413139 0.878234 0.474501
C35   C     C_3   0.234771 0.163764 0.676987 -0.790963
C36   C     C_3   0.574365 0.354753 0.438168 -0.352186
C37   C     C_3   0.558589 0.246013 0.508343 -0.339154
C38   C     C_3   0.538421 0.117771 0.446859 -0.940990
C39   C     C_3   0.429960 0.666162 0.504828 -0.349652
C40   C     C_3   0.427254 0.707582 0.617412 -0.279736
C41   C     C_3   0.470597 0.849247 0.640942 -1.000278
C42   C     C_R   0.406702 0.701810 0.060500 -0.316199
C43   C     C_R   0.667939 0.395873 0.900523 -0.320672
C44   C     C_2   0.074663 0.864169 0.467848 -0.401383
C45   C     C_2   0.907798 0.130873 0.490725 -0.405630
C46   C     C_2   0.969529 0.926936 0.453500 -0.155953
H1    H     H_    0.381179 0.781005 0.104683 0.161727
H2    H     H_    0.174415 0.909998 0.466208 0.148907
H3    H     H_    0.669704 0.635808 0.580604 0.153524
H4    H     H_    0.328883 0.351589 0.448993 0.161720
H5    H     H_    0.296625 0.301872 0.111612 0.253058
H6    H     H_    0.386211 0.443268 0.183993 0.255441
H7    H     H_    0.298978 0.322976 0.248161 0.253020
H8    H     H_    0.167108 0.478029 0.081764 0.229680
H9    H     H_    0.181064 0.517250 0.216957 0.240113
H10   H     H_    0.048073 0.301948 0.231734 0.213969
H11   H     H_    0.045558 0.263654 0.100765 0.193408
H12   H     H_    0.706601 0.333189 0.848941 0.163000
H13   H     H_    0.825777 0.813124 0.678595 0.263654
H14   H     H_    0.857473 0.916389 0.795504 0.249292
H15   H     H_    0.929773 0.963370 0.685949 0.253943
H16   H     H_    0.098833 0.891043 0.815518 0.206822
H17   H     H_    0.065922 0.786954 0.700623 0.222543
H18   H     H_    0.904208 0.640077 0.789418 0.227750
H19   H     H_    0.955303 0.743713 0.900733 0.183012
H20   H     H_    0.636286 0.900165 0.073638 0.138872
H21   H     H_    0.749004 0.786111 0.054771 0.140374
H22   H     H_    0.758469 0.954454 0.253119 0.228330
H23   H     H_    0.697083 0.566729 0.223294 0.218139
H24   H     H_    0.869873 0.841804 0.232101 0.228137
H25   H     H_    0.941101 0.964942 0.089506 0.261006
H26   H     H_    0.969971 0.059622 0.209984 0.266293
H27   H     H_    0.831059 0.079008 0.113282 0.266199
H28   H     H_    0.337873 0.233110 0.881250 0.130975
H29   H     H_    0.496521 0.178760 0.879144 0.102065
H30   H     H_    0.432329 0.111427 0.694322 0.230367
H31   H     H_    0.325684 0.031302 0.772532 0.174949
H32   H     H_    0.157894 0.180349 0.724135 0.233848
H33   H     H_    0.192456 0.087129 0.616551 0.247440
H34   H     H_    0.275191 0.413205 0.782560 0.232729
H35   H     H_    0.263601 0.251004 0.639637 0.293018
H36   H     H_    0.441080 0.103905 0.394968 0.261004
H37   H     H_    0.618188 0.111469 0.400444 0.269985
H38   H     H_    0.540392 0.041077 0.499720 0.256930
H39   H     H_    0.647451 0.252081 0.568716 0.247710
H40   H     H_    0.472755 0.252020 0.548310 0.224421
H41   H     H_    0.496158 0.338154 0.369232 0.155797
H42   H     H_    0.664455 0.352116 0.405132 0.253559
H43   H     H_    0.469047 0.874858 0.722944 0.255592
H44   H     H_    0.573114 0.875461 0.626236 0.265624
H45   H     H_    0.169150 0.760338 0.000373 0.134709
H46   H     H_    0.401634 0.902676 0.593049 0.271180
H47   H     H_    0.326262 0.686091 0.634978 0.259023
H48   H     H_    0.493704 0.656298 0.669737 0.212766
H49   H     H_    0.518758 0.717639 0.480517 0.166784
H50   H     H_    0.350076 0.697226 0.450659 0.219940
H51   H     H_    0.904488 0.338467 0.971135 0.134839
H52   H     H_    0.074157 0.103671 0.419851 0.186396
H53   H     H_    0.869512 0.881659 0.455376 0.195607
H54   H     H_    0.821775 0.087784 0.520089 0.159398
N1    N     N_2   0.322180 0.446120 0.460900 -0.211428
N2    N     N_2   0.677820 0.553880 0.539100 -0.209765
O1    O     O_R   0.935190 0.693030 0.507870 -0.598195
O2    O     O_3   0.460991 0.337064 0.796486 -0.643007
O3    O     O_R   0.064810 0.306970 0.492130 -0.614590
O4    O     O_R   0.142080 0.658430 0.482770 -0.621712
O5    O     O_R   0.857920 0.341570 0.517230 -0.617631
O6    O     O_R   0.969700 0.527180 0.651960 -0.597231
O7    O     O_R   0.030300 0.472820 0.348040 -0.603568
O8    O     O_R   0.176600 0.492580 0.626860 -0.606463
O9    O     O_R   0.823400 0.507420 0.373140 -0.624777
O10   O     O_3   0.621308 0.743701 0.159518 -0.664870
Zn1   Zn    Zn3+2 0.861850 0.523100 0.516760 0.908878
Zn2   Zn    Zn3+2 0.138150 0.476900 0.483240 0.900918

loop_
_geom_bond_atom_site_label_1
_geom_bond_atom_site_label_2
_ccdc_geom_bond_type
C41   H43   S    
C46   H53   S    
C4    C36   S    
C8    C13   A    
C38   H37   S    
C6    O9    A    
C29   O10   S    
C40   H47   S    
C9    H45   S    
C32   H29   S    
C35   H35   S    
C36   H42   S    
C24   H9    S    
C7    C11   A    
C23   O10   S    
C26   C27   S    
C37   C38   S    
C23   C42   A    
O4    Zn2   S    
C37   H39   S    
C36   C37   S    
O1    Zn1   S    
C25   H7    S    
C18   C42   A    
C32   H28   S    
C12   O3    A    
C31   H27   S    
C5    O8    A    
C24   H8    S    
C26   H18   S    
O5    Zn1   S    
C1    C44   S    
C43   H12   S    
C17   C19   A    
C29   H21   S    
C7    C14   A    
C44   C46   D    
C4    N2    D    
C32   O2    S    
C14   H34   S    
O8    Zn2   S    
C2    C46   S    
C1    O4    A    
C20   C34   A    
C28   H15   S    
C3    N1    D    
C31   H25   S    
C41   H44   S    
C3    C39   S    
C36   H41   S    
C38   H36   S    
N1    Zn2   S    
C22   H11   S    
C30   H24   S    
C19   C43   A    
C28   H14   S    
C2    C45   D    
C15   H23   S    
O3    Zn2   S    
C24   C25   S    
H3    N2    S    
C5    C7    S    
C6    C8    S    
C11   C26   S    
C10   C13   A    
C34   O2    S    
O6    Zn1   S    
C10   H51   S    
C25   H5    S    
C29   C30   S    
C27   H16   S    
C37   H40   S    
C33   H30   S    
C10   C19   A    
C16   C20   A    
O9    Zn1   S    
C9    C11   A    
C39   H49   S    
C27   H17   S    
O7    Zn2   S    
C40   C41   S    
C8    C15   A    
C21   C23   A    
C6    O7    A    
C14   C16   A    
C3    C4    S    
C39   C40   S    
C28   H13   S    
C15   C17   A    
C1    O1    A    
C31   H26   S    
C38   H38   S    
C26   H19   S    
C34   C43   A    
C40   H48   S    
C12   C45   S    
C45   H54   S    
C12   O5    A    
C22   H10   S    
C35   H32   S    
C32   C33   S    
C25   H6    S    
N2    Zn1   S    
C33   H31   S    
C30   C31   S    
C35   H33   S    
C33   C35   S    
C13   C22   S    
C22   C24   S    
C42   H1    S    
C17   C21   A    
C39   H50   S    
C29   H20   S    
C9    C18   A    
C41   H46   S    
C20   C21   A    
C2    H52   S    
H4    N1    S    
C16   C18   A    
C27   C28   S    
C30   H22   S    
C44   H2    S    
C5    O6    A    
