data_mof_unit_3858.cif
_audit_creation_date              2012-12-10T18:21:20-0500
_audit_creation_method            fapswitch 2.2
_symmetry_space_group_name_H-M    P1
_symmetry_Int_Tables_number       1
_space_group_crystal_system       triclinic
_cell_length_a                    14.863171
_cell_length_b                    14.122264
_cell_length_c                    10.6198
_cell_angle_alpha                 89.954866
_cell_angle_beta                  89.970139
_cell_angle_gamma                 90.139751
_cell_volume                      2229.10564701

loop_
_atom_site_label
_atom_site_type_symbol
_atom_type_description
_atom_site_fract_x
_atom_site_fract_y
_atom_site_fract_z
_atom_type_partial_charge
C1    C     C_R   0.327199 0.499896 0.500015 0.878196
C2    C     C_3   0.585141 0.550904 0.927792 -0.416529
C3    C     C_R   0.812847 0.480559 0.388734 -0.251419
C4    C     C_R   0.767799 0.500091 0.500045 0.001948
C5    C     C_R   0.812850 0.518795 0.611614 -0.256358
C6    C     C_R   0.906026 0.520023 0.612194 0.074052
C7    C     C_R   0.953196 0.499261 0.500286 0.060241
C8    C     C_R   0.905994 0.478613 0.388359 0.072803
C9    C     C_R   0.951885 0.541429 0.722966 -0.189796
C10   C     C_R   0.045783 0.543021 0.725735 -0.020544
C11   C     C_R   0.093751 0.522398 0.613283 0.032747
C12   C     C_R   0.500054 0.499789 0.257725 0.809465
C13   C     C_R   0.046879 0.499227 0.500275 0.062455
C14   C     C_R   0.093709 0.476147 0.387217 0.032442
C15   C     C_R   0.045692 0.455289 0.274861 -0.019173
C16   C     C_R   0.951795 0.456826 0.277689 -0.191119
C17   C     C_R   0.187241 0.525555 0.609077 -0.268841
C18   C     C_R   0.231931 0.499634 0.500108 -0.016393
C19   C     C_R   0.187203 0.473423 0.391253 -0.267205
C20   C     C_R   0.579521 0.800017 0.508164 0.543041
C21   C     C_R   0.578999 0.200527 0.484013 0.544333
C22   C     C_R   0.419952 0.798300 0.497560 -0.182491
C23   C     C_R   0.420258 0.201314 0.510046 -0.183271
C24   C     C_R   0.417499 0.898781 0.500844 0.015729
C25   C     C_R   0.417640 0.100849 0.506481 0.016000
C26   C     C_R   0.672763 0.500074 0.499995 0.870261
C27   C     C_R   0.498823 0.949672 0.499306 0.048306
C28   C     C_R   0.498841 0.050409 0.499541 0.047780
C29   C     C_R   0.580479 0.899965 0.499213 -0.073421
C30   C     C_R   0.580342 0.100555 0.491783 -0.072147
C31   C     C_R   0.336161 0.949654 0.505594 -0.178407
C32   C     C_R   0.336269 0.049548 0.509887 -0.178470
C33   C     C_R   0.661600 0.049852 0.489157 -0.191821
C34   C     C_R   0.661689 0.951065 0.493755 -0.192878
C35   C     C_R   0.500103 0.499797 0.742272 0.811537
C36   C     C_3   0.415078 0.550541 0.072251 -0.392136
C37   C     C_3   0.499569 0.395525 0.071445 -0.399939
C38   C     C_3   0.414704 0.549968 0.927731 -0.403291
C39   C     C_3   0.500187 0.395607 0.928565 -0.378402
C40   C     C_3   0.585696 0.549841 0.072270 -0.388149
C41   C     C_3   0.500091 0.498998 0.121305 0.181277
C42   C     C_3   0.500063 0.499105 0.878709 0.188442
H1    H     H_    0.413882 0.625082 0.106252 0.185284
H2    H     H_    0.559745 0.356522 0.105785 0.164576
H3    H     H_    0.227117 0.547033 0.689200 0.107563
H4    H     H_    0.227061 0.452163 0.311053 0.107422
H5    H     H_    0.913861 0.442162 0.192645 0.192017
H6    H     H_    0.357513 0.758923 0.495540 0.173596
H7    H     H_    0.358114 0.240423 0.518559 0.173074
H8    H     H_    0.272469 0.912235 0.507231 0.143798
H9    H     H_    0.272660 0.086630 0.514819 0.143862
H10   H     H_    0.725657 0.086278 0.485639 0.177185
H11   H     H_    0.725752 0.914925 0.491237 0.177051
H12   H     H_    0.353261 0.514878 0.108163 0.149812
H13   H     H_    0.438656 0.357141 0.105521 0.181227
H14   H     H_    0.353166 0.513195 0.893055 0.150129
H15   H     H_    0.439897 0.356566 0.893808 0.180153
H16   H     H_    0.412399 0.624205 0.892535 0.182002
H17   H     H_    0.561056 0.357420 0.894597 0.183591
H18   H     H_    0.588573 0.623949 0.107763 0.187404
H19   H     H_    0.647011 0.512745 0.106636 0.149158
H20   H     H_    0.585978 0.625638 0.894562 0.170090
H21   H     H_    0.646989 0.515954 0.891420 0.152255
H22   H     H_    0.775108 0.466446 0.303288 0.120445
H23   H     H_    0.775108 0.533123 0.696990 0.120728
H24   H     H_    0.913997 0.555913 0.808089 0.191190
N1    N     N_R   0.500070 0.750030 0.500050 -0.143606
N2    N     N_R   0.500070 0.249970 0.500050 -0.143967
O1    O     O_R   0.367860 0.580280 0.500020 -0.626569
O2    O     O_R   0.367860 0.419720 0.500020 -0.626390
O3    O     O_R   0.500000 0.580270 0.314790 -0.614337
O4    O     O_R   0.500000 0.419730 0.314790 -0.646797
O5    O     O_R   0.632160 0.580270 0.499960 -0.570549
O6    O     O_R   0.632160 0.419730 0.499960 -0.569771
O7    O     O_R   0.500030 0.580270 0.685200 -0.642720
O8    O     O_R   0.500030 0.419730 0.685200 -0.618999
Zn1   Zn    Zn3+2 0.500020 0.607200 0.499990 0.957069
Zn2   Zn    Zn3+2 0.500020 0.392800 0.499990 0.955197
C43   C     C_2   0.090813 0.563657 0.848053 0.447319
H25   H     H_    0.159326 0.541845 0.866330 0.039714
O9    O     O_2   0.050593 0.604578 0.932226 -0.577766
C44   C     C_2   0.090665 0.434587 0.152526 0.448196
H26   H     H_    0.159239 0.456509 0.134094 0.038633
O10   O     O_2   0.050320 0.393498 0.068494 -0.578465
O11   O     O_3   0.659579 0.753813 0.530381 -0.624802
C45   C     C_3   0.675707 0.751075 0.662042 0.093395
H27   H     H_    0.652327 0.681786 0.699055 0.174682
H28   H     H_    0.640624 0.807921 0.716350 0.104108
C46   C     C_3   0.776627 0.761281 0.686709 -0.360496
H29   H     H_    0.814553 0.711296 0.626296 0.250788
H30   H     H_    0.798644 0.834192 0.662157 0.214819
C47   C     C_3   0.799182 0.742315 0.824658 -0.938989
H31   H     H_    0.764559 0.794355 0.886156 0.266538
H32   H     H_    0.872918 0.748978 0.839033 0.289333
H33   H     H_    0.778053 0.669669 0.852023 0.250936
O12   O     O_3   0.658153 0.247453 0.456720 -0.624917
C48   C     C_3   0.668629 0.253791 0.324166 0.094758
H34   H     H_    0.646738 0.325087 0.293280 0.177562
H35   H     H_    0.628948 0.200182 0.269931 0.102152
C49   C     C_3   0.767853 0.241199 0.289953 -0.363666
H36   H     H_    0.810200 0.287347 0.350328 0.250304
H37   H     H_    0.788056 0.166667 0.307161 0.215737
C50   C     C_3   0.785163 0.265314 0.151864 -0.946704
H38   H     H_    0.745455 0.217702 0.089808 0.266243
H39   H     H_    0.857727 0.256110 0.130306 0.291029
H40   H     H_    0.766380 0.339942 0.132060 0.248532

loop_
_geom_bond_atom_site_label_1
_geom_bond_atom_site_label_2
_ccdc_geom_bond_type
C22   H6    S    
C40   H18   S    
C27   C29   A    
C20   N1    A    
O1    Zn1   S    
N1    Zn1   S    
C24   C27   A    
C6    C9    A    
C48   H34   S    
C19   H4    S    
C7    C8    A    
C3    H22   S    
C25   C28   A    
C35   O7    A    
C1    C18   S    
C17   H3    S    
C38   C42   S    
C5    C6    A    
C45   H28   S    
C23   H7    S    
O2    Zn2   S    
C15   C16   A    
C39   H15   S    
C26   O5    A    
C18   C19   A    
C35   C42   S    
C9    H24   S    
C47   H31   S    
O4    Zn2   S    
C38   H16   S    
C46   H30   S    
C9    C10   A    
C25   C32   A    
C23   C25   A    
C12   O4    A    
C8    C16   A    
C13   C14   A    
C20   O11   S    
C36   C41   S    
C16   H5    S    
C49   H37   S    
C48   H35   S    
C33   C34   A    
C39   C42   S    
C20   C29   A    
N2    Zn2   S    
C35   O8    A    
C5    H23   S    
C3    C8    A    
C43   O9    D    
C45   H27   S    
O11   C45   S    
C29   C34   A    
C49   C50   S    
C1    O1    A    
C40   H19   S    
C33   H10   S    
C23   N2    A    
C32   H9    S    
C12   C41   S    
C31   C32   A    
C39   H17   S    
O12   C48   S    
C47   H32   S    
C17   C18   A    
C50   H39   S    
C46   C47   S    
O7    Zn1   S    
C40   C41   S    
C12   O3    A    
C44   O10   D    
C21   N2    A    
C22   C24   A    
C31   H8    S    
C3    C4    A    
C15   C44   S    
O3    Zn1   S    
C48   C49   S    
C2    H21   S    
C11   C17   A    
C30   C33   A    
C14   C19   A    
O8    Zn2   S    
C4    C5    A    
C45   C46   S    
C4    C26   S    
C10   C43   S    
C6    C7    A    
C21   O12   S    
C21   C30   A    
C1    O2    A    
C37   H2    S    
C36   C38   S    
C24   C31   A    
C37   C39   S    
C11   C13   A    
C2    C42   S    
C28   C30   A    
C49   H36   S    
C26   O6    A    
C50   H40   S    
C47   H33   S    
C37   C41   S    
C22   N1    A    
C36   H12   S    
C10   C11   A    
C43   H25   S    
C37   H13   S    
C2    C40   S    
C7    C13   A    
C38   H14   S    
C34   H11   S    
C44   H26   S    
O6    Zn2   S    
C50   H38   S    
O5    Zn1   S    
C14   C15   A    
C36   H1    S    
C46   H29   S    
C2    H20   S    
C27   C28   A    
