data_mof_unit_3663.cif
_audit_creation_date              2012-12-11T17:36:16-0500
_audit_creation_method            fapswitch 2.2
_symmetry_space_group_name_H-M    P1
_symmetry_Int_Tables_number       1
_space_group_crystal_system       triclinic
_cell_length_a                    26.080946
_cell_length_b                    6.878084
_cell_length_c                    21.525269
_cell_angle_alpha                 89.988337
_cell_angle_beta                  96.207112
_cell_angle_gamma                 89.992283
_cell_volume                      3838.7149739

loop_
_atom_site_label
_atom_site_type_symbol
_atom_type_description
_atom_site_fract_x
_atom_site_fract_y
_atom_site_fract_z
_atom_type_partial_charge
O1    O     O_R   0.208650 0.594520 0.175450 -0.539820
O2    O     O_R   0.791350 0.405480 0.824550 -0.539832
O3    O     O_R   0.291350 0.094520 0.324550 -0.539760
O4    O     O_R   0.708650 0.905480 0.675450 -0.539763
O5    O     O_R   0.192980 0.260780 0.300160 -0.507579
O6    O     O_R   0.807020 0.739220 0.699840 -0.507564
O7    O     O_R   0.307020 0.760780 0.199840 -0.507613
O8    O     O_R   0.692980 0.239220 0.800160 -0.507609
C1    C     C_R   0.178989 0.433242 0.318852 0.776204
C2    C     C_R   0.821012 0.566759 0.681149 0.776426
C3    C     C_R   0.321013 0.933249 0.181150 0.776671
C4    C     C_R   0.678986 0.066752 0.818847 0.776811
O9    O     O_R   0.202550 0.264660 0.174420 -0.538138
O10   O     O_R   0.797450 0.735340 0.825580 -0.538223
O11   O     O_R   0.297450 0.764660 0.325580 -0.538409
O12   O     O_R   0.702550 0.235340 0.674420 -0.538478
O13   O     O_R   0.300990 0.096480 0.197920 -0.515199
O14   O     O_R   0.699010 0.903520 0.802080 -0.515170
O15   O     O_R   0.199010 0.596480 0.302080 -0.515294
O16   O     O_R   0.800990 0.403520 0.697920 -0.515253
C5    C     C_R   0.190718 0.433730 0.151160 0.722031
C6    C     C_R   0.809283 0.566268 0.848838 0.722103
C7    C     C_R   0.309285 0.933664 0.348842 0.722085
C8    C     C_R   0.690713 0.066334 0.651160 0.722140
O17   O     O_3   0.282290 0.427760 0.257860 -0.367521
O18   O     O_3   0.717710 0.572240 0.742140 -0.367571
O19   O     O_3   0.217710 0.927760 0.242140 -0.367382
O20   O     O_3   0.782290 0.072240 0.757860 -0.367447
V1    V     V_3+5 0.244010 0.152080 0.248540 1.545708
V2    V     V_3+5 0.755990 0.847920 0.751460 1.545578
V3    V     V_3+5 0.255990 0.652080 0.251460 1.545192
V4    V     V_3+5 0.744010 0.347920 0.748540 1.545094
C9    C     C_R   0.656764 0.058598 0.591752 -0.052771
C10   C     C_R   0.343233 0.941385 0.408251 -0.052836
C11   C     C_R   0.843225 0.558193 0.908242 -0.052877
C12   C     C_R   0.156778 0.441789 0.091754 -0.052989
C13   C     C_R   0.646326 0.092003 0.479311 -0.160227
C14   C     C_R   0.353672 0.907867 0.520690 -0.160249
C15   C     C_R   0.853506 0.587747 0.020788 -0.160135
C16   C     C_R   0.146495 0.412051 0.979212 -0.160169
C17   C     C_R   0.677693 0.093546 0.535853 -0.135967
C18   C     C_R   0.322303 0.906418 0.464149 -0.135903
C19   C     C_R   0.822180 0.590428 0.964219 -0.136002
C20   C     C_R   0.177823 0.409475 0.035780 -0.135903
C21   C     C_R   0.603530 0.023367 0.590778 -0.246410
C22   C     C_R   0.396470 0.976554 0.409227 -0.246590
C23   C     C_R   0.896523 0.524422 0.909169 -0.246326
C24   C     C_R   0.103479 0.475539 0.090823 -0.246627
C25   C     C_R   0.570219 0.026314 0.533624 0.093754
C26   C     C_R   0.429783 0.973491 0.466379 0.093850
C27   C     C_R   0.929775 0.526043 0.966369 0.094049
C28   C     C_R   0.070224 0.473762 0.033626 0.094207
C29   C     C_R   0.593096 0.059040 0.477635 0.136491
C30   C     C_R   0.406905 0.940746 0.522366 0.136449
C31   C     C_R   0.906793 0.556120 0.022427 0.136377
C32   C     C_R   0.093205 0.443626 0.977572 0.136312
C33   C     C_R   0.515310 0.998854 0.529876 0.060960
C34   C     C_R   0.484695 0.000874 0.470125 0.061147
C35   C     C_R   0.984721 0.499631 0.970102 0.060977
C36   C     C_R   0.015276 0.500091 0.029894 0.061261
C37   C     C_R   0.510057 0.028911 0.416161 -0.201191
C38   C     C_R   0.489950 0.970726 0.583839 -0.201248
C39   C     C_R   0.989823 0.525591 0.083908 -0.200965
C40   C     C_R   0.010171 0.474010 0.916091 -0.201058
C41   C     C_R   0.562920 0.058873 0.420070 -0.185299
C42   C     C_R   0.437085 0.940801 0.579929 -0.185200
C43   C     C_R   0.936917 0.554511 0.080025 -0.185523
C44   C     C_R   0.063077 0.445104 0.919975 -0.185363
H1    H     H_    0.580465 0.081903 0.377235 0.134271
H2    H     H_    0.419542 0.917719 0.622762 0.134240
H3    H     H_    0.919297 0.575520 0.122906 0.134304
H4    H     H_    0.080696 0.424010 0.877097 0.134260
H5    H     H_    0.410460 0.003380 0.364721 0.085596
H6    H     H_    0.589541 0.996579 0.635287 0.085577
H7    H     H_    0.089412 0.500542 0.135386 0.085339
H8    H     H_    0.910591 0.499507 0.864602 0.085283
H9    H     H_    0.281471 0.878462 0.464078 0.175419
H10   H     H_    0.718523 0.121549 0.535923 0.175418
H11   H     H_    0.218715 0.382826 0.035812 0.175499
H12   H     H_    0.781289 0.617088 0.964190 0.175498
H13   H     H_    0.663770 0.118066 0.436595 0.131274
H14   H     H_    0.336227 0.881790 0.563404 0.131261
H15   H     H_    0.835977 0.611713 0.063562 0.131318
H16   H     H_    0.164023 0.388030 0.936442 0.131300
H17   H     H_    0.490112 0.028643 0.369687 0.125449
H18   H     H_    0.509899 0.970877 0.630310 0.125506
H19   H     H_    0.009725 0.524041 0.130402 0.125266
H20   H     H_    0.990264 0.475412 0.869599 0.125334
C45   C     C_R   0.439771 0.807685 0.097419 0.344164
C46   C     C_R   0.560244 0.192391 0.902595 0.343993
C47   C     C_R   0.060235 0.307697 0.402603 0.344588
C48   C     C_R   0.939734 0.692412 0.597360 0.344306
C49   C     C_R   0.401014 0.796705 0.138535 0.343585
C50   C     C_R   0.598991 0.203317 0.861463 0.343713
C51   C     C_R   0.099007 0.296638 0.361512 0.343329
C52   C     C_R   0.900980 0.703393 0.638478 0.343506
C53   C     C_R   0.363616 0.947020 0.139418 -0.303985
C54   C     C_R   0.636387 0.052996 0.860585 -0.303881
C55   C     C_R   0.136377 0.447010 0.360573 -0.304317
C56   C     C_R   0.863615 0.553009 0.639416 -0.304159
C57   C     C_R   0.368042 0.111197 0.100030 0.356690
C58   C     C_R   0.631963 0.888843 0.899983 0.356633
C59   C     C_R   0.131922 0.611241 0.399914 0.356701
C60   C     C_R   0.868065 0.388807 0.600062 0.356599
C61   C     C_R   0.407848 0.122531 0.061513 -0.159725
C62   C     C_R   0.592163 0.877544 0.938509 -0.159686
C63   C     C_R   0.092112 0.622601 0.438423 -0.159758
C64   C     C_R   0.907865 0.377498 0.561537 -0.159705
H21   H     H_    0.410409 0.249108 0.031960 0.220038
H22   H     H_    0.589602 0.750980 0.968068 0.220043
H23   H     H_    0.089536 0.749200 0.467948 0.220170
H24   H     H_    0.910441 0.250913 0.532006 0.220186
C65   C     C_R   0.443573 0.972513 0.059472 -0.120270
C66   C     C_R   0.556444 0.027582 0.940552 -0.120188
C67   C     C_R   0.056407 0.472569 0.440500 -0.120529
C68   C     C_R   0.943560 0.527562 0.559452 -0.120403
C69   C     C_1   0.483482 0.991134 0.017592 0.162348
C70   C     C_1   0.516537 0.008983 0.982435 0.162363
C71   C     C_1   0.016505 0.491171 0.482389 0.162374
C72   C     C_1   0.983457 0.508987 0.517556 0.162396
Cl1   Cl    Cl    0.483172 0.612119 0.093741 -0.602817
Cl2   Cl    Cl    0.516859 0.388003 0.906292 -0.602925
Cl3   Cl    Cl    0.016843 0.112152 0.406301 -0.602664
Cl4   Cl    Cl    0.983099 0.888031 0.593626 -0.602848
O21   O     O_3   0.398574 0.633383 0.175629 -0.513648
C73   C     C_3   0.427829 0.667346 0.233773 0.157913
H25   H     H_    0.411990 0.793145 0.258209 0.048173
H26   H     H_    0.468938 0.696858 0.227296 0.139295
C74   C     C_3   0.425447 0.486498 0.274676 -0.263897
H27   H     H_    0.384720 0.456951 0.282200 0.207723
H28   H     H_    0.440421 0.359000 0.250501 0.202376
C75   C     C_3   0.457071 0.512490 0.338034 -0.855150
H29   H     H_    0.498412 0.534792 0.331955 0.244004
H30   H     H_    0.453423 0.380646 0.366943 0.239994
H31   H     H_    0.442779 0.638993 0.363073 0.239796
O22   O     O_3   0.601425 0.366565 0.824334 -0.513687
C76   C     C_3   0.572084 0.332621 0.766246 0.157621
H32   H     H_    0.530948 0.304062 0.772812 0.140002
H33   H     H_    0.587717 0.206235 0.741886 0.047836
C77   C     C_3   0.574693 0.512980 0.725172 -0.263928
H34   H     H_    0.560104 0.641210 0.749349 0.202377
H35   H     H_    0.615431 0.541100 0.717385 0.207638
C78   C     C_3   0.542776 0.487400 0.661986 -0.855174
H36   H     H_    0.556587 0.359883 0.637008 0.239759
H37   H     H_    0.546701 0.618634 0.632886 0.240041
H38   H     H_    0.501416 0.467032 0.668323 0.244036
O23   O     O_3   0.101511 0.133044 0.324575 -0.513436
C79   C     C_3   0.072431 0.166710 0.266296 0.158647
H39   H     H_    0.088745 0.290896 0.241572 0.048944
H40   H     H_    0.031397 0.198602 0.272558 0.137448
C80   C     C_3   0.074258 0.984434 0.225945 -0.263501
H41   H     H_    0.114931 0.951516 0.218998 0.207886
H42   H     H_    0.058445 0.858890 0.250265 0.202532
C81   C     C_3   0.043243 0.010782 0.162212 -0.855115
H43   H     H_    0.001985 0.037633 0.167736 0.243939
H44   H     H_    0.046204 0.877298 0.133880 0.239910
H45   H     H_    0.058596 0.134600 0.136878 0.239789
O24   O     O_3   0.898484 0.866881 0.675465 -0.513491
C82   C     C_3   0.927711 0.833266 0.733654 0.158247
H46   H     H_    0.968784 0.802737 0.727237 0.138504
H47   H     H_    0.911702 0.708227 0.758288 0.048414
C83   C     C_3   0.925570 0.014884 0.774243 -0.263505
H48   H     H_    0.940798 0.141535 0.749885 0.202554
H49   H     H_    0.884876 0.045712 0.781625 0.207703
C84   C     C_3   0.957065 0.989155 0.837701 -0.855128
H50   H     H_    0.942434 0.863792 0.862988 0.239720
H51   H     H_    0.953709 0.121826 0.866304 0.239971
H52   H     H_    0.998364 0.965123 0.831744 0.243995
Cl5   Cl    Cl    0.323792 0.306000 0.093933 -0.623844
Cl6   Cl    Cl    0.676207 0.694020 0.906075 -0.623827
Cl7   Cl    Cl    0.176160 0.806038 0.405996 -0.623593
Cl8   Cl    Cl    0.823839 0.193974 0.593995 -0.623563

loop_
_geom_bond_atom_site_label_1
_geom_bond_atom_site_label_2
_ccdc_geom_bond_type
C58   Cl6   S    
C78   H38   S    
C52   O24   S    
C25   C29   A    
O1    C5    A    
C84   H50   S    
O19   V1    S    
C9    C21   A    
C16   H16   S    
O3    C7    A    
O23   C79   S    
C10   C18   A    
C79   C80   S    
C48   C52   A    
O15   V3    S    
C25   C33   A    
C33   C38   A    
C5    C12   S    
C42   H2    S    
C46   C66   A    
O7    C3    A    
C6    C11   S    
C76   H33   S    
C35   C40   A    
C73   H25   S    
C62   C66   A    
C36   C39   A    
C40   C44   A    
C61   C65   A    
C77   H35   S    
C23   H8    S    
C14   C18   A    
C48   Cl4   S    
C62   H22   S    
O4    C8    A    
C51   C55   A    
C50   C54   A    
C78   H36   S    
O1    V3    S    
O13   V1    S    
O2    V4    S    
C27   C31   A    
C80   C81   S    
O3    V1    S    
C28   C36   A    
C1    O15   A    
C56   C60   A    
C15   C31   A    
C2    O16   A    
C75   H29   S    
C16   C32   A    
O2    C6    A    
C50   O22   S    
C80   H41   S    
C77   C78   S    
C57   Cl5   S    
C10   C22   A    
C11   C19   A    
C16   C20   A    
C81   H44   S    
C44   H4    S    
C60   Cl8   S    
C74   C75   S    
C13   C29   A    
C34   C37   A    
O11   C7    A    
C11   C23   A    
C35   C36   A    
O12   C8    A    
C47   Cl3   S    
C14   H14   S    
C59   Cl7   S    
C46   Cl2   S    
C24   H7    S    
C13   H13   S    
O10   V2    S    
C46   C50   A    
C83   H49   S    
O17   V1    S    
C76   C77   S    
C39   C43   A    
C57   C61   A    
O7    V3    S    
C38   C42   A    
O19   V3    S    
C26   C34   A    
O20   V4    S    
C51   O23   S    
C77   H34   S    
C81   H45   S    
C55   C59   A    
C17   H10   S    
C1    C55   S    
O18   V4    S    
C15   C19   A    
C73   C74   S    
C19   H12   S    
C54   C58   A    
C45   C49   A    
O4    V2    S    
C68   C72   S    
C21   H6    S    
O8    V4    S    
O5    C1    A    
C37   C41   A    
C83   C84   S    
C38   H18   S    
C31   C43   A    
C82   H46   S    
C14   C30   A    
C45   C65   A    
C21   C25   A    
O8    C4    A    
C7    C10   S    
C82   H47   S    
C82   C83   S    
O9    C5    A    
C26   C30   A    
C79   H39   S    
C2    C56   S    
C48   C68   A    
C63   C67   A    
C81   H43   S    
C66   C70   S    
C37   H17   S    
C65   C69   S    
C75   H30   S    
O6    V2    S    
O18   V2    S    
C84   H52   S    
C67   C71   S    
O21   C73   S    
C12   C20   A    
C27   C35   A    
O5    V1    S    
C49   C53   A    
C60   C64   A    
C29   C41   A    
C83   H48   S    
O16   V4    S    
O9    V1    S    
C78   H37   S    
C61   H21   S    
C3    O13   A    
C73   H26   S    
C39   H19   S    
C63   H23   S    
O17   V3    S    
C20   H11   S    
C79   H40   S    
O22   C76   S    
O6    C2    A    
C23   C27   A    
C71   C72   T    
O11   V3    S    
C30   C42   A    
O12   V4    S    
C76   H32   S    
C22   C26   A    
C8    C9    S    
C3    C53   S    
C9    C17   A    
C64   C68   A    
O20   V2    S    
C74   H27   S    
C15   H15   S    
C32   C44   A    
C69   C70   T    
O10   C6    A    
C33   C34   A    
O24   C82   S    
C45   Cl1   S    
C75   H31   S    
C41   H1    S    
C52   C56   A    
C47   C67   A    
C12   C24   A    
C43   H3    S    
C80   H42   S    
C13   C17   A    
C49   O21   S    
O14   V2    S    
C47   C51   A    
C64   H24   S    
C24   C28   A    
C18   H9    S    
C84   H51   S    
C58   C62   A    
C4    O14   A    
C4    C54   S    
C59   C63   A    
C40   H20   S    
C22   H5    S    
C53   C57   A    
C28   C32   A    
C74   H28   S    
