data_mof_unit_2222.cif
_audit_creation_date              2012-10-26T19:04:39-0400
_audit_creation_method            fapswitch 2.2
_symmetry_space_group_name_H-M    P1
_symmetry_Int_Tables_number       1
_space_group_crystal_system       triclinic
_cell_length_a                    9.57182
_cell_length_b                    10.86281
_cell_length_c                    13.444307
_cell_angle_alpha                 92.649945
_cell_angle_beta                  72.438444
_cell_angle_gamma                 90.497382
_cell_volume                      1331.29999189

loop_
_atom_site_label
_atom_site_type_symbol
_atom_type_description
_atom_site_fract_x
_atom_site_fract_y
_atom_site_fract_z
_atom_type_partial_charge
C1    C     C_R   0.503446 0.736858 0.491500 0.553256
C2    C     C_R   0.373796 0.487963 0.814567 -0.004046
C3    C     C_R   0.278033 0.876048 0.427423 -0.092885
C4    C     C_R   0.421508 0.493773 0.699832 0.541591
C5    C     C_R   0.144484 0.933268 0.437652 -0.113313
C6    C     C_R   0.113638 0.048035 0.489224 -0.117160
C7    C     C_R   0.221913 0.110954 0.520573 -0.103328
C8    C     C_R   0.364434 0.059763 0.499881 0.022363
C9    C     C_R   0.383300 0.933907 0.468660 0.023874
C10   C     C_R   0.505314 0.870545 0.481630 -0.009838
C11   C     C_R   0.621712 0.937236 0.499607 -0.161774
C12   C     C_R   0.433833 0.481009 0.978982 0.024492
C13   C     C_R   0.616103 0.064440 0.508438 -0.166466
C14   C     C_R   0.488835 0.127535 0.508920 -0.010900
C15   C     C_R   0.912535 0.336949 0.360844 -0.140484
C16   C     C_R   0.496022 0.262300 0.505368 0.529548
C17   C     C_R   0.011372 0.254790 0.294271 -0.147552
C18   C     C_R   0.156180 0.252911 0.293895 0.116668
C19   C     C_R   0.200435 0.334270 0.361925 -0.087194
C20   C     C_R   0.102661 0.418972 0.431822 0.117985
C21   C     C_R   0.953198 0.419625 0.431550 0.140755
C22   C     C_R   0.899304 0.576863 0.564888 -0.007313
C23   C     C_R   0.471139 0.452816 0.869996 0.024209
C24   C     C_R   0.047439 0.576941 0.564772 -0.010632
C25   C     C_R   0.578548 0.497794 0.299999 0.532929
C26   C     C_R   0.787701 0.396318 0.024603 -0.139028
C27   C     C_R   0.622723 0.481342 0.186142 -0.002179
C28   C     C_R   0.231931 0.529074 0.870199 -0.136843
C29   C     C_R   0.189076 0.542293 0.978298 -0.146812
C30   C     C_R   0.288971 0.521386 0.032348 -0.128620
C31   C     C_3   0.284338 0.174759 0.118029 -0.298863
C32   C     C_R   0.542138 0.465579 0.030422 0.022656
C33   C     C_R   0.679671 0.411373 0.974966 0.049336
C34   C     C_R   0.706702 0.370115 0.871320 -0.147595
C35   C     C_R   0.603320 0.388646 0.820046 -0.128262
C36   C     C_R   0.518362 0.503206 0.135352 -0.135913
C37   C     C_R   0.759128 0.430630 0.129944 -0.147673
Cu1   Cu    Cu3+1 0.359340 0.500010 0.500010 0.900676
Cu2   Cu    Cu3+1 0.640660 0.499990 0.499990 0.912537
H1    H     H_    0.298305 0.787525 0.385431 0.143883
H2    H     H_    0.808469 0.323288 0.829480 0.105848
H3    H     H_    0.081136 0.639962 0.617773 0.119316
H4    H     H_    0.892973 0.355215 0.982536 0.108051
H5    H     H_    0.418536 0.549225 0.180168 0.120109
H6    H     H_    0.154431 0.553723 0.829965 0.129502
H7    H     H_    0.247849 0.534428 0.116058 0.106869
H8    H     H_    0.078778 0.572769 0.020412 0.124226
H9    H     H_    0.627477 0.348636 0.741642 0.149546
H10   H     H_    0.717707 0.891153 0.507144 0.133622
H11   H     H_    0.841376 0.413353 0.168027 0.120348
H12   H     H_    0.063275 0.886851 0.408418 0.114262
H13   H     H_    0.351001 0.152170 0.249342 0.249264
H14   H     H_    0.360983 0.100458 0.075276 0.143578
H15   H     H_    0.335002 0.265041 0.093771 0.155891
H16   H     H_    0.181565 0.164893 0.096396 0.149255
H17   H     H_    0.006751 0.089762 0.502957 0.109963
H18   H     H_    0.189066 0.197025 0.564326 0.148585
H19   H     H_    0.711311 0.113322 0.516909 0.133612
H20   H     H_    0.822011 0.639819 0.618027 0.120509
H21   H     H_    0.805410 0.330795 0.353669 0.187325
H22   H     H_    0.973596 0.190960 0.243764 0.124768
H23   H     H_    0.312497 0.326383 0.356898 0.186601
N1    N     N_R   0.852480 0.498790 0.499000 -0.239721
N2    N     N_R   0.148360 0.498710 0.498970 -0.247698
N3    N     N_2   0.256346 0.164474 0.229239 -0.508999
O1    O     O_R   0.381190 0.680360 0.500010 -0.506470
O2    O     O_R   0.618760 0.680340 0.500000 -0.498670
O3    O     O_R   0.323240 0.499990 0.650990 -0.501137
O4    O     O_R   0.560820 0.499960 0.650980 -0.503529
O5    O     O_R   0.381240 0.319660 0.500000 -0.535164
O6    O     O_R   0.618810 0.319640 0.499990 -0.527112
O7    O     O_R   0.439180 0.500040 0.349020 -0.529131
O8    O     O_R   0.676760 0.500010 0.349010 -0.515505

loop_
_geom_bond_atom_site_label_1
_geom_bond_atom_site_label_2
_ccdc_geom_bond_type
Cu1   O5    S    
C24   H3    S    
C15   H21   S    
C19   C20   A    
C7    C8    A    
C18   N3    S    
C34   H2    S    
C12   C23   A    
C29   H8    S    
C3    C9    A    
C32   C36   A    
C28   C29   A    
C34   C35   A    
C5    C6    A    
C19   H23   S    
C31   N3    S    
C18   C19   A    
C17   H22   S    
C22   N1    A    
Cu1   O1    S    
C8    C9    A    
C9    C10   A    
C25   O8    A    
C24   N2    A    
C13   C14   A    
C12   C32   A    
C16   O6    A    
C35   H9    S    
C4    O4    A    
C26   H4    S    
C33   C34   A    
Cu1   N2    S    
Cu1   O7    S    
C28   H6    S    
C16   O5    A    
C22   H20   S    
C4    O3    A    
C13   H19   S    
C1    O1    A    
C20   N2    A    
C2    C4    S    
C29   C30   A    
C11   H10   S    
C26   C33   A    
C17   C18   A    
Cu2   O4    S    
C25   O7    A    
C31   H14   S    
Cu1   O3    S    
C3    H1    S    
C23   C35   A    
C14   C16   S    
C36   H5    S    
C15   C17   A    
C8    C14   A    
C12   C30   A    
Cu2   O2    S    
C30   H7    S    
C1    C10   S    
C6    H17   S    
C3    C5    A    
C26   C37   A    
C6    C7    A    
C27   C36   A    
C25   C27   S    
Cu2   N1    S    
C32   C33   A    
C37   H11   S    
C11   C13   A    
Cu1   Cu2   S    
C27   C37   A    
C1    O2    A    
C22   C24   A    
Cu2   O8    S    
C31   H15   S    
C21   N1    A    
C10   C11   A    
C15   C21   A    
C20   C21   A    
C2    C23   A    
Cu2   O6    S    
C5    H12   S    
C2    C28   A    
C31   H16   S    
C7    H18   S    
H13   N3    S    
