data_mof_unit_248.cif
_audit_creation_date              2012-12-11T17:43:38-0500
_audit_creation_method            fapswitch 2.2
_symmetry_space_group_name_H-M    P1
_symmetry_Int_Tables_number       1
_space_group_crystal_system       triclinic
_cell_length_a                    14.945068
_cell_length_b                    15.001942
_cell_length_c                    17.042249
_cell_angle_alpha                 108.777306
_cell_angle_beta                  106.186508
_cell_angle_gamma                 108.176677
_cell_volume                      3116.79051119

loop_
_atom_site_label
_atom_site_type_symbol
_atom_type_description
_atom_site_fract_x
_atom_site_fract_y
_atom_site_fract_z
_atom_type_partial_charge
C1    C     C_R   0.083893 0.291740 0.085531 -0.137617
C2    C     C_R   0.084095 0.117708 0.134265 -0.248811
C3    C     C_R   0.995828 0.927644 0.066607 0.058244
C4    C     C_R   0.990667 0.120153 0.094718 0.048827
C5    C     C_R   0.089602 0.022511 0.111290 0.040470
C6    C     C_R   0.897187 0.030185 0.064720 0.045029
C7    C     C_R   0.705228 0.957175 0.972275 -0.128626
C8    C     C_R   0.276395 0.077470 0.206106 -0.238398
C9    C     C_R   0.606017 0.044676 0.022983 -0.080358
C10   C     C_R   0.394856 0.066605 0.135017 0.017872
C11   C     C_R   0.445767 0.358187 0.183020 -0.140990
C12   C     C_R   0.908582 0.724532 0.970635 -0.121556
C13   C     C_R   0.489573 0.469653 0.649757 -0.129235
C14   C     C_R   0.468297 0.385906 0.117859 -0.161507
C15   C     C_R   0.471717 0.442584 0.717064 -0.136401
C16   C     C_R   0.935254 0.518812 0.747040 -0.134470
C17   C     C_R   0.062593 0.546054 0.264391 -0.124942
C18   C     C_R   0.391760 0.337289 0.027912 0.189221
C19   C     C_R   0.519218 0.518645 0.808700 0.110233
C20   C     C_R   0.295393 0.256458 0.001667 -0.061886
C21   C     C_R   0.586570 0.622207 0.831884 -0.221577
C22   C     C_R   0.273015 0.230075 0.067172 -0.136988
C23   C     C_R   0.025545 0.577651 0.744222 0.073834
C24   C     C_R   0.604314 0.648771 0.764332 -0.104634
C25   C     C_R   0.347201 0.282341 0.158242 -0.095774
C26   C     C_R   0.555626 0.572666 0.673335 -0.080755
C27   C     C_R   0.464985 0.340408 0.916658 -0.082538
C28   C     C_R   0.454352 0.529479 0.931194 -0.084615
C29   C     C_R   0.525915 0.407216 0.891938 -0.064815
C30   C     C_R   0.403305 0.471844 0.970135 0.013153
C31   C     C_R   0.500896 0.486262 0.879067 -0.037391
C32   C     C_R   0.411653 0.378140 0.964491 -0.041323
C33   C     C_R   0.610768 0.962614 0.958643 -0.055737
C34   C     C_R   0.969605 0.530113 0.273379 0.059086
C35   C     C_R   0.376949 0.096514 0.213556 -0.125186
C36   C     C_R   0.959307 0.571120 0.359451 0.131937
C37   C     C_R   0.031775 0.615738 0.675613 0.124627
C38   C     C_R   0.134093 0.686643 0.603228 -0.214320
C39   C     C_R   0.854562 0.549934 0.443902 -0.226341
C40   C     C_R   0.767049 0.201774 0.811931 -0.041106
C41   C     C_R   0.281125 0.778790 0.171198 -0.103375
C42   C     C_R   0.128591 0.671455 0.678367 -0.169762
C43   C     C_R   0.861473 0.535770 0.361466 -0.170611
C44   C     C_R   0.940374 0.586576 0.601164 -0.280207
C45   C     C_R   0.757404 0.198422 0.727307 0.035915
C46   C     C_R   0.048970 0.634208 0.441923 -0.275788
C47   C     C_R   0.945388 0.596529 0.524051 0.191462
C48   C     C_R   0.043136 0.643098 0.523864 0.182597
C49   C     C_R   0.697346 0.109334 0.638850 0.144941
C50   C     C_R   0.421164 0.868193 0.327219 0.185754
C51   C     C_R   0.490787 0.050735 0.428495 -0.246835
C52   C     C_R   0.645927 0.932591 0.530730 -0.232084
C53   C     C_R   0.418679 0.965195 0.347768 -0.128219
C54   C     C_R   0.710401 0.017289 0.616747 -0.071235
C55   C     C_R   0.498362 0.856309 0.385015 -0.268437
C56   C     C_R   0.333405 0.778831 0.251123 0.075785
C57   C     C_R   0.625927 0.119963 0.574826 -0.303821
C58   C     C_R   0.570809 0.942072 0.467535 0.174442
C59   C     C_R   0.564005 0.038432 0.489605 0.201245
C60   C     C_R   0.695575 0.121027 0.101525 -0.117028
C61   C     C_R   0.311994 0.015506 0.048675 -0.095162
C62   C     C_R   0.790187 0.115686 0.115731 -0.145055
C63   C     C_R   0.211443 0.996781 0.040794 -0.187035
C64   C     C_R   0.274413 0.550393 0.963865 -0.064535
C65   C     C_R   0.694365 0.404024 0.988292 -0.168829
C66   C     C_R   0.796121 0.034145 0.050720 0.093588
C67   C     C_R   0.325226 0.498015 0.997745 0.103385
C68   C     C_R   0.193143 0.029141 0.119626 0.110677
C69   C     C_R   0.787810 0.299888 0.737297 -0.167224
C70   C     C_R   0.272946 0.689834 0.252937 -0.176761
C71   C     C_R   0.279174 0.467475 0.051887 -0.158580
C72   C     C_R   0.706960 0.498789 0.912439 -0.118744
C73   C     C_R   0.107380 0.601999 0.822976 -0.155079
C74   C     C_R   0.889006 0.461674 0.186950 -0.134634
C75   C     C_R   0.913866 0.207789 0.006607 -0.126677
C76   C     C_R   0.080213 0.803857 0.054176 -0.148051
C77   C     C_R   0.995814 0.203302 0.063949 0.053878
C78   C     C_R   0.637305 0.433895 0.929435 0.085476
C79   C     C_R   0.993869 0.822508 0.033156 0.062382
C80   C     C_2   0.464896 0.235638 0.895659 0.479325
C81   C     C_2   0.470292 0.639090 0.953128 0.471811
C82   C     C_2   0.706690 0.116862 0.828514 0.467629
C83   C     C_2   0.329836 0.829021 0.122710 0.545778
C84   C     C_R   0.901477 0.934556 0.051750 -0.224945
H1    H     H_    0.160234 0.322287 0.138803 0.096519
H2    H     H_    0.420694 0.362259 0.697766 0.111755
H3    H     H_    0.236239 0.218647 0.932307 0.116888
H4    H     H_    0.628135 0.681405 0.902428 0.118258
H5    H     H_    0.196468 0.171477 0.046555 0.133102
H6    H     H_    0.656735 0.728118 0.782644 0.117466
H7    H     H_    0.124734 0.666944 0.442408 0.120189
H8    H     H_    0.864809 0.546675 0.598457 0.116051
H9    H     H_    0.790433 0.490742 0.299438 0.114328
H10   H     H_    0.200539 0.697789 0.735714 0.117876
H11   H     H_    0.209644 0.724031 0.604403 0.134050
H12   H     H_    0.828059 0.708412 0.939725 0.097393
H13   H     H_    0.778832 0.515837 0.443510 0.122896
H14   H     H_    0.856594 0.499105 0.704501 0.086779
H15   H     H_    0.140649 0.593970 0.317005 0.095293
H16   H     H_    0.541354 0.903556 0.897801 0.115614
H17   H     H_    0.441327 0.136058 0.280296 0.118934
H18   H     H_    0.615295 0.191058 0.592504 0.126856
H19   H     H_    0.498441 0.780157 0.367837 0.127185
H20   H     H_    0.768708 0.010739 0.666025 0.145400
H21   H     H_    0.356451 0.972919 0.304059 0.122323
H22   H     H_    0.485582 0.124552 0.445279 0.121620
H23   H     H_    0.707771 0.894137 0.920858 0.109855
H24   H     H_    0.653073 0.859832 0.514430 0.132629
H25   H     H_    0.532962 0.049161 0.011848 0.121378
H26   H     H_    0.472878 0.082335 0.141168 0.114637
H27   H     H_    0.691747 0.184532 0.151329 0.112700
H28   H     H_    0.325900 0.991890 0.987900 0.132446
H29   H     H_    0.858970 0.175607 0.176837 0.120883
H30   H     H_    0.148350 0.960220 0.973565 0.128208
H31   H     H_    0.284354 0.582425 0.917014 0.079524
H32   H     H_    0.663204 0.345361 0.009581 0.093266
H33   H     H_    0.785740 0.324899 0.684345 0.115324
H34   H     H_    0.263949 0.103518 0.267501 0.125644
H35   H     H_    0.295535 0.660651 0.301806 0.100822
H36   H     H_    0.302562 0.435191 0.097275 0.127159
H37   H     H_    0.691735 0.520205 0.857590 0.118935
H38   H     H_    0.186974 0.659135 0.849845 0.089141
H39   H     H_    0.806485 0.432663 0.167680 0.097728
H40   H     H_    0.833724 0.160719 0.986124 0.108239
H41   H     H_    0.156744 0.856041 0.106779 0.109928
H42   H     H_    0.830417 0.864852 0.026904 0.125487
H43   H     H_    0.155231 0.189089 0.169160 0.117679
H44   H     H_    0.509671 0.213012 0.859500 0.009298
H45   H     H_    0.328970 0.265614 0.210324 0.115226
H46   H     H_    0.459506 0.665017 0.900194 0.007739
H47   H     H_    0.685937 0.136627 0.885794 0.006703
H48   H     H_    0.282570 0.815167 0.054910 -0.010814
H49   H     H_    0.569675 0.593343 0.621175 0.101196
H50   H     H_    0.503422 0.397564 0.253069 0.111612
H51   H     H_    0.452430 0.410609 0.579298 0.105105
H52   H     H_    0.543539 0.447899 0.137995 0.121078
N1    N     N_R   0.055660 0.348550 0.045620 -0.038070
N2    N     N_R   0.185200 0.638170 0.176300 -0.036935
N3    N     N_R   0.201680 0.494570 0.045620 -0.042776
N4    N     N_R   0.798320 0.505430 0.954380 -0.041195
N5    N     N_R   0.068420 0.560530 0.871650 -0.042306
N6    N     N_R   0.931580 0.439470 0.128350 -0.039927
N7    N     N_R   0.948070 0.295860 0.997670 -0.049046
N8    N     N_R   0.051930 0.704140 0.002330 -0.048980
N9    N     N_R   0.944340 0.651450 0.954380 -0.039067
N10   N     N_R   0.960830 0.507850 0.823700 -0.036799
N11   N     N_R   0.039170 0.492150 0.176300 -0.039155
N12   N     N_R   0.811290 0.303410 0.871650 -0.077171
N13   N     N_R   0.188710 0.696590 0.128350 -0.072197
N14   N     N_R   0.205200 0.552990 0.997670 -0.053817
N15   N     N_R   0.794800 0.447010 0.002330 -0.038533
N16   N     N_R   0.814800 0.361830 0.823700 -0.045582
Ni1   Ni    Ni4+2 0.119340 0.493420 0.109960 0.211589
Ni2   Ni    Ni4+2 0.880660 0.506580 0.890040 0.208699
Ni3   Ni    Ni4+2 0.872590 0.372590 0.000000 0.201686
Ni4   Ni    Ni4+2 0.127410 0.627410 0.000000 0.215637
O1    O     O_2   0.413882 0.172626 0.915479 -0.601122
O2    O     O_2   0.496038 0.701655 0.031427 -0.542182
O3    O     O_2   0.677472 0.024768 0.778236 -0.599439
O4    O     O_2   0.423546 0.882601 0.156113 -0.560831

loop_
_geom_bond_atom_site_label_1
_geom_bond_atom_site_label_2
_ccdc_geom_bond_type
C12   C79   A    
C65   N15   A    
C75   N7    A    
C72   H37   S    
C27   C29   A    
C1    C77   A    
C14   C18   A    
C76   C79   A    
C19   C31   S    
C80   O1    D    
C8    H34   S    
C73   N5    A    
C15   C19   A    
C57   H18   S    
C71   H36   S    
C54   H20   S    
C19   C21   A    
N13   Ni4   S    
C24   C26   A    
C38   C42   A    
C11   C14   A    
C57   C59   A    
C41   N13   A    
N3    Ni1   S    
C49   C54   A    
C41   C83   S    
C20   H3    S    
C55   H19   S    
C49   C57   A    
C16   N10   A    
C37   C42   A    
C61   C63   A    
C72   C78   A    
C63   H30   S    
C29   C78   S    
C83   H48   S    
C22   C25   A    
C38   H11   S    
C36   C46   A    
C10   C35   A    
C65   C78   A    
N12   Ni3   S    
N15   Ni3   S    
N6    Ni3   S    
C18   C20   A    
C30   C67   S    
C44   H8    S    
C44   C47   A    
C2    H43   S    
C74   H39   S    
N1    N7    A    
C21   H4    S    
C25   H45   S    
C64   H31   S    
N14   Ni4   S    
C9    C33   A    
C76   H41   S    
C13   H51   S    
C23   C73   A    
C5    C68   S    
C52   C54   A    
N2    N13   A    
C84   H42   S    
C40   C45   A    
C46   C48   A    
C50   C53   A    
C6    C84   A    
C7    C33   A    
C45   C69   A    
C75   H40   S    
C64   C67   A    
C40   C82   S    
C62   H29   S    
C4    C6    A    
C27   C80   S    
C11   H50   S    
C62   C66   A    
C39   C43   A    
C46   H7    S    
C80   H44   S    
C3    C5    A    
C58   C59   A    
C23   C37   S    
C50   C56   S    
C83   O4    D    
C64   N14   A    
C51   C53   A    
C8    C35   A    
C12   N9    A    
N8    Ni4   S    
C2    C4    A    
C41   C56   A    
C17   H15   S    
N7    Ni3   S    
C47   C48   A    
N10   Ni2   S    
C45   C49   S    
C70   H35   S    
N1    Ni1   S    
C75   C77   A    
N4    N15   A    
C52   H24   S    
C3    C79   S    
C52   C58   A    
N5    N10   A    
C34   C74   A    
C15   H2    S    
N9    Ni2   S    
C76   N8    A    
N2    Ni1   S    
N16   Ni2   S    
C8    C68   A    
C16   C23   A    
C56   C70   A    
C13   C15   A    
C65   H32   S    
C7    H23   S    
C13   C26   A    
C21   C24   A    
C1    H1    S    
C18   C32   S    
C17   C34   A    
C72   N4    A    
C9    H25   S    
C1    N1    A    
C39   C47   A    
C63   C68   A    
C40   N12   A    
C81   O2    D    
C17   N11   A    
C27   C32   A    
C42   H10   S    
C69   N16   A    
C38   C48   A    
N6    N11   A    
C28   C31   A    
N12   N16   A    
C20   C22   A    
N8    N9    A    
C35   H17   S    
C24   H6    S    
C71   N3    A    
C2    C5    A    
N5    Ni4   S    
C70   N2    A    
N3    N14   A    
C50   C55   A    
C33   H16   S    
C9    C60   A    
C37   C44   A    
C28   C30   A    
C28   C81   S    
C4    C77   S    
C29   C31   A    
C26   H49   S    
C60   C62   A    
C30   C32   A    
C82   O3    D    
C16   H14   S    
C81   H46   S    
C14   H52   S    
C51   H22   S    
C69   H33   S    
C43   H9    S    
C22   H5    S    
C10   H26   S    
C67   C71   A    
C74   N6    A    
N11   Ni1   S    
C39   H13   S    
C10   C61   A    
C53   H21   S    
C6    C66   S    
C51   C59   A    
C34   C36   S    
C73   H38   S    
C55   C58   A    
C3    C84   A    
C60   H27   S    
C11   C25   A    
C12   H12   S    
C36   C43   A    
C82   H47   S    
C61   H28   S    
N4    Ni2   S    
C7    C66   A    
