data_mof_unit_4697.cif
_audit_creation_date              2012-12-10T16:47:50-0500
_audit_creation_method            fapswitch 2.2
_symmetry_space_group_name_H-M    P1
_symmetry_Int_Tables_number       1
_space_group_crystal_system       triclinic
_cell_length_a                    7.794463
_cell_length_b                    8.578197
_cell_length_c                    10.59986
_cell_angle_alpha                 90.921057
_cell_angle_beta                  86.629307
_cell_angle_gamma                 93.13325
_cell_volume                      706.389965129

loop_
_atom_site_label
_atom_site_type_symbol
_atom_type_description
_atom_site_fract_x
_atom_site_fract_y
_atom_site_fract_z
_atom_type_partial_charge
C1    C     C_R   0.545357 0.794501 0.497041 0.926039
C2    C     C_2   0.569709 0.957779 0.496296 -0.317079
C3    C     C_3   0.049972 0.756997 0.653467 0.184747
C4    C     C_3   0.940105 0.849833 0.747763 -0.766818
C5    C     C_2   0.431165 0.042474 0.503840 -0.336103
C6    C     C_R   0.503371 0.498933 0.737463 0.988488
C7    C     C_R   0.454827 0.205578 0.503087 0.986086
C8    C     C_R   0.494422 0.485919 0.262964 0.984101
C9    C     C_2   0.593692 0.372939 0.060239 0.387551
C10   C     C_2   0.477271 0.449721 0.132145 -0.484016
C11   C     C_2   0.578593 0.369675 0.923924 0.388647
C12   C     C_2   0.513092 0.492145 0.870009 -0.446545
Cl1   Cl    Cl    0.765872 0.277344 0.121756 -0.544697
Cl2   Cl    Cl    0.649272 0.205924 0.835173 -0.570223
H1    H     H_    0.359371 0.484982 0.093565 0.155417
H2    H     H_    0.813062 0.867780 0.709640 0.263183
H3    H     H_    0.471149 0.593916 0.922941 0.123221
H4    H     H_    0.701188 0.007819 0.489898 0.189701
H5    H     H_    0.300048 0.992755 0.509758 0.156180
H6    H     H_    0.013245 0.393950 0.397127 0.173204
H7    H     H_    0.067818 0.824730 0.564596 0.128809
H8    H     H_    0.175210 0.742005 0.694814 0.177812
H9    H     H_    0.919876 0.786128 0.838292 0.264169
H10   H     H_    0.005631 0.965568 0.765915 0.241981
N1    N     N_2   0.950320 0.457950 0.466680 -0.071613
N2    N     N_2   0.049680 0.542050 0.533320 0.097218
O1    O     O_R   0.389250 0.738570 0.508180 -0.662220
O2    O     O_R   0.678390 0.711630 0.486820 -0.600038
O3    O     O_R   0.355470 0.513470 0.691600 -0.625534
O4    O     O_R   0.644610 0.486520 0.670240 -0.520182
O5    O     O_R   0.321610 0.288370 0.513180 -0.641917
O6    O     O_R   0.610750 0.261430 0.491820 -0.595315
O7    O     O_R   0.355390 0.513480 0.329760 -0.643468
O8    O     O_R   0.644530 0.486530 0.308400 -0.569310
O9    O     O_3   0.964945 0.611784 0.631152 -0.478859
Zn1   Zn    Zn3+2 0.306940 0.517990 0.514260 0.985587
Zn2   Zn    Zn3+2 0.693060 0.482010 0.485740 1.071798

loop_
_geom_bond_atom_site_label_1
_geom_bond_atom_site_label_2
_ccdc_geom_bond_type
C12   H3    S    
C4    H2    S    
C1    O2    A    
C11   C12   D    
C5    H5    S    
O1    Zn1   S    
C2    H4    S    
O8    Zn2   S    
C9    C10   D    
C3    O9    S    
C8    O7    A    
O7    Zn1   S    
C8    O8    A    
O6    Zn2   S    
C9    C11   S    
O3    Zn1   S    
O2    Zn2   S    
N2    Zn1   S    
C6    O4    A    
C5    C7    S    
C10   H1    S    
C6    C12   S    
C4    H10   S    
C11   Cl2   S    
C3    H7    S    
C2    C5    D    
C7    O5    A    
H6    N1    S    
C3    C4    S    
N2    O9    S    
C6    O3    A    
C8    C10   S    
C1    C2    S    
C1    O1    A    
C4    H9    S    
C9    Cl1   S    
O5    Zn1   S    
C3    H8    S    
C7    O6    A    
N1    Zn2   S    
N1    N2    D    
O4    Zn2   S    
