data_mof_unit_4156.cif
_audit_creation_date              2012-12-11T15:42:46-0500
_audit_creation_method            fapswitch 2.2
_symmetry_space_group_name_H-M    P1
_symmetry_Int_Tables_number       1
_space_group_crystal_system       triclinic
_cell_length_a                    6.927495
_cell_length_b                    14.563228
_cell_length_c                    16.188132
_cell_angle_alpha                 90.420108
_cell_angle_beta                  90.076475
_cell_angle_gamma                 89.876291
_cell_volume                      1633.11791279

loop_
_atom_site_label
_atom_site_type_symbol
_atom_type_description
_atom_site_fract_x
_atom_site_fract_y
_atom_site_fract_z
_atom_type_partial_charge
O1    O     O_R   0.505810 0.583360 0.413880 -0.541066
O2    O     O_R   0.175870 0.595480 0.585520 -0.543373
O3    O     O_R   0.005540 0.416640 0.586120 -0.540917
C1    C     C_R   0.344803 0.617291 0.614855 0.713197
O4    O     O_R   0.176100 0.594390 0.414490 -0.541491
O5    O     O_R   0.005770 0.415540 0.413870 -0.540729
C2    C     C_R   0.343766 0.614270 0.383839 0.691337
O6    O     O_R   0.505580 0.584460 0.586130 -0.540074
O7    O     O_3   0.339190 0.441320 0.500000 -0.370169
V1    V     V_3+5 0.064350 0.510890 0.500000 1.393662
O8    O     O_R   0.676050 0.404520 0.414480 -0.544122
C3    C     C_R   0.845148 0.382098 0.385710 0.691321
O9    O     O_R   0.675830 0.405610 0.585510 -0.540109
C4    C     C_R   0.845238 0.383705 0.613762 0.747040
V2    V     V_3+5 0.564340 0.489110 0.500000 1.396326
O10   O     O_3   0.839370 0.558680 0.500000 -0.371735
C5    C     C_2   0.720147 0.209143 0.785953 -0.129948
C6    C     C_2   0.885398 0.181844 0.822622 -0.314033
H1    H     H_    0.583996 0.180587 0.806681 0.136181
H2    H     H_    0.023188 0.209740 0.803995 0.127209
C7    C     C_2   0.708122 0.277644 0.718029 -0.136865
C8    C     C_2   0.861926 0.315532 0.680604 -0.311243
H3    H     H_    0.563980 0.296833 0.697987 0.134662
H4    H     H_    0.007274 0.297076 0.698737 0.129254
C9    C     C_R   0.047485 0.222914 0.219417 -0.153939
H5    H     H_    0.188407 0.204071 0.195847 0.115995
C10   C     C_R   0.036255 0.286812 0.284283 -0.154104
H6    H     H_    0.169071 0.315436 0.308496 0.117595
C11   C     C_R   0.856428 0.313454 0.317245 -0.049967
C12   C     C_R   0.688119 0.274606 0.283355 -0.158632
H7    H     H_    0.547188 0.293570 0.306844 0.116422
C13   C     C_R   0.699352 0.210636 0.218538 -0.152713
H8    H     H_    0.566515 0.182080 0.194277 0.118391
C14   C     C_R   0.879203 0.183831 0.185695 -0.045373
C15   C     C_R   0.194737 0.735552 0.709832 -0.149808
H9    H     H_    0.058675 0.728888 0.677330 0.142324
C16   C     C_R   0.207440 0.797906 0.775941 -0.202784
H10   H     H_    0.080724 0.837960 0.791756 0.182703
C17   C     C_R   0.380785 0.809154 0.820570 -0.159691
C18   C     C_R   0.541786 0.754299 0.797938 0.417559
C19   C     C_R   0.529398 0.694333 0.729668 -0.235399
H11   H     H_    0.655972 0.654666 0.712731 0.135689
C20   C     C_R   0.356186 0.683713 0.685206 -0.112910
C21   C     C_R   0.195775 0.691568 0.255768 0.148050
C22   C     C_R   0.211945 0.757984 0.193278 -0.184789
H12   H     H_    0.093915 0.767317 0.150087 0.116918
C23   C     C_R   0.379939 0.810333 0.183572 -0.067352
C24   C     C_R   0.534935 0.795731 0.237657 -0.167197
H13   H     H_    0.666739 0.834973 0.231556 0.122205
C25   C     C_R   0.519914 0.732228 0.301810 -0.197292
H14   H     H_    0.640841 0.725033 0.343720 0.125766
C26   C     C_R   0.351191 0.679853 0.313036 -0.061131
O11   O     O_R   0.230120 0.912300 0.917180 -0.544122
O12   O     O_R   0.559740 0.902430 0.088770 -0.544792
O13   O     O_R   0.729930 0.081310 0.089370 -0.543116
C27   C     C_R   0.391004 0.879941 0.117053 0.684732
O14   O     O_R   0.559840 0.901330 0.917750 -0.510544
O15   O     O_R   0.730030 0.080210 0.917120 -0.536777
C28   C     C_R   0.391018 0.878182 0.889307 0.716236
O16   O     O_R   0.230020 0.913400 0.089430 -0.543201
O17   O     O_3   0.396460 0.055470 0.003290 -0.373933
V3    V     V_3+5 0.671360 0.985960 0.003250 1.433006
O18   O     O_R   0.059740 0.091300 0.917690 -0.545248
C29   C     C_R   0.890834 0.113239 0.889474 0.750889
O19   O     O_R   0.059640 0.092400 0.088720 -0.544759
C30   C     C_R   0.890523 0.114901 0.117436 0.679971
V4    V     V_3+5 0.171350 0.007820 0.003190 1.397469
O20   O     O_3   0.896380 0.938200 0.003220 -0.368562
O21   O     O_3   0.714750 0.760548 0.840320 -0.553683
C31   C     C_3   0.719966 0.690638 0.900340 0.107188
H15   H     H_    0.702028 0.621402 0.871530 0.104088
H16   H     H_    0.604557 0.701744 0.947284 0.103040
C32   C     C_3   0.914313 0.692323 0.944260 -0.702893
H17   H     H_    0.938583 0.760430 0.973519 0.236494
H18   H     H_    0.917552 0.639045 0.992982 0.164160
H19   H     H_    0.032079 0.678079 0.899486 0.215240
C33   C     C_3   0.014685 0.632888 0.255440 -0.365684
C34   C     C_3   0.057925 0.534548 0.227616 -0.725198
H20   H     H_    0.120990 0.534411 0.164550 0.216575
H21   H     H_    0.160202 0.500460 0.270365 0.217011
H22   H     H_    0.921814 0.494449 0.226085 0.208897
H23   H     H_    0.942202 0.634117 0.316322 0.196087
H24   H     H_    0.905664 0.661020 0.211880 0.170581

loop_
_geom_bond_atom_site_label_1
_geom_bond_atom_site_label_2
_ccdc_geom_bond_type
O15   V3    S    
C3    C11   S    
C10   C11   A    
C32   H18   S    
C19   H11   S    
C15   H9    S    
C1    O6    A    
C14   C30   S    
O11   C28   A    
O14   V3    S    
C33   C34   S    
C16   H10   S    
C21   C33   S    
C15   C16   A    
C2    C26   S    
O5    C3    A    
C12   H7    S    
C34   H21   S    
O14   C28   A    
C33   H24   S    
V2    O10   S    
O13   V3    S    
C32   H17   S    
O8    V2    S    
O16   V4    S    
O19   V4    S    
C25   C26   A    
C31   H15   S    
O1    V2    S    
C15   C20   A    
O7    V1    S    
C9    C14   A    
C21   C26   A    
C24   C25   A    
O9    C4    A    
C19   C20   A    
O17   V3    S    
C5    C6    D    
O12   C27   A    
C22   C23   A    
O15   C29   A    
O18   V4    S    
C18   O21   S    
V4    O20   S    
C17   C18   A    
O4    C2    A    
C34   H20   S    
O12   V3    S    
C9    H5    S    
C22   H12   S    
C5    C7    S    
C27   O16   A    
C13   C14   A    
O2    C1    A    
C11   C12   A    
O17   V4    S    
C23   C24   A    
C17   C28   S    
C31   C32   S    
C25   H14   S    
O3    C4    A    
C24   H13   S    
O6    V2    S    
O9    V2    S    
C32   H19   S    
C8    H4    S    
O2    V1    S    
O13   C30   A    
C21   C22   A    
C18   C19   A    
O1    C2    A    
O5    V1    S    
O8    C3    A    
C1    C20   S    
C9    C10   A    
V3    O20   S    
C13   H8    S    
C4    C8    S    
C7    H3    S    
O7    V2    S    
O4    V1    S    
C16   C17   A    
O3    V1    S    
V1    O10   S    
C12   C13   A    
C34   H22   S    
C6    C29   S    
C33   H23   S    
C5    H1    S    
C6    H2    S    
O21   C31   S    
O11   V4    S    
O18   C29   A    
O19   C30   A    
C10   H6    S    
C31   H16   S    
C7    C8    D    
C23   C27   S    
