data_mof_unit_3583.cif
_audit_creation_date              2012-12-10T17:58:18-0500
_audit_creation_method            fapswitch 2.2
_symmetry_space_group_name_H-M    P1
_symmetry_Int_Tables_number       1
_space_group_crystal_system       triclinic
_cell_length_a                    9.581019
_cell_length_b                    10.77537
_cell_length_c                    15.501797
_cell_angle_alpha                 88.763495
_cell_angle_beta                  73.817832
_cell_angle_gamma                 90.756966
_cell_volume                      1536.31771796

loop_
_atom_site_label
_atom_site_type_symbol
_atom_type_description
_atom_site_fract_x
_atom_site_fract_y
_atom_site_fract_z
_atom_type_partial_charge
C1    C     C_R   0.000090 0.262526 0.498429 0.850740
C2    C     C_R   0.999910 0.737474 0.501570 0.850738
C3    C     C_R   0.584520 0.527455 0.093618 0.277207
C4    C     C_R   0.415463 0.472428 0.906394 0.277226
C5    C     C_R   0.721920 0.572191 0.046045 -0.197908
C6    C     C_R   0.278071 0.427677 0.953969 -0.197926
C7    C     C_R   0.888094 0.062852 0.559417 -0.193268
C8    C     C_R   0.111907 0.937147 0.440584 -0.193273
C9    C     C_R   0.887429 0.934150 0.562766 0.277369
C10   C     C_R   0.112572 0.065849 0.437235 0.277378
C11   C     C_R   0.000031 0.871295 0.502695 -0.137075
C12   C     C_R   0.999970 0.128705 0.497305 -0.137067
C13   C     C_R   0.547349 0.417182 0.553033 0.522018
C14   C     C_R   0.452652 0.582815 0.446964 0.522000
C15   C     C_R   0.399525 0.417841 0.552894 -0.044275
C16   C     C_R   0.600475 0.582158 0.447105 -0.044295
C17   C     C_R   0.918079 0.506666 0.671722 0.841838
C18   C     C_R   0.081920 0.493330 0.328279 0.841841
C19   C     C_R   0.872357 0.526942 0.768911 -0.128974
C20   C     C_R   0.127638 0.473023 0.231094 -0.128979
C21   C     C_R   0.906077 0.611874 0.905286 -0.192740
C22   C     C_R   0.093922 0.388008 0.094735 -0.192722
C23   C     C_R   0.956119 0.597605 0.812524 0.280697
C24   C     C_R   0.043879 0.402323 0.187494 0.280697
C25   C     C_R   0.733670 0.484630 0.817517 -0.181950
C26   C     C_R   0.266328 0.515312 0.182483 -0.181953
C27   C     C_R   0.671826 0.519381 0.906401 0.107478
C28   C     C_R   0.328167 0.480516 0.093606 0.107494
C29   C     C_R   0.765800 0.570453 0.952728 0.039688
C30   C     C_R   0.234195 0.429424 0.047286 0.039680
C31   C     C_R   0.522523 0.497150 0.952145 -0.028620
C32   C     C_R   0.477464 0.502734 0.047862 -0.028631
Cu1   Cu    Cu3+1 0.140660 0.500020 0.500000 1.077391
Cu2   Cu    Cu3+1 0.859340 0.499980 0.500000 1.077390
H1    H     H_    0.799470 0.597561 0.082287 0.179355
H2    H     H_    0.200521 0.402307 0.917732 0.179360
H3    H     H_    0.324161 0.577843 0.214418 0.219292
H4    H     H_    0.675850 0.422111 0.785569 0.219306
H5    H     H_    0.975112 0.658266 0.939866 0.177052
H6    H     H_    0.024893 0.341587 0.060161 0.177057
H7    H     H_    0.803401 0.111538 0.606962 0.221932
H8    H     H_    0.196600 0.888460 0.393039 0.221932
H9    H     H_    0.322743 0.352234 0.595389 0.181696
H10   H     H_    0.677257 0.647764 0.404610 0.181692
N1    N     N_R   0.352080 0.500030 0.499980 -0.220340
N2    N     N_R   0.647920 0.499970 0.500020 -0.220339
O1    O     O_R   0.118740 0.319660 0.500000 -0.569469
O2    O     O_R   0.881260 0.680340 0.500000 -0.569466
O3    O     O_R   0.881170 0.319630 0.500010 -0.526560
O4    O     O_R   0.118830 0.680370 0.499990 -0.526570
O5    O     O_R   0.055570 0.500030 0.629830 -0.562787
O6    O     O_R   0.944430 0.499970 0.370170 -0.562794
O7    O     O_R   0.818000 0.500000 0.629840 -0.522434
O8    O     O_R   0.182000 0.500000 0.370160 -0.522426
Br1   Br    Br    0.868734 0.314289 0.250962 -0.379521
Br2   Br    Br    0.131277 0.685640 0.749074 -0.379516
Br3   Br    Br    0.568470 0.474191 0.215369 -0.411299
Br4   Br    Br    0.431513 0.525693 0.784645 -0.411329
Br5   Br    Br    0.735761 0.849524 0.653749 -0.378452
Br6   Br    Br    0.264239 0.150474 0.346255 -0.378441
Cl1   Cl    Cl    0.595896 0.306663 0.623625 -0.578066
Cl2   Cl    Cl    0.404108 0.693324 0.376364 -0.578076

loop_
_geom_bond_atom_site_label_1
_geom_bond_atom_site_label_2
_ccdc_geom_bond_type
C10   Br6   S    
C26   H3    S    
Cu2   N2    S    
C17   O7    A    
C25   H4    S    
Cu1   O5    S    
Cu1   N1    S    
C16   H10   S    
C26   C28   A    
C31   C32   A    
C21   H5    S    
C3    C5    A    
C22   H6    S    
C17   O5    A    
C28   C30   A    
Cu1   Cu2   S    
C15   H9    S    
C23   Br2   S    
C24   Br1   S    
C9    C11   A    
C13   N2    A    
C1    C12   S    
C20   C26   A    
Cu2   O7    S    
C8    C11   A    
C19   C25   A    
C2    C11   S    
C10   C12   A    
C22   C24   A    
C8    C10   A    
C17   C19   S    
C8    H8    S    
C14   N1    A    
C5    C29   A    
C13   C15   A    
C21   C23   A    
C3    C32   A    
Cu1   O1    S    
C14   C16   A    
C7    C12   A    
C4    C31   A    
Cu2   O2    S    
C15   N1    A    
C4    Br4   S    
C18   O6    A    
C14   Cl2   S    
C3    Br3   S    
C2    O4    A    
C28   C32   A    
C13   Cl1   S    
C27   C29   A    
C27   C31   A    
C18   C20   S    
C4    C6    A    
C16   N2    A    
Cu1   O8    S    
C7    C9    A    
C18   O8    A    
C19   C23   A    
C1    O1    A    
Cu2   O3    S    
Cu2   O6    S    
C22   C30   A    
C2    O2    A    
Cu1   O4    S    
C21   C29   A    
C5    H1    S    
C6    C30   A    
C20   C24   A    
C7    H7    S    
C6    H2    S    
C9    Br5   S    
C25   C27   A    
C1    O3    A    
