data_mof_unit_1605.cif
_audit_creation_date              2012-12-10T17:00:02-0500
_audit_creation_method            fapswitch 2.2
_symmetry_space_group_name_H-M    P1
_symmetry_Int_Tables_number       1
_space_group_crystal_system       triclinic
_cell_length_a                    15.082507
_cell_length_b                    15.185748
_cell_length_c                    10.02122
_cell_angle_alpha                 90.438411
_cell_angle_beta                  89.559217
_cell_angle_gamma                 90.113318
_cell_volume                      2295.11237932

loop_
_atom_site_label
_atom_site_type_symbol
_atom_type_description
_atom_site_fract_x
_atom_site_fract_y
_atom_site_fract_z
_atom_type_partial_charge
C1    C     C_R   0.380945 0.881526 0.499762 0.936225
C2    C     C_2   0.686536 0.247261 0.392931 0.516353
C3    C     C_2   0.238066 0.300997 0.385307 0.516931
C4    C     C_2   0.186553 0.747244 0.392901 0.516416
C5    C     C_2   0.699803 0.830994 0.498240 -0.430673
C6    C     C_2   0.666840 0.200972 0.502854 -0.467204
C7    C     C_2   0.199797 0.330987 0.498235 -0.430670
C8    C     C_2   0.166833 0.700979 0.502840 -0.467040
C9    C     C_2   0.312100 0.240514 0.398584 -0.309699
C10   C     C_2   0.254194 0.815403 0.400400 -0.257319
C11   C     C_2   0.812122 0.740534 0.398602 -0.309611
C12   C     C_R   0.381412 0.118809 0.500431 0.934783
C13   C     C_2   0.754182 0.315414 0.400422 -0.257180
C14   C     C_2   0.314291 0.183770 0.499579 -0.385607
C15   C     C_2   0.313889 0.816183 0.498477 -0.391327
C16   C     C_2   0.814296 0.683776 0.499579 -0.385594
C17   C     C_2   0.813894 0.316179 0.498475 -0.391384
C18   C     C_2   0.572878 0.007405 0.922663 0.601056
C19   C     C_2   0.072879 0.507405 0.922662 0.601017
C20   C     C_2   0.568721 0.022401 0.074373 -0.207997
C21   C     C_2   0.068721 0.522400 0.074373 -0.207980
C22   C     C_3   0.708523 0.762363 0.165913 0.100557
C23   C     C_R   0.880946 0.381526 0.499761 0.936211
C24   C     C_3   0.657406 0.792993 0.044697 -0.802211
C25   C     C_3   0.581530 0.287741 0.244100 0.087460
C26   C     C_3   0.528940 0.256322 0.123807 -0.792560
C27   C     C_3   0.208476 0.262335 0.165917 0.100566
C28   C     C_3   0.157346 0.292964 0.044711 -0.802254
C29   C     C_3   0.081761 0.787776 0.243732 0.087190
C30   C     C_3   0.029061 0.756185 0.123651 -0.792355
C31   C     C_3   0.721411 0.048431 0.906730 0.056080
C32   C     C_3   0.796334 0.053023 0.804516 -0.799358
C33   C     C_3   0.221424 0.548401 0.906760 0.056054
C34   C     C_R   0.881413 0.618811 0.500431 0.934827
C35   C     C_3   0.296349 0.553002 0.804550 -0.799332
C36   C     C_3   0.354543 0.988681 0.878510 0.214804
C37   C     C_3   0.280200 0.013062 0.975560 -0.949175
C38   C     C_3   0.854543 0.488685 0.878511 0.214763
C39   C     C_3   0.780200 0.513072 0.975558 -0.949082
C40   C     C_R   0.614381 0.122802 0.500142 0.948874
C41   C     C_R   0.622317 0.884838 0.499109 0.954103
C42   C     C_R   0.114382 0.622802 0.500140 0.948939
C43   C     C_R   0.122315 0.384837 0.499108 0.954095
C44   C     C_2   0.738085 0.801015 0.385316 0.516916
H1    H     H_    0.362601 0.239392 0.320625 0.176447
H2    H     H_    0.776401 0.743939 0.131957 0.148284
H3    H     H_    0.692341 0.849367 0.997915 0.273084
H4    H     H_    0.652649 0.738532 0.970492 0.200465
H5    H     H_    0.589466 0.813610 0.074770 0.249720
H6    H     H_    0.610074 0.353604 0.221198 0.130392
H7    H     H_    0.534513 0.293825 0.330231 0.129836
H8    H     H_    0.495452 0.193017 0.146785 0.274915
H9    H     H_    0.477658 0.305792 0.098848 0.201766
H10   H     H_    0.573741 0.246992 0.036362 0.247769
H11   H     H_    0.173931 0.203375 0.207135 0.140025
H12   H     H_    0.257729 0.863105 0.320151 0.168766
H13   H     H_    0.276348 0.243902 0.131942 0.148285
H14   H     H_    0.192280 0.349332 0.997911 0.273071
H15   H     H_    0.152574 0.238499 0.970514 0.200467
H16   H     H_    0.089412 0.313590 0.074802 0.249723
H17   H     H_    0.110485 0.853497 0.220419 0.130495
H18   H     H_    0.034776 0.794216 0.329847 0.129782
H19   H     H_    0.995397 0.693035 0.147035 0.274865
H20   H     H_    0.977918 0.805730 0.098406 0.201755
H21   H     H_    0.073816 0.746493 0.036241 0.247743
H22   H     H_    0.726656 0.816441 0.595857 0.138031
H23   H     H_    0.862637 0.739425 0.320663 0.176418
H24   H     H_    0.686799 0.222720 0.601456 0.123453
H25   H     H_    0.226657 0.316440 0.595849 0.138021
H26   H     H_    0.186762 0.722756 0.601443 0.123406
H27   H     H_    0.264547 0.181151 0.578248 0.145329
H28   H     H_    0.316030 0.768542 0.578233 0.144154
H29   H     H_    0.764539 0.681147 0.578229 0.145305
H30   H     H_    0.816051 0.268527 0.578214 0.144164
H31   H     H_    0.748338 0.018945 0.999192 0.156061
H32   H     H_    0.698172 0.116979 0.926933 0.142995
H33   H     H_    0.772098 0.082590 0.710617 0.253044
H34   H     H_    0.757696 0.363130 0.320189 0.168830
H35   H     H_    0.851188 0.094253 0.844117 0.201099
H36   H     H_    0.821920 0.985853 0.782683 0.253736
H37   H     H_    0.248340 0.518881 0.999203 0.156088
H38   H     H_    0.198203 0.616950 0.927005 0.142945
H39   H     H_    0.272123 0.582612 0.710676 0.253025
H40   H     H_    0.351217 0.594199 0.844185 0.201105
H41   H     H_    0.321910 0.485831 0.782662 0.253742
H42   H     H_    0.368030 0.916829 0.888258 0.113086
H43   H     H_    0.330605 0.002748 0.776900 0.192609
H44   H     H_    0.264484 0.084252 0.967337 0.263046
H45   H     H_    0.625339 0.050541 0.125058 0.181712
H46   H     H_    0.219822 0.974162 0.951928 0.217564
H47   H     H_    0.300022 0.998862 0.079657 0.256519
H48   H     H_    0.868028 0.416833 0.888265 0.113089
H49   H     H_    0.830607 0.502749 0.776900 0.192607
H50   H     H_    0.764487 0.584262 0.967329 0.263030
H51   H     H_    0.719821 0.474173 0.951927 0.217585
H52   H     H_    0.800021 0.498874 0.079656 0.256530
H53   H     H_    0.125340 0.550538 0.125059 0.181745
H54   H     H_    0.454621 0.960344 0.103641 0.196572
H55   H     H_    0.954620 0.460346 0.103641 0.196572
H56   H     H_    0.673979 0.703396 0.207113 0.140029
N1    N     N_2   0.501330 0.000000 0.852150 0.022481
N2    N     N_2   0.001330 0.500000 0.852150 0.022491
N3    N     N_2   0.501360 0.000000 0.147810 -0.188616
N4    N     N_2   0.001360 0.500000 0.147810 -0.188600
O1    O     O_R   0.409520 0.909540 0.613040 -0.664225
O2    O     O_R   0.590440 0.909540 0.613100 -0.592028
O3    O     O_R   0.090440 0.590460 0.613100 -0.596581
O4    O     O_R   0.090440 0.409540 0.613100 -0.592029
O5    O     O_R   0.590480 0.090460 0.386960 -0.561321
O6    O     O_R   0.590480 0.909540 0.386960 -0.553724
O7    O     O_R   0.090480 0.590460 0.386960 -0.561278
O8    O     O_R   0.090480 0.409540 0.386960 -0.553723
O9    O     O_3   0.712123 0.831707 0.260748 -0.584709
O10   O     O_3   0.649822 0.226866 0.270075 -0.591214
O11   O     O_3   0.212097 0.331684 0.260740 -0.584712
O12   O     O_R   0.409520 0.090460 0.613040 -0.614983
O13   O     O_3   0.149894 0.726787 0.270028 -0.591201
O14   O     O_3   0.652995 0.994879 0.855295 -0.614168
O15   O     O_3   0.152994 0.494881 0.855288 -0.614154
O16   O     O_3   0.429956 0.039978 0.907756 -0.582008
O17   O     O_3   0.929957 0.539980 0.907756 -0.581991
O18   O     O_R   0.909520 0.409540 0.613040 -0.664219
O19   O     O_R   0.909520 0.590460 0.613040 -0.614982
O20   O     O_R   0.409560 0.909540 0.386900 -0.617796
O21   O     O_R   0.409560 0.090460 0.386900 -0.618198
O22   O     O_R   0.909560 0.409540 0.386900 -0.617794
O23   O     O_R   0.909560 0.590460 0.386900 -0.618228
O24   O     O_R   0.590440 0.090460 0.613100 -0.596571
Zn1   Zn    Zn3+2 0.499970 0.000000 0.650990 0.994321
Zn2   Zn    Zn3+2 0.999970 0.500000 0.650990 0.994324
Zn3   Zn    Zn3+2 0.500030 0.000000 0.349010 0.967958
Zn4   Zn    Zn3+2 0.000030 0.500000 0.349010 0.967966

loop_
_geom_bond_atom_site_label_1
_geom_bond_atom_site_label_2
_ccdc_geom_bond_type
O2    Zn1   S    
C9    H1    S    
C34   O19   A    
C30   H20   S    
C2    O10   S    
C14   H27   S    
C30   H21   S    
C37   H44   S    
C42   O7    A    
O24   Zn1   S    
C31   O14   S    
C20   N3    D    
C15   H28   S    
C17   C23   S    
C37   H46   S    
C36   C37   S    
C19   C21   S    
C8    C42   S    
C3    C7    D    
C10   C15   D    
C38   C39   S    
C19   N2    D    
C27   H11   S    
H54   N3    S    
C40   O24   A    
C38   H48   S    
C18   C20   S    
C2    C13   S    
C25   H6    S    
C16   C34   S    
C32   H33   S    
O23   Zn4   S    
C21   N4    D    
C22   O9    S    
C27   O11   S    
O12   Zn1   S    
C34   O23   A    
O5    Zn3   S    
C1    C15   S    
C7    C43   S    
N2    O17   S    
C10   H12   S    
C42   O3    A    
C18   O14   S    
O4    Zn2   S    
C4    C8    D    
C6    H24   S    
H55   N4    S    
C19   O15   S    
C30   H19   S    
N1    O16   S    
C2    C6    D    
O3    Zn2   S    
C26   H10   S    
C11   H23   S    
C23   O18   A    
C28   H16   S    
C36   H43   S    
C29   H17   S    
C22   H56   S    
C41   O2    A    
C37   H47   S    
C16   H29   S    
C24   H4    S    
O6    Zn3   S    
C27   H13   S    
C35   H39   S    
O1    Zn1   S    
C12   O21   A    
C36   H42   S    
C25   C26   S    
C29   O13   S    
O20   Zn3   S    
C18   N1    D    
C9    C14   D    
C25   H7    S    
C39   H50   S    
C29   C30   S    
C3    C9    S    
C26   H8    S    
C32   H36   S    
C21   H53   S    
C11   C16   D    
O21   Zn3   S    
C31   H31   S    
C31   C32   S    
O22   Zn4   S    
C11   C44   S    
O8    Zn4   S    
C39   H51   S    
C23   O22   A    
C22   H2    S    
C5    C44   D    
C12   C14   S    
C44   O9    S    
C33   O15   S    
C41   O6    A    
O19   Zn2   S    
C17   H30   S    
C22   C24   S    
C4    O13   S    
C43   O8    A    
C4    C10   S    
C26   H9    S    
C33   H38   S    
C28   H15   S    
C24   H5    S    
C5    C41   S    
C29   H18   S    
C24   H3    S    
N2    Zn2   S    
C5    H22   S    
C7    H25   S    
C35   H40   S    
C40   O5    A    
C28   H14   S    
C20   H45   S    
C8    H26   S    
C13   C17   D    
C1    O20   A    
C3    O11   S    
C25   O10   S    
C32   H35   S    
C35   H41   S    
C31   H32   S    
N3    Zn3   S    
C38   H49   S    
C33   C35   S    
C6    C40   S    
C43   O4    A    
C36   O16   S    
C39   H52   S    
C38   O17   S    
C13   H34   S    
O7    Zn4   S    
N4    Zn4   S    
C27   C28   S    
C33   H37   S    
O18   Zn2   S    
C1    O1    A    
C12   O12   A    
N1    Zn1   S    
