data_mof_unit_1022.cif
_audit_creation_date              2012-12-11T16:19:02-0500
_audit_creation_method            fapswitch 2.2
_symmetry_space_group_name_H-M    P1
_symmetry_Int_Tables_number       1
_space_group_crystal_system       triclinic
_cell_length_a                    6.995163
_cell_length_b                    31.266695
_cell_length_c                    34.990077
_cell_angle_alpha                 89.999952
_cell_angle_beta                  90.000059
_cell_angle_gamma                 90.000064
_cell_volume                      7652.87666468

loop_
_atom_site_label
_atom_site_type_symbol
_atom_type_description
_atom_site_fract_x
_atom_site_fract_y
_atom_site_fract_z
_atom_type_partial_charge
O1    O     O_R   0.417270 0.211480 0.210950 -0.536677
O2    O     O_R   0.582730 0.788520 0.789050 -0.538531
O3    O     O_R   0.582730 0.788520 0.710950 -0.536677
O4    O     O_R   0.417270 0.211480 0.289050 -0.538531
O5    O     O_R   0.917270 0.288520 0.289050 -0.536677
O6    O     O_R   0.082730 0.711480 0.710950 -0.538531
O7    O     O_R   0.082730 0.711480 0.789050 -0.536676
O8    O     O_R   0.917270 0.288520 0.210950 -0.538531
O9    O     O_R   0.746940 0.206370 0.288750 -0.538735
O10   O     O_R   0.253060 0.793630 0.711250 -0.537979
O11   O     O_R   0.253060 0.793630 0.788750 -0.538736
O12   O     O_R   0.746940 0.206370 0.211250 -0.537978
O13   O     O_R   0.246940 0.293630 0.211250 -0.538736
O14   O     O_R   0.753060 0.706370 0.788750 -0.537978
O15   O     O_R   0.753060 0.706370 0.711250 -0.538735
O16   O     O_R   0.246940 0.293630 0.288750 -0.537979
C1    C     C_R   0.578218 0.195883 0.301705 0.719082
C2    C     C_R   0.422207 0.804276 0.698453 0.717085
C3    C     C_R   0.421782 0.804117 0.801705 0.719081
C4    C     C_R   0.577793 0.195724 0.198453 0.717083
C5    C     C_R   0.078218 0.304116 0.198295 0.719080
C6    C     C_R   0.922207 0.695724 0.801548 0.717083
C7    C     C_R   0.921782 0.695883 0.698295 0.719081
C8    C     C_R   0.077793 0.304276 0.301547 0.717086
O17   O     O_3   0.583760 0.276950 0.250000 -0.368358
O18   O     O_3   0.416240 0.723050 0.750000 -0.368357
O19   O     O_3   0.083760 0.223050 0.250000 -0.368356
O20   O     O_3   0.916240 0.776950 0.750000 -0.368358
V1    V     V_3+5 0.858600 0.245000 0.250000 1.413364
V2    V     V_3+5 0.141400 0.755000 0.750000 1.413362
V3    V     V_3+5 0.358600 0.255000 0.250000 1.413363
V4    V     V_3+5 0.641400 0.745000 0.750000 1.413363
C9    C     C_R   0.889091 0.587629 0.537693 0.550482
C10   C     C_R   0.939762 0.413977 0.458127 0.550672
C11   C     C_R   0.110913 0.412368 0.037691 0.550483
C12   C     C_R   0.060247 0.586019 0.958122 0.550663
C13   C     C_R   0.389094 0.912371 0.962307 0.550477
C14   C     C_R   0.439765 0.086022 0.041875 0.550653
C15   C     C_R   0.610917 0.087624 0.462302 0.550457
C16   C     C_R   0.560240 0.913974 0.541872 0.550668
N1    N     N_R   0.920057 0.573490 0.574391 -0.531604
N2    N     N_R   0.983706 0.428814 0.422184 -0.545099
N3    N     N_R   0.079950 0.426508 0.074389 -0.531603
N4    N     N_R   0.016295 0.571180 0.922180 -0.545095
N5    N     N_R   0.420057 0.926510 0.925609 -0.531602
N6    N     N_R   0.483719 0.071183 0.077817 -0.545093
N7    N     N_R   0.579933 0.073484 0.425604 -0.531590
N8    N     N_R   0.516303 0.928813 0.577815 -0.545098
C17   C     C_R   0.943343 0.530450 0.581419 0.611084
C18   C     C_R   0.999140 0.472088 0.415614 0.541894
C19   C     C_R   0.056668 0.469548 0.081416 0.611086
C20   C     C_R   0.000856 0.527906 0.915611 0.541907
C21   C     C_R   0.443340 0.969550 0.918582 0.611089
C22   C     C_R   0.499160 0.027909 0.084386 0.541929
C23   C     C_R   0.556638 0.030445 0.418578 0.611108
C24   C     C_R   0.500876 0.972087 0.584383 0.541901
C25   C     C_R   0.933600 0.500514 0.551360 -0.035760
C26   C     C_R   0.963811 0.501656 0.445199 -0.021250
C27   C     C_R   0.066412 0.499484 0.051357 -0.035760
C28   C     C_R   0.036188 0.498339 0.945196 -0.021252
C29   C     C_R   0.433596 0.999486 0.948640 -0.035760
C30   C     C_R   0.463825 0.998342 0.054801 -0.021260
C31   C     C_R   0.566389 0.000509 0.448637 -0.035756
C32   C     C_R   0.536209 0.001654 0.554798 -0.021254
C33   C     C_R   0.928007 0.515512 0.513540 -0.017686
C34   C     C_R   0.942212 0.486411 0.482725 -0.017869
C35   C     C_R   0.072001 0.484485 0.013537 -0.017689
C36   C     C_R   0.057795 0.513585 0.982722 -0.017872
C37   C     C_R   0.428008 0.984488 0.986460 -0.017680
C38   C     C_R   0.442215 0.013588 0.017276 -0.017897
C39   C     C_R   0.572000 0.015508 0.486456 -0.017698
C40   C     C_R   0.557799 0.986408 0.517273 -0.017873
C41   C     C_R   0.909561 0.559531 0.506465 -0.043802
C42   C     C_R   0.935466 0.442156 0.489534 -0.041915
C43   C     C_R   0.090442 0.440466 0.006462 -0.043803
C44   C     C_R   0.064547 0.557840 0.989530 -0.041903
C45   C     C_R   0.409566 0.940468 0.993535 -0.043804
C46   C     C_R   0.435464 0.057843 0.010467 -0.041918
C47   C     C_R   0.590457 0.059527 0.493531 -0.043834
C48   C     C_R   0.564535 0.942153 0.510464 -0.041917
C49   C     C_R   0.933184 0.456133 0.558040 -0.134019
C50   C     C_R   0.950795 0.545904 0.438369 -0.139572
C51   C     C_R   0.066834 0.543864 0.058037 -0.134018
C52   C     C_R   0.049199 0.454091 0.938367 -0.139576
C53   C     C_R   0.433175 0.043867 0.941961 -0.134025
C54   C     C_R   0.450813 0.954094 0.061631 -0.139571
C55   C     C_R   0.566797 0.956128 0.441957 -0.134023
C56   C     C_R   0.549235 0.045902 0.561627 -0.139577
C57   C     C_R   0.926922 0.427288 0.527431 -0.167547
C58   C     C_R   0.916517 0.574372 0.468530 -0.169627
C59   C     C_R   0.073097 0.572709 0.027427 -0.167549
C60   C     C_R   0.083480 0.425624 0.968529 -0.169625
C61   C     C_R   0.426912 0.072712 0.972570 -0.167514
C62   C     C_R   0.416530 0.925627 0.031469 -0.169620
C63   C     C_R   0.573066 0.927283 0.472567 -0.167536
C64   C     C_R   0.583512 0.074369 0.531465 -0.169591
O21   O     O_2   0.837899 0.628574 0.531313 -0.547975
O22   O     O_2   0.899793 0.372205 0.463533 -0.543281
O23   O     O_2   0.162102 0.371423 0.031312 -0.547974
O24   O     O_2   0.100220 0.627790 0.963527 -0.543280
O25   O     O_2   0.337904 0.871425 0.968686 -0.547973
O26   O     O_2   0.399791 0.127793 0.036470 -0.543272
O27   O     O_2   0.662117 0.128569 0.468679 -0.547962
O28   O     O_2   0.600203 0.872202 0.536466 -0.543278
O29   O     O_2   0.979023 0.516575 0.617209 -0.522388
O30   O     O_2   0.046743 0.486497 0.380547 -0.528655
O31   O     O_2   0.020990 0.483424 0.117206 -0.522387
O32   O     O_2   0.953244 0.513497 0.880544 -0.528658
O33   O     O_2   0.479018 0.983426 0.882791 -0.522388
O34   O     O_2   0.546773 0.013500 0.119453 -0.528660
O35   O     O_2   0.520942 0.016569 0.382788 -0.522393
O36   O     O_2   0.453276 0.986497 0.619451 -0.528655
H1    H     H_    0.934275 0.443601 0.586892 0.170041
H2    H     H_    0.963362 0.558553 0.409666 0.169842
H3    H     H_    0.065748 0.556397 0.086888 0.170040
H4    H     H_    0.036626 0.441442 0.909665 0.169842
H5    H     H_    0.434261 0.056399 0.913109 0.170039
H6    H     H_    0.463388 0.941445 0.090333 0.169840
H7    H     H_    0.565694 0.943595 0.413106 0.170039
H8    H     H_    0.536675 0.058551 0.590329 0.169841
H9    H     H_    0.923227 0.393344 0.533540 0.168824
H10   H     H_    0.904323 0.608176 0.462244 0.168635
H11   H     H_    0.076796 0.606653 0.033535 0.168822
H12   H     H_    0.095670 0.391819 0.962243 0.168636
H13   H     H_    0.423214 0.106656 0.966462 0.168822
H14   H     H_    0.404340 0.891822 0.037755 0.168635
H15   H     H_    0.576754 0.893339 0.466459 0.168823
H16   H     H_    0.595713 0.108173 0.537750 0.168638
C65   C     C_R   0.887834 0.397768 0.358999 0.209066
C66   C     C_R   0.794324 0.600559 0.636311 0.195635
C67   C     C_R   0.112159 0.602227 0.858994 0.209056
C68   C     C_R   0.205679 0.399440 0.136310 0.195634
C69   C     C_R   0.387850 0.102228 0.141003 0.209044
C70   C     C_R   0.294327 0.899442 0.863688 0.195630
C71   C     C_R   0.612170 0.897768 0.641001 0.209064
C72   C     C_R   0.705655 0.100552 0.363683 0.195614
C73   C     C_R   0.912671 0.366944 0.330430 -0.189061
C74   C     C_R   0.794859 0.630523 0.666116 -0.256833
C75   C     C_R   0.087324 0.633053 0.830427 -0.189059
C76   C     C_R   0.205142 0.369476 0.166116 -0.256832
C77   C     C_R   0.412682 0.133053 0.169571 -0.189051
C78   C     C_R   0.294861 0.869477 0.833883 -0.256835
C79   C     C_R   0.587332 0.866944 0.669570 -0.189062
C80   C     C_R   0.705127 0.130520 0.333879 -0.256840
H17   H     H_    0.812513 0.366118 0.306791 0.148307
H18   H     H_    0.689327 0.627741 0.688663 0.140485
H19   H     H_    0.187478 0.633880 0.806788 0.148307
H20   H     H_    0.310673 0.372258 0.188662 0.140484
H21   H     H_    0.312530 0.133878 0.193212 0.148307
H22   H     H_    0.189331 0.872259 0.811336 0.140484
H23   H     H_    0.687489 0.866117 0.693209 0.148307
H24   H     H_    0.810651 0.127737 0.311332 0.140485
C81   C     C_R   0.063604 0.337664 0.331544 -0.120483
C82   C     C_R   0.929824 0.663461 0.667344 -0.091621
C83   C     C_R   0.936396 0.662335 0.831543 -0.120481
C84   C     C_R   0.070176 0.336539 0.167343 -0.091622
C85   C     C_R   0.563605 0.162337 0.168456 -0.120483
C86   C     C_R   0.429825 0.836539 0.832656 -0.091621
C87   C     C_R   0.436397 0.837663 0.668456 -0.120483
C88   C     C_R   0.570175 0.163460 0.332655 -0.091621
C89   C     C_R   0.193649 0.339517 0.361904 -0.212502
C90   C     C_R   0.068499 0.665850 0.638481 -0.226093
C91   C     C_R   0.806355 0.660481 0.861904 -0.212506
C92   C     C_R   0.931502 0.334150 0.138481 -0.226092
C93   C     C_R   0.693645 0.160484 0.138095 -0.212508
C94   C     C_R   0.568499 0.834151 0.861519 -0.226090
C95   C     C_R   0.306352 0.839517 0.638096 -0.212503
C96   C     C_R   0.431506 0.165849 0.361519 -0.226084
H25   H     H_    0.310284 0.316718 0.362725 0.128972
H26   H     H_    0.172880 0.691438 0.639548 0.128342
H27   H     H_    0.689722 0.683280 0.862728 0.128971
H28   H     H_    0.827119 0.308561 0.139547 0.128341
H29   H     H_    0.810276 0.183284 0.137272 0.128971
H30   H     H_    0.672881 0.808562 0.860452 0.128341
H31   H     H_    0.189714 0.816719 0.637275 0.128972
H32   H     H_    0.327130 0.191439 0.360455 0.128340
C97   C     C_R   0.169797 0.369045 0.392074 0.095598
C98   C     C_R   0.068900 0.637020 0.607394 0.067992
C99   C     C_R   0.830204 0.630949 0.892072 0.095601
C100  C     C_R   0.931102 0.362979 0.107393 0.067993
C101  C     C_R   0.669800 0.130954 0.107926 0.095606
C102  C     C_R   0.568902 0.862981 0.892606 0.067996
C103  C     C_R   0.330205 0.869045 0.607926 0.095600
C104  C     C_R   0.431098 0.137016 0.392604 0.068006
C105  C     C_R   0.013727 0.398618 0.391065 0.318933
C106  C     C_R   0.927508 0.603943 0.605887 0.360566
C107  C     C_R   0.986272 0.601376 0.891061 0.318937
C108  C     C_R   0.072496 0.396056 0.105886 0.360565
C109  C     C_R   0.513737 0.101379 0.108936 0.318927
C110  C     C_R   0.427510 0.896058 0.894112 0.360563
C111  C     C_R   0.486278 0.898618 0.608935 0.318930
C112  C     C_R   0.572480 0.103937 0.394108 0.360561
N9    N     N_3   0.730320 0.426911 0.354416 -0.664664
H33   H     H_    0.712410 0.447019 0.377824 0.241101
H34   H     H_    0.760849 0.446528 0.331002 0.260865
N10   N     N_3   0.657474 0.566428 0.637140 -0.638135
H35   H     H_    0.521745 0.579484 0.641607 0.216462
H36   H     H_    0.687542 0.547518 0.661039 0.266728
N11   N     N_3   0.269666 0.573083 0.854409 -0.664669
H37   H     H_    0.287573 0.552972 0.877815 0.241107
H38   H     H_    0.239129 0.553468 0.830994 0.260862
N12   N     N_3   0.342530 0.433570 0.137139 -0.638135
H39   H     H_    0.478258 0.420514 0.141606 0.216461
H40   H     H_    0.312462 0.452481 0.161037 0.266728
N13   N     N_3   0.230350 0.073082 0.145588 -0.664672
H41   H     H_    0.212428 0.052977 0.122179 0.241098
H42   H     H_    0.260905 0.053462 0.168999 0.260873
N14   N     N_3   0.157479 0.933573 0.862859 -0.638133
H43   H     H_    0.021750 0.920517 0.858391 0.216460
H44   H     H_    0.187551 0.952482 0.838959 0.266728
N15   N     N_3   0.769686 0.926910 0.645584 -0.664670
H45   H     H_    0.787592 0.947020 0.622178 0.241105
H46   H     H_    0.739163 0.946526 0.668999 0.260862
N16   N     N_3   0.842489 0.066419 0.362851 -0.638128
H47   H     H_    0.978222 0.079472 0.358383 0.216455
H48   H     H_    0.812404 0.047511 0.338951 0.266726
C113  C     C_3   0.309397 0.366943 0.425403 -0.321759
C114  C     C_3   0.431928 0.407527 0.429406 -0.301216
C115  C     C_3   0.455812 0.421342 0.470989 -0.721603
H49   H     H_    0.315646 0.428225 0.484215 0.227749
H50   H     H_    0.528355 0.395862 0.487671 0.254330
H51   H     H_    0.542632 0.451002 0.472218 0.216967
H52   H     H_    0.575719 0.400336 0.417975 0.225556
H53   H     H_    0.372281 0.434685 0.412799 0.221281
H54   H     H_    0.232226 0.359709 0.452183 0.220595
H55   H     H_    0.408211 0.339327 0.421921 0.161464
C116  C     C_3   0.215615 0.644347 0.575808 -0.347894
C117  C     C_3   0.352272 0.606434 0.569415 -0.313051
C118  C     C_3   0.398157 0.599878 0.527142 -0.676736
H56   H     H_    0.266780 0.593346 0.510588 0.218756
H57   H     H_    0.467793 0.628853 0.515213 0.257851
H58   H     H_    0.495241 0.572069 0.523794 0.220501
H59   H     H_    0.488551 0.613419 0.584230 0.223008
H60   H     H_    0.294432 0.576185 0.581261 0.213278
H61   H     H_    0.142174 0.653350 0.549061 0.229853
H62   H     H_    0.305017 0.672838 0.582398 0.158749
C119  C     C_3   0.690598 0.633045 0.925401 -0.321750
C120  C     C_3   0.568063 0.592461 0.929396 -0.301204
C121  C     C_3   0.544179 0.578634 0.970977 -0.721621
H63   H     H_    0.684344 0.571754 0.984203 0.227749
H64   H     H_    0.471610 0.604107 0.987664 0.254327
H65   H     H_    0.457398 0.548968 0.972199 0.216964
H66   H     H_    0.424274 0.599655 0.917968 0.225556
H67   H     H_    0.627697 0.565307 0.912782 0.221284
H68   H     H_    0.767760 0.640275 0.952183 0.220584
H69   H     H_    0.591789 0.660662 0.921922 0.161465
C122  C     C_3   0.784386 0.355652 0.075808 -0.347894
C123  C     C_3   0.647730 0.393565 0.069415 -0.313051
C124  C     C_3   0.601846 0.400122 0.027141 -0.676742
H70   H     H_    0.733223 0.406654 0.010588 0.218757
H71   H     H_    0.532208 0.371148 0.015212 0.257852
H72   H     H_    0.504764 0.427932 0.023793 0.220500
H73   H     H_    0.511451 0.386581 0.084228 0.223008
H74   H     H_    0.705572 0.423814 0.081261 0.213280
H75   H     H_    0.857824 0.346649 0.049060 0.229854
H76   H     H_    0.694983 0.327161 0.082397 0.158749
C125  C     C_3   0.809413 0.133050 0.074599 -0.321752
C126  C     C_3   0.931972 0.092469 0.070610 -0.301208
C127  C     C_3   0.955823 0.078628 0.029034 -0.721595
H77   H     H_    0.815651 0.071727 0.015818 0.227742
H78   H     H_    0.028314 0.104102 0.012334 0.254310
H79   H     H_    0.042671 0.048972 0.027816 0.216958
H80   H     H_    0.075769 0.099673 0.082031 0.225559
H81   H     H_    0.872367 0.065319 0.087234 0.221296
H82   H     H_    0.732256 0.140274 0.047815 0.220587
H83   H     H_    0.908205 0.160671 0.078077 0.161454
C128  C     C_3   0.715620 0.855655 0.924191 -0.347892
C129  C     C_3   0.852279 0.893568 0.930581 -0.313053
C130  C     C_3   0.898162 0.900129 0.972853 -0.676742
H84   H     H_    0.766786 0.906664 0.989406 0.218756
H85   H     H_    0.967798 0.871156 0.984785 0.257852
H86   H     H_    0.995247 0.927939 0.976199 0.220499
H87   H     H_    0.988559 0.886581 0.915768 0.223007
H88   H     H_    0.794441 0.923816 0.918731 0.213282
H89   H     H_    0.642186 0.846653 0.950939 0.229854
H90   H     H_    0.805020 0.827163 0.917602 0.158748
C131  C     C_3   0.190600 0.866944 0.574598 -0.321758
C132  C     C_3   0.068068 0.907529 0.570599 -0.301220
C133  C     C_3   0.044192 0.921350 0.529017 -0.721614
H91   H     H_    0.184362 0.928238 0.515794 0.227752
H92   H     H_    0.971659 0.895872 0.512331 0.254326
H93   H     H_    0.957362 0.951009 0.527791 0.216966
H94   H     H_    0.924274 0.900336 0.582026 0.225559
H95   H     H_    0.127712 0.934684 0.587209 0.221289
H96   H     H_    0.267764 0.859712 0.547817 0.220594
H97   H     H_    0.091786 0.839329 0.578080 0.161462
C134  C     C_3   0.284369 0.144335 0.424188 -0.347893
C135  C     C_3   0.147685 0.106423 0.430562 -0.313045
C136  C     C_3   0.101823 0.099835 0.472832 -0.676719
H98   H     H_    0.233200 0.093279 0.489378 0.218739
H99   H     H_    0.032236 0.128804 0.484783 0.257840
H100  H     H_    0.004709 0.072028 0.476164 0.220491
H101  H     H_    0.011402 0.113426 0.415756 0.223003
H102  H     H_    0.205492 0.076181 0.418695 0.213292
H103  H     H_    0.357789 0.153324 0.450941 0.229848
H104  H     H_    0.194993 0.172833 0.417605 0.158748

loop_
_geom_bond_atom_site_label_1
_geom_bond_atom_site_label_2
_ccdc_geom_bond_type
O17   V3    S    
C71   N15   S    
C16   O28   S    
C56   C64   A    
O18   V4    S    
C65   C105  A    
O12   V1    S    
O19   V1    S    
C28   C52   A    
C37   C45   A    
C126  H80   S    
C10   N2    A    
C53   C61   A    
C78   H22   S    
C10   O22   S    
C127  H79   S    
C76   H20   S    
C39   C47   A    
O4    V3    S    
C77   H21   S    
C114  H52   S    
C122  H75   S    
N13   H41   S    
C123  C124  S    
O16   V3    S    
C116  H62   S    
C30   C54   A    
C128  H89   S    
C124  H70   S    
C52   H4    S    
N12   H40   S    
O12   C4    A    
C72   C112  A    
O8    V1    S    
C42   C57   A    
C73   H17   S    
C77   C85   A    
C54   C62   A    
C41   C58   A    
C121  H65   S    
C118  H58   S    
C66   N10   S    
C60   H12   S    
C72   C80   A    
C123  H74   S    
C38   C46   A    
C16   C48   A    
C46   C61   A    
C93   H29   S    
C34   C42   A    
C120  H67   S    
C45   C62   A    
O1    V3    S    
C136  H100  S    
C97   C105  A    
C134  H104  S    
C22   O34   S    
O3    C2    A    
O2    V4    S    
C125  C126  S    
C133  H93   S    
N7    C112  S    
C1    C88   S    
C16   N8    A    
C70   C110  A    
N8    C111  S    
C2    C87   S    
C100  C108  A    
C27   C35   A    
C101  C109  A    
C70   C78   A    
C26   C34   A    
C95   C103  A    
C121  H63   S    
O11   V2    S    
C12   O24   S    
N14   H43   S    
N9    H34   S    
C55   C63   A    
C129  H87   S    
N1    C106  S    
C133  H91   S    
C104  C112  A    
C135  H102  S    
C94   C102  A    
C80   C88   A    
C11   N3    A    
C117  H60   S    
C92   C100  A    
O9    V1    S    
C113  H55   S    
C116  H61   S    
C89   H25   S    
C122  H76   S    
N4    C20   A    
C32   C40   A    
N5    C21   A    
N11   H37   S    
O16   C8    A    
O7    V2    S    
C132  H95   S    
C130  H84   S    
C59   H11   S    
C99   C107  A    
C79   C87   A    
C58   H10   S    
C30   C38   A    
C68   C108  A    
C56   H8    S    
O3    V4    S    
C21   C29   A    
C78   C86   A    
C19   O31   S    
C11   O23   S    
C89   C97   A    
N1    C17   A    
C117  C118  S    
C65   C73   A    
C82   C90   A    
C74   H18   S    
C103  C131  S    
C19   C27   A    
C72   N16   S    
C6    C83   S    
C62   H14   S    
C76   C84   A    
O17   V1    S    
C128  H90   S    
C124  H71   S    
C94   H30   S    
N12   H39   S    
C129  H88   S    
O13   C5    A    
C35   C36   A    
C18   C26   A    
C51   H3    S    
O20   V4    S    
C125  H82   S    
C50   H2    S    
C121  H64   S    
C33   C41   A    
C85   C93   A    
C115  H49   S    
C123  H73   S    
C17   O29   S    
C14   C46   A    
C83   C91   A    
C113  C114  S    
C7    C82   S    
C15   N7    A    
C131  H96   S    
C120  H66   S    
O6    V2    S    
C127  H78   S    
C40   C48   A    
C23   C31   A    
C15   C47   A    
C44   C59   A    
N9    H33   S    
C67   N11   S    
C100  C122  S    
N15   H45   S    
C55   H7    S    
C118  H56   S    
C27   C51   A    
C63   H15   S    
C119  C120  S    
C115  H50   S    
C64   H16   S    
O10   V2    S    
C52   C60   A    
C70   N14   S    
C134  C135  S    
C90   H26   S    
C75   C83   A    
N2    C18   A    
C122  C123  S    
O11   C3    A    
N6    C22   A    
C24   C32   A    
O8    C5    A    
C117  H59   S    
C119  H68   S    
C132  C133  S    
C54   H6    S    
C135  H101  S    
O9    C1    A    
C48   C63   A    
C53   H5    S    
C96   C104  A    
C71   C111  A    
C98   C116  S    
C29   C53   A    
C43   C60   A    
C10   C42   A    
C96   H32   S    
O4    C1    A    
C75   H19   S    
N2    C105  S    
C9    C41   A    
N15   H46   S    
C31   C39   A    
O18   V2    S    
C104  C134  S    
C132  H94   S    
C130  H85   S    
O19   V3    S    
C91   C99   A    
C118  H57   S    
C25   C49   A    
C12   N4    A    
C23   O35   S    
C35   C43   A    
N6    C109  S    
C13   N5    A    
C127  H77   S    
C66   C74   A    
O5    V1    S    
C18   O30   S    
C91   H27   S    
C8    C81   S    
C116  C117  S    
N7    C23   A    
C29   C37   A    
N8    C24   A    
C92   H28   S    
C120  C121  S    
C73   C81   A    
C124  H72   S    
C32   C56   A    
C79   H23   S    
C57   H9    S    
C31   C55   A    
O2    C3    A    
N16   H47   S    
C3    C86   S    
C69   C77   A    
O13   V3    S    
C134  H103  S    
C126  H81   S    
C125  H83   S    
C11   C43   A    
O14   V4    S    
N10   H35   S    
O1    C4    A    
O15   V4    S    
C97   C113  S    
C17   C25   A    
C65   N9    S    
C128  C129  S    
C66   C106  A    
C15   O27   S    
C103  C111  A    
C68   C76   A    
O7    C6    A    
C51   C59   A    
C131  H97   S    
C68   N12   S    
C50   C58   A    
C4    C85   S    
C9    N1    A    
C135  C136  S    
O14   C6    A    
C26   C50   A    
C126  C127  S    
C93   C101  A    
O20   V2    S    
C14   O26   S    
N14   H44   S    
C115  H51   S    
C13   O25   S    
C36   C44   A    
N3    C19   A    
C114  C115  S    
O5    C8    A    
C13   C45   A    
N3    C108  S    
O10   C2    A    
C102  C128  S    
C81   C89   A    
O6    C7    A    
O15   C7    A    
C71   C79   A    
C136  H99   S    
C5    C84   S    
C87   C95   A    
C119  H69   S    
C95   H31   S    
N16   H48   S    
C114  H53   S    
C88   C96   A    
C49   C57   A    
C37   C38   A    
C99   C119  S    
C61   H13   S    
C84   C92   A    
C90   C98   A    
N10   H36   S    
C67   C75   A    
N4    C107  S    
C98   C106  A    
C86   C94   A    
C133  H92   S    
N5    C110  S    
C47   C64   A    
C14   N6    A    
C101  C125  S    
C129  C130  S    
C28   C36   A    
C20   C28   A    
C33   C34   A    
C69   C109  A    
C130  H86   S    
C49   H1    S    
N11   H38   S    
C136  H98   S    
C22   C30   A    
C20   O32   S    
C21   O33   S    
C102  C110  A    
C9    O21   S    
C39   C40   A    
C74   C82   A    
C131  C132  S    
N13   H42   S    
C69   N13   S    
C12   C44   A    
C24   O36   S    
C80   H24   S    
C113  H54   S    
C25   C33   A    
C67   C107  A    
