data_mof_unit_3588.cif
_audit_creation_date              2012-12-10T16:48:44-0500
_audit_creation_method            fapswitch 2.2
_symmetry_space_group_name_H-M    P1
_symmetry_Int_Tables_number       1
_space_group_crystal_system       triclinic
_cell_length_a                    7.978409
_cell_length_b                    8.556547
_cell_length_c                    10.416783
_cell_angle_alpha                 91.563274
_cell_angle_beta                  97.095929
_cell_angle_gamma                 92.686384
_cell_volume                      704.514437891

loop_
_atom_site_label
_atom_site_type_symbol
_atom_type_description
_atom_site_fract_x
_atom_site_fract_y
_atom_site_fract_z
_atom_type_partial_charge
C1    C     C_R   0.543311 0.793627 0.498984 0.882241
C2    C     C_2   0.433157 0.043571 0.486859 0.315176
C3    C     C_R   0.456749 0.206397 0.501321 0.872606
C4    C     C_R   0.569098 0.495761 0.737068 0.897983
C5    C     C_R   0.432750 0.515305 0.262961 0.843753
C6    C     C_2   0.604084 0.504526 0.876700 0.037814
C7    C     C_2   0.406231 0.552112 0.125766 -0.050768
C8    C     C_2   0.546608 0.627776 0.938350 0.558020
C9    C     C_2   0.535238 0.627965 0.076166 0.514837
C10   C     C_2   0.566813 0.956445 0.513813 0.353507
F1    F     F_    0.671700 0.692737 0.154458 -0.607817
F2    F     F_    0.490998 0.754097 0.871929 -0.583222
F3    F     F_    0.720928 0.016157 0.569294 -0.562415
F4    F     F_    0.278843 0.983873 0.431724 -0.582692
H1    H     H_    0.045308 0.584812 0.172124 0.396972
H2    H     H_    0.505204 0.229483 0.069923 0.375787
H3    H     H_    0.818013 0.091560 0.296405 0.409530
H4    H     H_    0.183983 0.906599 0.704766 0.409379
N1    N     N_2   0.940600 0.458860 0.467170 0.083773
N2    N     N_2   0.059400 0.541140 0.532830 0.086772
O1    O     O_R   0.391630 0.738350 0.508060 -0.561053
O2    O     O_2   0.155965 0.333743 0.058159 -0.185804
O3    O     O_3   0.062493 0.618742 0.084395 -0.411611
O4    O     O_2   0.798516 0.257145 0.872878 -0.134706
O5    O     O_2   0.784895 0.384467 0.084121 -0.223491
O6    O     O_3   0.523458 0.212927 0.978310 -0.482933
O7    O     O_2   0.107239 0.280144 0.314651 -0.224463
O8    O     O_2   0.020600 0.168973 0.513815 -0.161937
O9    O     O_3   0.796134 0.202098 0.316253 -0.480189
O10   O     O_2   0.978654 0.831796 0.490163 -0.174383
O11   O     O_2   0.893468 0.717053 0.688730 -0.220076
O12   O     O_R   0.608370 0.261650 0.491940 -0.559399
O13   O     O_3   0.204131 0.795357 0.686132 -0.423793
O14   O     O_R   0.674540 0.711990 0.487010 -0.544552
O15   O     O_R   0.325460 0.288010 0.512990 -0.549815
O16   O     O_R   0.411370 0.508250 0.688780 -0.564850
O17   O     O_R   0.588630 0.491750 0.311220 -0.553964
O18   O     O_R   0.694270 0.481880 0.667740 -0.562890
O19   O     O_R   0.305730 0.518120 0.332260 -0.597218
O20   O     O_2   0.207605 0.519144 0.892069 -0.206343
S1    S     S_3+6 0.206518 0.500892 0.034845 0.125222
S2    S     S_3+6 0.685384 0.338156 0.955739 0.111639
S3    S     S_3+6 0.974440 0.275698 0.404265 0.252843
S4    S     S_3+6 0.025351 0.723085 0.598186 0.264646
Zn1   Zn    Zn3+2 0.311100 0.517600 0.514050 1.201782
Zn2   Zn    Zn3+2 0.688900 0.482400 0.485950 1.216103

loop_
_geom_bond_atom_site_label_1
_geom_bond_atom_site_label_2
_ccdc_geom_bond_type
O5    S2    D    
C4    O16   A    
C1    O1    A    
O19   Zn1   S    
O14   Zn2   S    
C5    O17   A    
H3    O9    S    
O8    S3    D    
N2    Zn1   S    
O3    S1    S    
C3    O15   A    
C8    F2    S    
C7    C9    D    
H1    O3    S    
C2    C3    S    
N1    Zn2   S    
O16   Zn1   S    
O9    S3    S    
C9    F1    S    
O10   S4    D    
O20   S1    D    
N2    S4    S    
N1    S3    S    
C1    O14   A    
O1    Zn1   S    
C5    O19   A    
H2    O6    S    
C3    O12   A    
C2    F4    S    
H4    O13   S    
O18   Zn2   S    
O2    S1    D    
O11   S4    D    
C2    C10   D    
O7    S3    D    
O4    S2    D    
O6    S2    S    
C4    C6    S    
C6    S2    S    
C5    C7    S    
C6    C8    D    
O17   Zn2   S    
O13   S4    S    
O12   Zn2   S    
C1    C10   S    
N1    N2    D    
C7    S1    S    
C4    O18   A    
C8    C9    S    
C10   F3    S    
O15   Zn1   S    
