data_mof_unit_3918.cif
_audit_creation_date              2012-12-10T16:59:17-0500
_audit_creation_method            fapswitch 2.2
_symmetry_space_group_name_H-M    P1
_symmetry_Int_Tables_number       1
_space_group_crystal_system       triclinic
_cell_length_a                    7.740989
_cell_length_b                    8.557182
_cell_length_c                    27.713226
_cell_angle_alpha                 90.946442
_cell_angle_beta                  86.191401
_cell_angle_gamma                 93.677112
_cell_volume                      1827.78959918

loop_
_atom_site_label
_atom_site_type_symbol
_atom_type_description
_atom_site_fract_x
_atom_site_fract_y
_atom_site_fract_z
_atom_type_partial_charge
C1    C     C_R   0.545882 0.794828 0.498735 0.975875
C2    C     C_R   0.516572 0.644928 0.127786 -0.022088
C3    C     C_R   0.509782 0.498094 0.646432 -0.038516
C4    C     C_R   0.490217 0.501903 0.353568 -0.038516
C5    C     C_R   0.534987 0.643542 0.025508 0.047820
C6    C     C_R   0.465008 0.356447 0.974492 0.047820
C7    C     C_R   0.453857 0.358845 0.025775 0.047817
C8    C     C_R   0.546139 0.641144 0.974225 0.047817
C9    C     C_R   0.489705 0.502236 0.050922 0.072025
C10   C     C_R   0.510291 0.497753 0.949078 0.072025
C11   C     C_R   0.567166 0.783073 0.052568 -0.226403
C12   C     C_R   0.454118 0.205172 0.501265 0.975874
C13   C     C_R   0.432829 0.216916 0.947432 -0.226403
C14   C     C_R   0.558363 0.783275 0.102634 -0.140144
C15   C     C_R   0.441633 0.216714 0.897366 -0.140144
C16   C     C_R   0.502901 0.499736 0.593920 0.874115
C17   C     C_R   0.497099 0.500264 0.406079 0.874116
C18   C     C_R   0.592795 0.777656 0.946904 -0.226616
C19   C     C_R   0.407201 0.222332 0.053096 -0.226616
C20   C     C_2   0.570144 0.958290 0.498003 -0.371723
C21   C     C_2   0.429856 0.041710 0.501997 -0.371723
C22   C     C_R   0.566998 0.630738 0.821435 0.506450
C23   C     C_R   0.519292 0.495740 0.897804 -0.049581
C24   C     C_R   0.433000 0.369251 0.178564 0.506450
C25   C     C_R   0.488753 0.356480 0.821695 0.507079
C26   C     C_R   0.511244 0.643508 0.178305 0.507079
C27   C     C_R   0.362460 0.494453 0.726128 -0.099773
C28   C     C_R   0.637538 0.505529 0.273872 -0.099773
C29   C     C_R   0.355751 0.496774 0.676221 -0.204333
C30   C     C_R   0.644248 0.503211 0.323778 -0.204332
C31   C     C_R   0.670429 0.497299 0.667232 -0.210496
C32   C     C_R   0.329571 0.502704 0.332768 -0.210496
C33   C     C_R   0.676652 0.495547 0.717201 -0.093260
C34   C     C_R   0.480704 0.504248 0.102196 -0.049581
C35   C     C_R   0.323347 0.504453 0.282799 -0.093262
C36   C     C_R   0.522699 0.493955 0.746512 0.323128
C37   C     C_R   0.477299 0.506034 0.253487 0.323130
C38   C     C_R   0.563210 0.634576 0.871949 -0.021543
C39   C     C_R   0.436786 0.365412 0.128051 -0.021543
C40   C     C_R   0.600601 0.774103 0.896842 -0.141137
C41   C     C_R   0.399395 0.225885 0.103157 -0.141137
C42   C     C_R   0.483424 0.355061 0.872213 -0.022088
H1    H     H_    0.790998 0.498578 0.645005 0.159387
H2    H     H_    0.230368 0.497050 0.661055 0.161187
H3    H     H_    0.756477 0.506407 0.250943 0.136187
H4    H     H_    0.243520 0.493567 0.749057 0.136188
H5    H     H_    0.585534 0.892989 0.121581 0.194300
H6    H     H_    0.414462 0.107000 0.878419 0.194300
H7    H     H_    0.600034 0.895434 0.036501 0.140711
H8    H     H_    0.399960 0.104555 0.963499 0.140711
H9    H     H_    0.624859 0.890404 0.962756 0.141524
H10   H     H_    0.375136 0.109584 0.037244 0.141525
H11   H     H_    0.702607 0.009421 0.494190 0.180846
H12   H     H_    0.209002 0.501435 0.354995 0.159388
H13   H     H_    0.297393 0.990579 0.505810 0.180846
H14   H     H_    0.014080 0.383217 0.463422 0.191381
H15   H     H_    0.985920 0.616783 0.536578 0.191380
H16   H     H_    0.800543 0.495353 0.733200 0.134868
H17   H     H_    0.199457 0.504653 0.266800 0.134867
H18   H     H_    0.635976 0.882050 0.877690 0.193325
H19   H     H_    0.364021 0.117939 0.122310 0.193324
H20   H     H_    0.769630 0.502930 0.338944 0.161187
N1    N     N_R   0.528447 0.493313 0.797680 -0.361748
N2    N     N_R   0.471551 0.506675 0.202320 -0.361748
N3    N     N_2   0.950320 0.457960 0.486880 -0.175755
N4    N     N_2   0.049680 0.542040 0.513120 -0.175755
O1    O     O_R   0.389250 0.738570 0.503220 -0.611088
O2    O     O_2   0.393401 0.236727 0.203822 -0.532406
O3    O     O_2   0.546144 0.777245 0.203340 -0.530952
O4    O     O_2   0.453854 0.222744 0.796660 -0.530953
O5    O     O_R   0.610750 0.261430 0.496780 -0.611088
O6    O     O_R   0.678390 0.711630 0.494810 -0.629376
O7    O     O_R   0.321610 0.288370 0.505190 -0.629376
O8    O     O_R   0.355440 0.513440 0.575450 -0.621166
O9    O     O_R   0.644560 0.486560 0.424550 -0.621166
O10   O     O_R   0.644590 0.486500 0.567040 -0.630294
O11   O     O_R   0.355410 0.513500 0.432960 -0.630295
O12   O     O_2   0.606597 0.763261 0.796178 -0.532406
Zn1   Zn    Zn3+2 0.306940 0.517990 0.505620 0.950372
Zn2   Zn    Zn3+2 0.693060 0.482010 0.494380 0.950372

loop_
_geom_bond_atom_site_label_1
_geom_bond_atom_site_label_2
_ccdc_geom_bond_type
C33   H16   S    
C40   H18   S    
C27   C29   A    
C41   H19   S    
H15   N4    S    
C33   C36   A    
C39   C41   A    
N4    Zn1   S    
C23   C42   A    
C31   H1    S    
C16   O8    A    
C35   C37   A    
C5    C11   A    
C30   H20   S    
C11   C14   A    
H14   N3    S    
C22   C38   A    
C24   C39   A    
C35   H17   S    
C25   N1    A    
C3    C29   A    
C26   N2    A    
C18   C40   A    
C22   N1    A    
C14   H5    S    
C19   H10   S    
C31   C33   A    
C36   N1    S    
O9    Zn2   S    
C2    C34   A    
C24   N2    A    
N3    Zn2   S    
C12   O7    A    
C15   H6    S    
C32   H12   S    
O5    Zn2   S    
C18   H9    S    
O11   Zn1   S    
C28   H3    S    
C1    O6    A    
C34   C39   A    
C32   C35   A    
O1    Zn1   S    
C22   O12   S    
C21   H13   S    
C12   C21   S    
C8    C18   A    
C5    C9    A    
C11   H7    S    
C17   O11   A    
O7    Zn1   S    
C2    C26   A    
C3    C31   A    
C4    C32   A    
C4    C17   S    
C27   H4    S    
C12   O5    A    
C7    C19   A    
O8    Zn1   S    
C13   C15   A    
C29   H2    S    
C9    C34   A    
C10   C23   A    
C37   N2    S    
C7    C9    A    
C1    C20   S    
C16   O10   A    
O10   Zn2   S    
C15   C42   A    
C20   H11   S    
C25   C42   A    
C6    C10   A    
C5    C8    A    
C6    C7    A    
C27   C36   A    
C23   C38   A    
C28   C30   A    
O6    Zn2   S    
C6    C13   A    
C38   C40   A    
C28   C37   A    
C1    O1    A    
C2    C14   A    
C24   O2    S    
C13   H8    S    
C20   C21   D    
C8    C10   A    
N3    N4    D    
C17   O9    A    
C26   O3    S    
C25   O4    S    
C4    C30   A    
C3    C16   S    
C19   C41   A    
