data_mof_unit_4246.cif
_audit_creation_date              2012-12-10T17:14:45-0500
_audit_creation_method            fapswitch 2.2
_symmetry_space_group_name_H-M    P1
_symmetry_Int_Tables_number       1
_space_group_crystal_system       triclinic
_cell_length_a                    10.676104
_cell_length_b                    12.956652
_cell_length_c                    11.863804
_cell_angle_alpha                 99.197136
_cell_angle_beta                  94.429027
_cell_angle_gamma                 92.391741
_cell_volume                      1612.70462142

loop_
_atom_site_label
_atom_site_type_symbol
_atom_type_description
_atom_site_fract_x
_atom_site_fract_y
_atom_site_fract_z
_atom_type_partial_charge
C1    C     C_R   0.499844 0.300175 0.479370 0.947858
C2    C     C_R   0.619089 0.581119 0.855209 0.032146
C3    C     C_R   0.562646 0.533089 0.155363 0.583343
C4    C     C_R   0.437367 0.466898 0.844638 0.583496
C5    C     C_R   0.550014 0.530542 0.033393 -0.091274
C6    C     C_R   0.450025 0.469419 0.966603 -0.091264
C7    C     C_R   0.260282 0.500237 0.499839 0.950703
C8    C     C_R   0.739719 0.499771 0.500161 0.950530
C9    C     C_3   0.034574 0.402060 0.471167 0.167124
C10   C     C_3   0.965431 0.597957 0.528830 0.166937
C11   C     C_3   0.948168 0.459792 0.395335 0.275347
C12   C     C_R   0.500155 0.699824 0.520630 0.947899
C13   C     C_3   0.051840 0.540224 0.604663 0.275586
C14   C     C_3   0.875386 0.499584 0.499900 -0.261618
C15   C     C_3   0.124618 0.500432 0.500099 -0.261326
C16   C     C_3   0.962728 0.441798 0.575553 0.339367
C17   C     C_3   0.037280 0.558218 0.424446 0.339544
C18   C     C_R   0.487130 0.811666 0.529995 -0.064122
C19   C     C_R   0.512892 0.188333 0.470001 -0.064082
C20   C     C_R   0.646930 0.042285 0.436527 -0.098025
C21   C     C_R   0.353105 0.957716 0.563448 -0.098255
C22   C     C_R   0.620293 0.146015 0.425119 0.284796
C23   C     C_R   0.430076 0.130303 0.523972 0.323673
C24   C     C_R   0.379739 0.854002 0.574882 0.284506
C25   C     C_2   0.776652 0.008273 0.421873 0.913376
C26   C     C_2   0.223322 0.991655 0.577917 0.913889
C27   C     C_2   0.706640 0.645881 0.801726 0.927017
C28   C     C_2   0.293384 0.354098 0.198276 0.927112
C29   C     C_2   0.267231 0.336190 0.959017 0.963461
C30   C     C_2   0.732963 0.663624 0.040953 0.963374
C31   C     C_R   0.569967 0.869691 0.476032 0.323595
C32   C     C_R   0.444885 0.022168 0.522008 -0.095438
C33   C     C_R   0.555165 0.977830 0.477985 -0.095294
C34   C     C_R   0.366343 0.411266 0.023768 -0.140638
C35   C     C_R   0.633720 0.588666 0.976221 -0.140647
C36   C     C_R   0.380935 0.418855 0.144787 0.032149
Cu1   Cu    Cu3+1 0.509400 0.507730 0.615930 1.054547
Cu2   Cu    Cu3+1 0.490600 0.492270 0.384070 1.054449
H1    H     H_    0.848305 0.353387 0.292062 0.352107
H2    H     H_    0.764599 0.172244 0.338781 0.352362
H3    H     H_    0.910267 0.967759 0.314350 0.367289
H4    H     H_    0.089418 0.031968 0.685195 0.367477
H5    H     H_    0.360539 0.374383 0.713723 0.377330
H6    H     H_    0.639430 0.625625 0.286285 0.377300
H7    H     H_    0.884469 0.670629 0.763460 0.375708
H8    H     H_    0.115558 0.329367 0.236560 0.375855
H9    H     H_    0.225866 0.197368 0.856531 0.359555
H10   H     H_    0.774608 0.802483 0.143293 0.359583
H11   H     H_    0.151105 0.646942 0.708053 0.351882
H12   H     H_    0.994290 0.254509 0.431994 0.355910
H13   H     H_    0.005711 0.745510 0.567904 0.356071
H14   H     H_    0.999462 0.355072 0.689068 0.383017
H15   H     H_    0.000537 0.644890 0.310868 0.383010
H16   H     H_    0.655296 0.835712 0.339738 0.349398
H17   H     H_    0.344646 0.164151 0.660236 0.349326
H18   H     H_    0.235971 0.827901 0.661800 0.352807
N1    N     N_R   0.523540 0.519360 0.790140 -0.272255
N2    N     N_R   0.476460 0.480640 0.209860 -0.272259
O1    O     O_R   0.506670 0.354460 0.582000 -0.619936
O2    O     O_3   0.105649 0.580322 0.714986 -0.604887
O3    O     O_3   0.072738 0.299917 0.442832 -0.658918
O4    O     O_3   0.927269 0.700099 0.557166 -0.658955
O5    O     O_3   0.921921 0.380970 0.654328 -0.625638
O6    O     O_3   0.078090 0.619047 0.345674 -0.625604
O7    O     O_3   0.661040 0.816847 0.417674 -0.694886
O8    O     O_3   0.339018 0.183138 0.582356 -0.694928
O9    O     O_3   0.296909 0.787416 0.617065 -0.744274
O10   O     O_3   0.703047 0.212632 0.382883 -0.744083
O11   O     O_2   0.843344 0.992539 0.505275 -0.508538
O12   O     O_R   0.493330 0.645540 0.418000 -0.619962
O13   O     O_R   0.821069 0.991789 0.312942 -0.767061
O14   O     O_2   0.156827 0.007506 0.494452 -0.508347
O15   O     O_R   0.178622 0.007958 0.686736 -0.767473
O16   O     O_3   0.332492 0.416375 0.782624 -0.680615
O17   O     O_3   0.667496 0.583644 0.217388 -0.680762
O18   O     O_2   0.677147 0.731800 0.782171 -0.551656
O19   O     O_R   0.829050 0.614740 0.788697 -0.662542
O20   O     O_2   0.322869 0.268172 0.217817 -0.551693
O21   O     O_R   0.170984 0.385255 0.211328 -0.662342
O22   O     O_2   0.156626 0.356978 0.960112 -0.490554
O23   O     O_R   0.490800 0.341410 0.386200 -0.544885
O24   O     O_R   0.301300 0.241909 0.897311 -0.733446
O25   O     O_2   0.843503 0.642589 0.040011 -0.490375
O26   O     O_R   0.699095 0.758060 0.102484 -0.733268
O27   O     O_R   0.509200 0.658590 0.613800 -0.544918
O28   O     O_R   0.324790 0.506500 0.597880 -0.562665
O29   O     O_R   0.675210 0.493500 0.402120 -0.562919
O30   O     O_R   0.308910 0.493440 0.402080 -0.562159
O31   O     O_R   0.691090 0.506560 0.597920 -0.562083
O32   O     O_3   0.894402 0.419682 0.284999 -0.604944

loop_
_geom_bond_atom_site_label_1
_geom_bond_atom_site_label_2
_ccdc_geom_bond_type
C2    C35   A    
C21   C26   S    
Cu2   O12   S    
C26   O14   D    
C2    N1    A    
H16   O7    S    
H11   O2    S    
C30   C35   S    
C18   C24   A    
C23   O8    S    
Cu1   O27   S    
C9    C16   S    
C36   N2    A    
C1    O1    A    
C17   O6    S    
C5    C6    A    
H15   O6    S    
C7    O28   A    
C20   C25   S    
C10   C17   S    
C1    O23   A    
C26   O15   S    
C31   O7    S    
H9    O24   S    
C30   O25   D    
C28   O21   S    
C24   O9    S    
Cu2   N2    S    
C4    N1    A    
C31   C33   A    
C2    C27   S    
C25   O13   S    
C16   O5    S    
C28   O20   D    
H1    O32   S    
C4    O16   S    
H3    O13   S    
H5    O16   S    
C7    C15   S    
C10   O4    S    
H13   O4    S    
C21   C32   A    
C1    C19   S    
Cu1   O28   S    
C19   C22   A    
C4    C6    A    
C10   C14   S    
C13   O2    S    
C3    C5    A    
C29   C34   S    
C10   C13   S    
H10   O26   S    
Cu2   O30   S    
H6    O17   S    
C19   C23   A    
Cu1   Cu2   S    
C7    O30   A    
C9    C11   S    
C22   O10   S    
Cu1   O1    S    
C20   C33   A    
C12   O27   A    
C20   C22   A    
C13   C15   S    
Cu2   O23   S    
C9    O3    S    
C21   C24   A    
C25   O11   D    
C27   O18   D    
H17   O8    S    
C3    O17   S    
C15   C17   S    
C12   O12   A    
C11   C17   S    
H4    O15   S    
C8    C14   S    
C27   O19   S    
H14   O5    S    
C18   C31   A    
H18   O9    S    
Cu1   O31   S    
Cu2   O29   S    
C8    O29   A    
C23   C32   A    
C9    C15   S    
C29   O24   S    
C32   C33   A    
C11   O32   S    
H8    O21   S    
C29   O22   D    
C5    C35   A    
C11   C14   S    
C34   C36   A    
C14   C16   S    
C30   O26   S    
C3    N2    A    
C6    C34   A    
C28   C36   S    
H2    O10   S    
C13   C16   S    
C12   C18   S    
H12   O3    S    
H7    O19   S    
C8    O31   A    
Cu1   N1    S    
