data_mof_unit_2137.cif
_audit_creation_date              2012-10-26T19:41:34-0400
_audit_creation_method            fapswitch 2.2
_symmetry_space_group_name_H-M    P1
_symmetry_Int_Tables_number       1
_space_group_crystal_system       triclinic
_cell_length_a                    17.297406
_cell_length_b                    11.080709
_cell_length_c                    9.942187
_cell_angle_alpha                 112.893471
_cell_angle_beta                  94.31369
_cell_angle_gamma                 92.895291
_cell_volume                      1743.90445177

loop_
_atom_site_label
_atom_site_type_symbol
_atom_type_description
_atom_site_fract_x
_atom_site_fract_y
_atom_site_fract_z
_atom_type_partial_charge
C1    C     C_R   0.493251 0.252759 0.438729 0.563006
C2    C     C_R   0.647741 0.498709 0.480437 0.586228
C3    C     C_R   0.264910 0.511557 0.521554 -0.041724
C4    C     C_R   0.730642 0.515463 0.470673 -0.020983
C5    C     C_R   0.221683 0.495692 0.388149 -0.111142
C6    C     C_R   0.770239 0.637304 0.559795 -0.115614
C7    C     C_R   0.140738 0.486735 0.372130 0.257888
C8    C     C_R   0.849427 0.661951 0.553787 0.260519
C9    C     C_R   0.101010 0.502240 0.494913 -0.026669
C10   C     C_R   0.889298 0.561882 0.457011 -0.028791
C11   C     C_R   0.142255 0.523071 0.628963 -0.111274
C12   C     C_R   0.506637 0.747155 0.561411 0.520328
C13   C     C_R   0.848990 0.441447 0.363951 -0.096752
C14   C     C_R   0.223509 0.527285 0.644139 0.193648
C15   C     C_R   0.769615 0.417106 0.369112 0.239149
C16   C     C_2   0.016271 0.489166 0.485890 -0.074661
C17   C     C_2   0.974002 0.576450 0.459432 -0.008901
C18   C     C_2   0.484223 0.109998 0.401201 0.204259
C19   C     C_2   0.515604 0.889748 0.599485 0.204492
C20   C     C_2   0.503908 0.068406 0.508845 -0.091670
C21   C     C_2   0.487416 0.933419 0.498100 -0.099885
C22   C     C_2   0.507331 0.506243 0.078683 0.129482
C23   C     C_2   0.491181 0.495259 0.921220 0.137083
C24   C     C_R   0.351018 0.505288 0.519202 0.555378
Cu1   Cu    Cu3+1 0.513640 0.521550 0.643210 1.209748
Cu2   Cu    Cu3+1 0.486360 0.478450 0.356790 1.184292
H1    H     H_    0.250664 0.485215 0.292226 0.234533
H2    H     H_    0.557040 0.568339 0.146910 0.174238
H3    H     H_    0.640440 0.119311 0.275483 0.381468
H4    H     H_    0.256269 0.315464 0.730644 0.361249
H5    H     H_    0.867261 0.992623 0.844801 0.406776
H6    H     H_    0.118634 0.348283 0.971055 0.392162
H7    H     H_    0.613155 0.985379 0.973165 0.406057
H8    H     H_    0.430450 0.007757 0.006186 0.404101
H9    H     H_    0.716059 0.754562 0.912367 0.381585
H10   H     H_    0.301438 0.215173 0.099867 0.374620
H11   H     H_    0.738718 0.713826 0.632818 0.207543
H12   H     H_    0.002059 0.661674 0.448560 0.214909
H13   H     H_    0.988430 0.411023 0.510567 0.155118
H14   H     H_    0.109946 0.531404 0.720967 0.193233
H15   H     H_    0.880224 0.365751 0.288835 0.211084
H16   H     H_    0.450592 0.865340 0.403343 0.196864
H17   H     H_    0.533439 0.139227 0.610783 0.208291
H18   H     H_    0.440563 0.436032 0.854954 0.210669
N1    N     N_2   0.465840 0.446060 0.141630 -0.077446
N2    N     N_2   0.534160 0.553940 0.858370 -0.075132
O1    O     O_R   0.507280 0.332200 0.576490 -0.549168
O2    O     O_2   0.779699 0.167063 0.180489 -0.235473
O3    O     O_3   0.667901 0.202051 0.348794 -0.514716
O4    O     O_2   0.332075 0.635539 0.875164 -0.196074
O5    O     O_2   0.209470 0.543861 0.918181 -0.205406
O6    O     O_3   0.302767 0.379632 0.762749 -0.486530
O7    O     O_2   0.963872 0.793833 0.764713 -0.241425
O8    O     O_2   0.928838 0.884916 0.582089 -0.232468
O9    O     O_3   0.835676 0.909628 0.782918 -0.469033
O10   O     O_2   0.020273 0.355880 0.170410 -0.266446
O11   O     O_2   0.069237 0.571598 0.181731 -0.221363
O12   O     O_R   0.492720 0.667800 0.423510 -0.557993
O13   O     O_3   0.151146 0.373467 0.065791 -0.461007
O14   O     O_2   0.648061 0.035551 0.737386 -0.217644
O15   O     O_2   0.527689 0.116193 0.841235 -0.236873
O16   O     O_3   0.580958 0.920452 0.885926 -0.418453
O17   O     O_2   0.475540 0.871079 0.174133 -0.243172
O18   O     O_2   0.356328 0.983893 0.223577 -0.238318
O19   O     O_3   0.461165 0.067137 0.098691 -0.414379
O20   O     O_2   0.607622 0.749163 0.093599 -0.247471
O21   O     O_2   0.674081 0.548957 0.982697 -0.249673
O22   O     O_3   0.666712 0.710288 0.851946 -0.447161
O23   O     O_R   0.484240 0.295800 0.334620 -0.389914
O24   O     O_2   0.318967 0.433005 0.048652 -0.189571
O25   O     O_2   0.393796 0.252551 0.901770 -0.246757
O26   O     O_3   0.353329 0.258435 0.148725 -0.438528
O27   O     O_R   0.515760 0.704200 0.665380 -0.418710
O28   O     O_R   0.399260 0.520290 0.634950 -0.458829
O29   O     O_R   0.600740 0.479710 0.365050 -0.491540
O30   O     O_R   0.376220 0.483890 0.393080 -0.486216
O31   O     O_R   0.623780 0.516110 0.606920 -0.440773
O32   O     O_2   0.669117 0.280185 0.134037 -0.201830
S1    S     S_3+6 0.721584 0.262543 0.251403 0.073891
S2    S     S_3+6 0.267561 0.527266 0.808480 0.074844
S3    S     S_3+6 0.897489 0.815693 0.672526 0.060131
S4    S     S_3+6 0.091996 0.447236 0.194856 0.058322
S5    S     S_3+6 0.569365 0.995398 0.768789 0.072060
S6    S     S_3+6 0.442843 0.002534 0.221695 0.065461
S7    S     S_3+6 0.621673 0.641136 0.951324 0.158407
S8    S     S_3+6 0.381875 0.346477 0.053887 0.170442

loop_
_geom_bond_atom_site_label_1
_geom_bond_atom_site_label_2
_ccdc_geom_bond_type
O16   S5    S    
O13   S4    S    
O20   S7    D    
C13   H15   S    
H3    O3    S    
C1    C18   S    
Cu1   O31   S    
O2    S1    D    
C19   C21   D    
C9    C16   S    
O14   S5    D    
C10   C17   S    
O7    S3    D    
Cu1   O28   S    
O5    S2    D    
O18   S6    D    
Cu2   N1    S    
C5    H1    S    
C15   S1    S    
H7    O16   S    
C18   S6    S    
C14   S2    S    
O9    S3    S    
Cu1   O1    S    
C18   C20   D    
N2    S7    S    
C12   O12   A    
C23   N2    D    
C22   H2    S    
C12   O27   A    
O22   S7    S    
C3    C24   S    
C19   S5    S    
H8    O19   S    
O21   S7    D    
C8    S3    S    
C4    C6    A    
O15   S5    D    
C5    C7    A    
O32   S1    D    
C1    O1    A    
O19   S6    S    
C6    C8    A    
Cu1   Cu2   S    
C1    O23   A    
C23   H18   S    
O3    S1    S    
C2    C4    S    
O25   S8    D    
Cu2   O12   S    
Cu2   O30   S    
C22   N1    D    
Cu2   O29   S    
C6    H11   S    
C9    C11   A    
C3    C14   A    
C13   C15   A    
O24   S8    D    
C20   H17   S    
C7    C9    A    
H4    O6    S    
O11   S4    D    
C24   O30   A    
C3    C5    A    
C10   C13   A    
O4    S2    D    
O26   S8    S    
O10   S4    D    
O17   S6    D    
C4    C15   A    
N1    S8    S    
C2    O31   A    
C24   O28   A    
C16   C17   D    
H9    O22   S    
C12   C19   S    
C11   C14   A    
Cu1   O27   S    
C17   H12   S    
C11   H14   S    
C16   H13   S    
C21   H16   S    
C7    S4    S    
C20   C21   S    
C8    C10   A    
Cu2   O23   S    
C22   C23   S    
H6    O13   S    
H5    O9    S    
O6    S2    S    
Cu1   N2    S    
O8    S3    D    
C2    O29   A    
H10   O26   S    
