data_mof_unit_3594.cif
_audit_creation_date              2012-12-10T20:07:04-0500
_audit_creation_method            fapswitch 2.2
_symmetry_space_group_name_H-M    P1
_symmetry_Int_Tables_number       1
_space_group_crystal_system       triclinic
_cell_length_a                    19.283134
_cell_length_b                    18.674776
_cell_length_c                    10.499569
_cell_angle_alpha                 89.295225
_cell_angle_beta                  92.884572
_cell_angle_gamma                 90.694807
_cell_volume                      3775.65390437

loop_
_atom_site_label
_atom_site_type_symbol
_atom_type_description
_atom_site_fract_x
_atom_site_fract_y
_atom_site_fract_z
_atom_type_partial_charge
C1    C     C_R   0.365940 0.499621 0.500907 0.947187
C2    C     C_R   0.928049 0.497673 0.513160 0.106755
C3    C     C_R   0.556648 0.728148 0.548291 0.318696
C4    C     C_R   0.464077 0.272527 0.405151 0.315005
C5    C     C_R   0.443108 0.727102 0.451528 0.319699
C6    C     C_R   0.537325 0.272559 0.593414 0.340038
C7    C     C_R   0.560202 0.802920 0.528131 -0.218133
C8    C     C_R   0.473002 0.197945 0.396118 -0.197612
C9    C     C_R   0.439199 0.801539 0.472164 -0.209589
C10   C     C_R   0.529416 0.197631 0.602952 -0.209426
C11   C     C_R   0.499640 0.841800 0.500489 0.047788
C12   C     C_R   0.633978 0.500221 0.501304 0.946477
C13   C     C_R   0.500931 0.158350 0.500048 0.030206
C14   C     C_R   0.455950 0.963769 0.414537 0.084610
C15   C     C_R   0.555877 0.036856 0.560249 0.098829
C16   C     C_R   0.543856 0.963306 0.587694 0.085710
C17   C     C_R   0.444721 0.036749 0.441876 0.094015
C18   C     C_R   0.500557 0.077151 0.500732 0.080497
C19   C     C_R   0.499710 0.923118 0.501061 0.059297
C20   C     C_R   0.511621 0.500608 0.261647 0.938596
C21   C     C_R   0.489188 0.499369 0.738947 0.936636
C22   C     C_R   0.538496 0.634123 0.105492 0.510873
C23   C     C_R   0.708894 0.500006 0.503946 -0.192575
C24   C     C_R   0.465040 0.365466 0.896179 0.484222
C25   C     C_R   0.450137 0.627744 0.887322 0.507394
C26   C     C_R   0.553849 0.372731 0.113685 0.482849
C27   C     C_R   0.514837 0.697141 0.046160 0.376370
C28   C     C_R   0.489992 0.302651 0.954674 0.365489
C29   C     C_R   0.467636 0.693793 0.941494 0.391331
C30   C     C_R   0.537682 0.306536 0.058631 0.386182
C31   C     C_R   0.479566 0.564000 0.939386 -0.253306
C32   C     C_R   0.523619 0.436093 0.061751 -0.248002
C33   C     C_R   0.515668 0.566690 0.058146 -0.256109
C34   C     C_R   0.291032 0.498721 0.506664 -0.200478
C35   C     C_R   0.487407 0.433185 0.943106 -0.251649
C36   C     C_R   0.475871 0.498053 0.874998 0.078530
C37   C     C_R   0.526575 0.501900 0.126329 0.080254
C38   C     C_R   0.746999 0.550484 0.576593 -0.295998
C39   C     C_R   0.257330 0.557846 0.555037 -0.252256
C40   C     C_R   0.252846 0.438392 0.465349 -0.270550
C41   C     C_R   0.742674 0.447416 0.437113 -0.247751
C42   C     C_R   0.818869 0.549682 0.580005 0.573673
C43   C     C_R   0.185667 0.557073 0.560082 0.556887
C44   C     C_R   0.181184 0.437661 0.469460 0.563268
C45   C     C_R   0.961641 0.531788 0.411559 0.140467
C46   C     C_R   0.814557 0.446296 0.440647 0.553167
C47   C     C_R   0.852539 0.497725 0.511600 -0.158909
C48   C     C_R   0.147667 0.497207 0.516124 -0.157449
C49   C     C_3   0.919061 0.570034 0.304650 -0.401745
C50   C     C_3   0.908712 0.648795 0.335544 -0.785270
C51   C     C_3   0.081380 0.429698 0.728600 -0.385126
C52   C     C_3   0.097336 0.483082 0.835476 -0.818613
C53   C     C_3   0.073299 0.564980 0.301936 -0.390512
C54   C     C_3   0.081998 0.511521 0.195086 -0.832808
C55   C     C_3   0.926594 0.426297 0.722414 -0.403408
C56   C     C_R   0.038604 0.464046 0.617774 0.141633
C57   C     C_3   0.911718 0.347662 0.691899 -0.804091
C58   C     C_3   0.615237 0.693136 0.625475 -0.399848
C59   C     C_3   0.638634 0.734716 0.745200 -0.888532
C60   C     C_3   0.413172 0.307066 0.309484 -0.389478
C61   C     C_3   0.340760 0.272959 0.312676 -0.871445
C62   C     C_3   0.385406 0.691489 0.371426 -0.384806
C63   C     C_3   0.361133 0.735742 0.254109 -0.893725
C64   C     C_3   0.592847 0.306386 0.680667 -0.393568
C65   C     C_3   0.665197 0.287585 0.639309 -0.854172
C66   C     C_3   0.428556 0.935933 0.285377 -0.472834
C67   C     C_R   0.034781 0.531160 0.412153 0.145270
C68   C     C_3   0.487168 0.910427 0.205122 -0.693976
C69   C     C_3   0.629762 0.066118 0.581453 -0.454957
C70   C     C_3   0.658165 0.097864 0.459346 -0.764356
C71   C     C_3   0.571553 0.933968 0.716400 -0.476820
C72   C     C_3   0.513449 0.904356 0.796337 -0.690182
C73   C     C_3   0.371248 0.065312 0.420216 -0.444134
C74   C     C_3   0.343154 0.095910 0.541584 -0.762311
C75   C     C_R   0.965392 0.463692 0.616138 0.145313
C76   C     C_R   0.072173 0.497599 0.515598 0.105515
F1    F     F_    0.565252 0.245759 0.110716 -0.592959
F2    F     F_    0.153082 0.614978 0.604844 -0.649581
F3    F     F_    0.144359 0.379268 0.428079 -0.657438
F4    F     F_    0.847242 0.396197 0.373573 -0.647329
F5    F     F_    0.440029 0.754710 0.890385 -0.622479
F6    F     F_    0.469512 0.237960 0.907894 -0.600457
F7    F     F_    0.536710 0.761514 0.091917 -0.635070
F8    F     F_    0.586450 0.639007 0.204450 -0.603665
F9    F     F_    0.416437 0.359992 0.798400 -0.599353
F10   F     F_    0.402508 0.625795 0.787498 -0.615345
F11   F     F_    0.600406 0.375155 0.215071 -0.619064
F12   F     F_    0.855742 0.598516 0.651223 -0.658014
H1    H     H_    0.721367 0.588967 0.633406 0.179388
H2    H     H_    0.959267 0.676406 0.355832 0.262287
H3    H     H_    0.881452 0.675952 0.253095 0.255872
H4    H     H_    0.943222 0.565967 0.211648 0.219767
H5    H     H_    0.867414 0.544569 0.286392 0.228140
H6    H     H_    0.131036 0.527244 0.802006 0.301596
H7    H     H_    0.048929 0.506226 0.869322 0.261223
H8    H     H_    0.125061 0.455453 0.916902 0.252909
H9    H     H_    0.055042 0.381789 0.767416 0.218813
H10   H     H_    0.131047 0.408275 0.697640 0.229614
H11   H     H_    0.115807 0.466883 0.228885 0.295024
H12   H     H_    0.286358 0.604250 0.589724 0.228682
H13   H     H_    0.031104 0.489033 0.160233 0.266184
H14   H     H_    0.106663 0.538939 0.114274 0.251986
H15   H     H_    0.046779 0.613278 0.262767 0.219760
H16   H     H_    0.125296 0.585759 0.333466 0.218274
H17   H     H_    0.875278 0.342999 0.607268 0.292872
H18   H     H_    0.960257 0.319256 0.672773 0.268107
H19   H     H_    0.887503 0.321113 0.774082 0.251665
H20   H     H_    0.955473 0.430160 0.815930 0.219747
H21   H     H_    0.876811 0.452690 0.739308 0.222441
H22   H     H_    0.670084 0.782437 0.719956 0.260289
H23   H     H_    0.278335 0.392394 0.428505 0.196809
H24   H     H_    0.593090 0.751340 0.797973 0.290971
H25   H     H_    0.671838 0.700095 0.809086 0.272654
H26   H     H_    0.597891 0.640816 0.661899 0.252458
H27   H     H_    0.659961 0.687101 0.564149 0.228569
H28   H     H_    0.340088 0.219059 0.269714 0.262771
H29   H     H_    0.323972 0.268749 0.412217 0.279113
H30   H     H_    0.302983 0.306290 0.255724 0.266923
H31   H     H_    0.406485 0.363913 0.327566 0.254347
H32   H     H_    0.431816 0.301903 0.212170 0.200045
H33   H     H_    0.328102 0.780599 0.281906 0.257496
H34   H     H_    0.713428 0.407890 0.381322 0.240292
H35   H     H_    0.406260 0.757050 0.203326 0.303747
H36   H     H_    0.329346 0.701433 0.187478 0.268726
H37   H     H_    0.404297 0.641291 0.332421 0.253476
H38   H     H_    0.340354 0.680453 0.430662 0.222090
H39   H     H_    0.674258 0.229223 0.649814 0.260528
H40   H     H_    0.671194 0.303873 0.538301 0.288809
H41   H     H_    0.705145 0.316273 0.699869 0.257109
H42   H     H_    0.590481 0.364640 0.682158 0.252748
H43   H     H_    0.587374 0.287128 0.779994 0.207235
H44   H     H_    0.525997 0.954139 0.193310 0.248206
H45   H     H_    0.609530 0.830411 0.540576 0.154119
H46   H     H_    0.513380 0.863362 0.250014 0.299796
H47   H     H_    0.465552 0.894705 0.109339 0.278465
H48   H     H_    0.388696 0.893675 0.293656 0.210729
H49   H     H_    0.402396 0.979497 0.228959 0.220549
H50   H     H_    0.651832 0.058827 0.380483 0.264399
H51   H     H_    0.631564 0.148229 0.430630 0.281305
H52   H     H_    0.714319 0.110434 0.475687 0.251804
H53   H     H_    0.634743 0.105011 0.659641 0.205183
H54   H     H_    0.665381 0.021961 0.611342 0.217454
H55   H     H_    0.473670 0.945961 0.808286 0.250448
H56   H     H_    0.455269 0.171135 0.309802 0.176720
H57   H     H_    0.488381 0.856754 0.751176 0.300784
H58   H     H_    0.535299 0.888051 0.892066 0.277474
H59   H     H_    0.612069 0.893606 0.707232 0.209319
H60   H     H_    0.597059 0.977508 0.773538 0.222276
H61   H     H_    0.349062 0.056451 0.621340 0.262611
H62   H     H_    0.370250 0.146464 0.569150 0.276283
H63   H     H_    0.287129 0.107835 0.524909 0.253221
H64   H     H_    0.367096 0.104690 0.341379 0.203722
H65   H     H_    0.335067 0.021005 0.391020 0.216609
H66   H     H_    0.389791 0.827788 0.459536 0.154886
H67   H     H_    0.548630 0.170604 0.688751 0.180050
H68   H     H_    0.876667 0.653768 0.419645 0.294331
N1    N     N_R   0.500000 0.689440 0.500000 -0.118110
N2    N     N_R   0.500000 0.310560 0.500000 -0.113630
O1    O     O_R   0.398180 0.560840 0.499970 -0.635182
O2    O     O_R   0.601820 0.439160 0.500030 -0.611002
O3    O     O_R   0.601820 0.560840 0.500030 -0.625768
O4    O     O_R   0.398180 0.439160 0.499970 -0.612169
O5    O     O_R   0.499990 0.560810 0.316770 -0.608803
O6    O     O_R   0.500010 0.439190 0.683230 -0.618234
O7    O     O_R   0.500010 0.560810 0.683230 -0.613707
O8    O     O_R   0.499990 0.439190 0.316770 -0.626386
Zn1   Zn    Zn3+2 0.500000 0.581210 0.500000 0.991609
Zn2   Zn    Zn3+2 0.500000 0.418790 0.500000 0.997623

loop_
_geom_bond_atom_site_label_1
_geom_bond_atom_site_label_2
_ccdc_geom_bond_type
C51   H9    S    
C72   H55   S    
C66   C68   S    
C70   H52   S    
C8    C13   A    
C56   C76   A    
C27   C29   A    
C73   C74   S    
C48   C76   S    
C54   H13   S    
C71   H59   S    
C35   C36   A    
C4    C8    A    
N1    Zn1   S    
C63   H36   S    
N2    Zn2   S    
C21   C36   S    
C53   C54   S    
C43   F2    S    
C26   C32   A    
C12   C23   S    
C11   C19   S    
C5    C9    A    
C13   C18   S    
C60   H31   S    
C34   C40   A    
C65   H39   S    
C58   H26   S    
C7    H45   S    
C3    C7    A    
C74   H63   S    
C53   H16   S    
C69   H53   S    
C72   H57   S    
C59   H22   S    
C21   O7    A    
C25   C31   A    
C52   H7    S    
C51   C56   S    
C6    C64   S    
C68   H44   S    
C63   H33   S    
C12   O3    A    
C30   F1    S    
C50   H2    S    
C4    N2    A    
C50   H68   S    
C26   F11   S    
C45   C67   A    
C41   C46   A    
C31   C33   A    
C74   H61   S    
C52   H6    S    
C24   F9    S    
C3    C58   S    
C55   C75   S    
C51   H10   S    
C57   H18   S    
C70   H51   S    
O7    Zn1   S    
C56   C75   A    
C55   H21   S    
O8    Zn2   S    
C14   C17   A    
C71   H60   S    
C16   C71   S    
C6    N2    A    
C1    C34   S    
C59   H24   S    
C40   H23   S    
C44   F3    S    
C2    C45   A    
C25   C29   A    
C15   C69   S    
C24   C35   A    
C57   H17   S    
C28   F6    S    
C51   C52   S    
C32   C35   A    
C1    O1    A    
C5    C62   S    
C17   C73   S    
C39   C43   A    
C69   H54   S    
C20   O5    A    
C61   H29   S    
C33   C37   A    
C34   C39   A    
C60   C61   S    
C22   F8    S    
C41   H34   S    
C7    C11   A    
C65   H40   S    
C29   F5    S    
C62   C63   S    
C15   C18   A    
C63   H35   S    
C38   H1    S    
C64   H43   S    
C45   C49   S    
O5    Zn1   S    
C59   H25   S    
C4    C60   S    
C61   H28   S    
C17   C18   A    
C14   C66   S    
C8    H56   S    
C32   C37   A    
C12   O2    A    
C9    C11   A    
O3    Zn1   S    
O4    Zn2   S    
O6    Zn2   S    
C57   H19   S    
C64   H42   S    
C1    O4    A    
C26   C30   A    
C5    N1    A    
C22   C27   A    
C55   C57   S    
C73   H64   S    
C58   H27   S    
C66   H48   S    
C54   H11   S    
C42   F12   S    
C49   H4    S    
C62   H38   S    
C43   C48   A    
C22   C33   A    
C46   C47   A    
C61   H30   S    
C14   C19   A    
C54   H14   S    
C68   H47   S    
C24   C28   A    
C10   C13   A    
C10   H67   S    
C9    H66   S    
C62   H37   S    
C65   H41   S    
C70   H50   S    
C2    C47   S    
C23   C38   A    
C20   O8    A    
C23   C41   A    
C55   H20   S    
C64   C65   S    
C28   C30   A    
C58   C59   S    
C71   C72   S    
C46   F4    S    
C20   C37   S    
C39   H12   S    
C66   H49   S    
C53   H15   S    
C16   C19   A    
C72   H58   S    
C27   F7    S    
C25   F10   S    
O1    Zn1   S    
C68   H46   S    
C52   H8    S    
C42   C47   A    
O2    Zn2   S    
C69   C70   S    
C53   C67   S    
C6    C10   A    
C60   H32   S    
C38   C42   A    
C44   C48   A    
C50   H3    S    
C40   C44   A    
C49   C50   S    
C73   H65   S    
C3    N1    A    
C31   C36   A    
C74   H62   S    
C67   C76   A    
C49   H5    S    
C2    C75   A    
C15   C16   A    
C21   O6    A    
