data_mof_unit_3756.cif
_audit_creation_date              2012-12-11T17:00:14-0500
_audit_creation_method            fapswitch 2.2
_symmetry_space_group_name_H-M    P1
_symmetry_Int_Tables_number       1
_space_group_crystal_system       triclinic
_cell_length_a                    6.958414
_cell_length_b                    13.561968
_cell_length_c                    20.266612
_cell_angle_alpha                 103.087153
_cell_angle_beta                  89.7634
_cell_angle_gamma                 90.797486
_cell_volume                      1862.69922542

loop_
_atom_site_label
_atom_site_type_symbol
_atom_type_description
_atom_site_fract_x
_atom_site_fract_y
_atom_site_fract_z
_atom_type_partial_charge
O1    O     O_R   0.506770 0.599700 0.449550 -0.540642
O2    O     O_R   0.179980 0.595740 0.587960 -0.541422
O3    O     O_R   0.004580 0.400300 0.550450 -0.538283
C1    C     C_R   0.348373 0.618281 0.614864 0.707182
O4    O     O_R   0.177380 0.611700 0.452380 -0.541993
O5    O     O_R   0.001970 0.416370 0.413900 -0.543058
C2    C     C_R   0.347067 0.638370 0.435754 0.689012
O6    O     O_R   0.509390 0.583630 0.586100 -0.528111
O7    O     O_3   0.337530 0.435890 0.487530 -0.374970
V1    V     V_3+5 0.064660 0.511890 0.502310 1.426021
O8    O     O_R   0.671950 0.404260 0.412040 -0.543735
C3    C     C_R   0.840457 0.382662 0.384808 0.685700
O9    O     O_R   0.674540 0.388300 0.547620 -0.536780
C4    C     C_R   0.842162 0.361257 0.564071 0.724599
V2    V     V_3+5 0.564030 0.488110 0.497690 1.433135
O10   O     O_3   0.841030 0.564110 0.512470 -0.368121
C5    C     C_R   0.786971 0.110084 0.611015 -0.156997
H1    H     H_    0.774190 0.160851 0.518293 0.102285
H2    H     H_    0.762308 0.985645 0.694611 0.116979
H3    H     H_    0.752945 0.032449 0.585906 0.110487
C6    C     C_R   0.845208 0.283103 0.603338 -0.039575
C7    C     C_R   0.907169 0.315509 0.929176 -0.165750
C8    C     C_R   0.926713 0.390755 0.893141 -0.120735
C9    C     C_R   0.911102 0.367177 0.822816 -0.162157
C10   C     C_R   0.872430 0.266711 0.786421 0.079767
C11   C     C_R   0.850071 0.189989 0.823885 0.070882
C12   C     C_R   0.855115 0.239881 0.714263 0.066837
C13   C     C_R   0.812525 0.137655 0.681527 0.146755
C14   C     C_R   0.793426 0.063825 0.719316 -0.208958
C15   C     C_R   0.812548 0.089316 0.789279 -0.203391
C16   C     C_R   0.875494 0.311160 0.673292 -0.212052
C17   C     C_R   0.800116 0.182736 0.572356 -0.180279
C18   C     C_R   0.869010 0.215442 0.895380 -0.077019
H4    H     H_    0.909720 0.389565 0.694104 0.120694
H5    H     H_    0.924586 0.335106 0.983729 0.101413
H6    H     H_    0.931157 0.429473 0.798690 0.102485
H7    H     H_    0.956958 0.467990 0.919862 0.116866
H8    H     H_    0.796022 0.029186 0.816103 0.114732
C19   C     C_R   0.715610 0.254629 0.202680 0.096827
C20   C     C_R   0.867458 0.187602 0.182905 -0.110354
C21   C     C_R   0.020016 0.192198 0.229113 -0.167846
H9    H     H_    0.140412 0.142009 0.216124 0.129421
C22   C     C_R   0.012105 0.256257 0.294421 -0.181758
H10   H     H_    0.127246 0.254155 0.329701 0.126995
C23   C     C_R   0.850851 0.317095 0.315585 -0.108131
C24   C     C_R   0.707361 0.317561 0.267374 0.105786
C25   C     C_3   0.496013 0.301778 0.272266 -0.411184
C26   C     C_3   0.504955 0.233606 0.201651 -0.398123
H11   H     H_    0.414926 0.372491 0.274388 0.167684
H12   H     H_    0.429569 0.265033 0.162877 0.172319
H13   H     H_    0.472120 0.152877 0.200499 0.164590
C27   C     C_R   0.495082 0.677940 0.730393 0.116913
C28   C     C_R   0.351968 0.685287 0.683672 -0.146096
C29   C     C_R   0.199970 0.752398 0.706754 -0.188849
H14   H     H_    0.083913 0.759577 0.672900 0.130858
C30   C     C_R   0.200937 0.814853 0.772661 -0.176089
H15   H     H_    0.086731 0.868734 0.787394 0.126702
C31   C     C_R   0.354964 0.812720 0.817169 -0.100017
C32   C     C_R   0.497677 0.740664 0.795167 0.046250
C33   C     C_3   0.711198 0.752758 0.794921 -0.445055
C34   C     C_3   0.708267 0.683995 0.723971 0.045442
H16   H     H_    0.781069 0.719651 0.834022 0.174833
H17   H     H_    0.755944 0.831802 0.795261 0.151134
H18   H     H_    0.755360 0.720964 0.682863 0.128203
C35   C     C_R   0.391529 0.890335 0.389458 -0.158793
H19   H     H_    0.388818 0.840396 0.482635 0.100859
H20   H     H_    0.408324 0.015860 0.306516 0.118674
H21   H     H_    0.408213 0.969212 0.415265 0.111019
C36   C     C_R   0.358644 0.715418 0.395879 -0.028784
C37   C     C_R   0.333060 0.682999 0.069290 -0.169819
C38   C     C_R   0.321103 0.606684 0.104748 -0.119381
C39   C     C_R   0.329803 0.629918 0.175272 -0.158223
C40   C     C_R   0.350621 0.731433 0.212499 0.076600
C41   C     C_R   0.362832 0.809349 0.175697 0.070292
C42   C     C_R   0.359767 0.758250 0.284840 0.071482
C43   C     C_R   0.381266 0.861949 0.318474 0.144007
C44   C     C_R   0.392381 0.936694 0.281205 -0.207554
C45   C     C_R   0.383173 0.910987 0.211025 -0.197276
C46   C     C_R   0.348367 0.685892 0.325248 -0.213508
C47   C     C_R   0.380525 0.817392 0.427912 -0.177968
C48   C     C_R   0.354107 0.783965 0.103995 -0.074264
H22   H     H_    0.331727 0.605982 0.303735 0.091194
H23   H     H_    0.319784 0.566463 0.198876 0.105695
H24   H     H_    0.304946 0.528635 0.077337 0.117254
O11   O     O_R   0.203450 0.916320 0.913910 -0.541784
O12   O     O_R   0.535520 0.888300 0.047620 -0.539339
O13   O     O_R   0.710860 0.083650 0.086100 -0.538874
C49   C     C_R   0.365836 0.861620 0.064239 0.688588
O14   O     O_R   0.532860 0.904250 0.912040 -0.542096
O15   O     O_R   0.708190 0.099710 0.949550 -0.538873
C50   C     C_R   0.364350 0.883089 0.884675 0.702492
O16   O     O_R   0.206120 0.900260 0.050460 -0.538386
O17   O     O_3   0.375280 0.064080 0.012470 -0.371242
V3    V     V_3+5 0.648180 0.988110 0.997690 1.414081
O18   O     O_R   0.038220 0.111740 0.952370 -0.539790
C51   C     C_R   0.870859 0.137739 0.935188 0.687976
O19   O     O_R   0.040880 0.095790 0.087940 -0.545112
C52   C     C_R   0.872696 0.117049 0.115311 0.697089
V4    V     V_3+5 0.148800 0.011950 0.002300 1.411275
O20   O     O_3   0.871820 0.935920 0.987530 -0.370031
H25   H     H_    0.458645 0.260359 0.312112 0.168048
N1    N     N_3   0.797078 0.585697 0.720080 -0.658569
H26   H     H_    0.944440 0.597782 0.728516 0.236900
H27   H     H_    0.743661 0.553288 0.758772 0.224839
H28   H     H_    0.325983 0.663288 0.014450 0.100518
H29   H     H_    0.392190 0.971821 0.184584 0.108521

loop_
_geom_bond_atom_site_label_1
_geom_bond_atom_site_label_2
_ccdc_geom_bond_type
O17   V3    S    
C25   H25   S    
C1    C28   S    
C40   C42   A    
C21   H9    S    
O18   C51   A    
H20   C44   S    
C1    O6    A    
O19   C52   A    
O11   C50   A    
C25   H11   S    
C44   C45   A    
C7    H5    S    
C6    C16   A    
C9    H6    S    
C35   C43   A    
C33   H17   S    
C4    C6    S    
C13   C14   A    
C27   C34   S    
C20   C52   S    
O12   C49   A    
V2    O10   S    
O13   V3    S    
C5    H3    S    
C30   H15   S    
C15   H8    S    
C33   H16   S    
C40   C41   A    
O14   V3    S    
C37   C48   A    
O12   V3    S    
C29   H14   S    
O8    V2    S    
C26   H13   S    
V4    O20   S    
C8    C9    A    
C37   C38   A    
O1    V2    S    
O14   C50   A    
C31   C50   S    
O17   V4    S    
O13   C52   A    
C26   H12   S    
C32   C33   S    
C35   C47   A    
O9    C4    A    
C21   C22   A    
O19   V4    S    
O15   V3    S    
C6    C17   A    
C29   C30   A    
C12   C16   A    
C48   C49   S    
C49   O16   A    
C43   C44   A    
C19   C20   A    
O4    C2    A    
C3    C23   S    
C10   C11   A    
C8    H7    S    
O15   C51   A    
C33   C34   S    
C34   H18   S    
O2    C1    A    
C42   C43   A    
O5    V1    S    
C14   C15   A    
O11   V4    S    
C27   C32   A    
C11   C18   A    
C25   C26   S    
V3    O20   S    
C35   H21   S    
C16   H4    S    
C9    C10   A    
N1    H27   S    
C22   C23   A    
O3    C4    A    
C19   C24   A    
C20   C21   A    
C11   C15   A    
O6    V2    S    
O9    V2    S    
C22   H10   S    
C36   C46   A    
H1    C17   S    
C41   C48   A    
O2    V1    S    
C18   C51   S    
C27   C28   A    
C38   H24   S    
O7    V1    S    
C7    C18   A    
C24   C25   S    
O1    C2    A    
C5    C13   A    
C39   C40   A    
C37   H28   S    
C2    C36   S    
C46   H22   S    
O8    C3    A    
C28   C29   A    
C10   C12   A    
H19   C47   S    
C45   H29   S    
C34   N1    S    
O7    V2    S    
C38   C39   A    
O3    V1    S    
V1    O10   S    
O5    C3    A    
C30   C31   A    
O18   V4    S    
N1    H26   S    
C31   C32   A    
C39   H23   S    
C23   C24   A    
O4    V1    S    
C41   C45   A    
C12   C13   A    
C5    C17   A    
C7    C8    A    
C36   C47   A    
C42   C46   A    
O16   V4    S    
C19   C26   S    
H2    C14   S    
