data_mof_unit_44.cif
_audit_creation_date              2012-12-10T16:46:43-0500
_audit_creation_method            fapswitch 2.2
_symmetry_space_group_name_H-M    P1
_symmetry_Int_Tables_number       1
_space_group_crystal_system       triclinic
_cell_length_a                    15.845609
_cell_length_b                    8.690398
_cell_length_c                    7.441693
_cell_angle_alpha                 102.734118
_cell_angle_beta                  94.113385
_cell_angle_gamma                 92.305507
_cell_volume                      995.320210816

loop_
_atom_site_label
_atom_site_type_symbol
_atom_type_description
_atom_site_fract_x
_atom_site_fract_y
_atom_site_fract_z
_atom_type_partial_charge
C1    C     C_R   0.498688 0.200054 0.454080 0.861330
C2    C     C_3   0.952263 0.407025 0.641216 -0.384166
C3    C     C_3   0.916813 0.495642 0.495291 0.344239
C4    C     C_3   0.955819 0.667622 0.545767 -0.375525
C5    C     C_3   0.053702 0.668462 0.550608 -0.381566
C6    C     C_1   0.824580 0.495621 0.491869 -0.134105
C7    C     C_1   0.175019 0.498081 0.506952 -0.120398
C8    C     C_1   0.250691 0.499011 0.507056 -0.179772
C9    C     C_2   0.494792 0.032534 0.432935 -0.434638
C10   C     C_2   0.527380 0.966298 0.566907 -0.178065
C11   C     C_R   0.340274 0.499641 0.502458 0.828831
C12   C     C_R   0.508563 0.799938 0.545804 0.830924
C13   C     C_R   0.659651 0.499242 0.497376 0.815028
C14   C     C_3   0.050195 0.407911 0.645934 -0.375251
C15   C     C_3   0.042138 0.414020 0.308271 -0.373330
C16   C     C_3   0.944205 0.412903 0.303689 -0.387223
C17   C     C_1   0.749036 0.496924 0.492279 -0.186828
C18   C     C_3   0.082674 0.497066 0.503231 0.335660
Cu1   Cu    Cu3+1 0.509300 0.517380 0.684380 0.956610
Cu2   Cu    Cu3+1 0.490700 0.482620 0.315620 0.944537
H1    H     H_    0.925291 0.282802 0.607631 0.153004
H2    H     H_    0.078278 0.465587 0.787378 0.158539
H3    H     H_    0.933328 0.464074 0.780469 0.156207
H4    H     H_    0.931424 0.733795 0.442614 0.157741
H5    H     H_    0.457325 0.963343 0.311665 0.165294
H6    H     H_    0.435307 0.376091 0.948623 0.225717
H7    H     H_    0.564880 0.623599 0.051304 0.225388
H8    H     H_    0.070192 0.284143 0.614749 0.157910
H9    H     H_    0.064351 0.476216 0.203078 0.157829
H10   H     H_    0.062041 0.290406 0.270754 0.157938
H11   H     H_    0.917192 0.288724 0.264720 0.153333
H12   H     H_    0.919370 0.474128 0.196016 0.156624
H13   H     H_    0.081827 0.730731 0.690373 0.159542
H14   H     H_    0.076295 0.735157 0.449881 0.158543
H15   H     H_    0.936964 0.729677 0.683178 0.159514
N1    N     N_2   0.476670 0.456430 0.038530 -0.209935
N2    N     N_2   0.523330 0.543570 0.961470 -0.210469
O1    O     O_R   0.506050 0.286130 0.619770 -0.564246
O2    O     O_R   0.490330 0.256780 0.308370 -0.594841
O3    O     O_R   0.387300 0.514690 0.655770 -0.583439
O4    O     O_R   0.371580 0.485340 0.344370 -0.574961
O5    O     O_R   0.509670 0.743220 0.691630 -0.592607
O6    O     O_R   0.493950 0.713870 0.380230 -0.588549
O7    O     O_R   0.628420 0.514660 0.655630 -0.568390
O8    O     O_R   0.612700 0.485310 0.344230 -0.585415
C19   C     C_R   0.591864 0.049080 0.717491 0.143557
C20   C     C_R   0.579800 0.055980 0.904459 -0.106716
C21   C     C_R   0.641824 0.130744 0.042949 -0.102304
C22   C     C_R   0.715530 0.201196 0.996654 -0.123588
C23   C     C_R   0.728008 0.195464 0.811504 -0.135497
C24   C     C_R   0.666885 0.118860 0.672341 -0.117437
H16   H     H_    0.522428 0.004505 0.943311 0.137804
H17   H     H_    0.632919 0.134164 0.186424 0.129370
H18   H     H_    0.763050 0.259837 0.104254 0.122870
H19   H     H_    0.785219 0.249776 0.775712 0.120608
H20   H     H_    0.677936 0.113998 0.529299 0.094769

loop_
_geom_bond_atom_site_label_1
_geom_bond_atom_site_label_2
_ccdc_geom_bond_type
C10   C19   S    
C15   C18   S    
C15   H9    S    
C20   H16   S    
Cu1   O1    S    
C6    C17   T    
C16   H12   S    
C9    C10   D    
C14   C18   S    
C23   H19   S    
Cu1   O5    S    
C13   C17   S    
C3    C6    S    
C5    H14   S    
C14   H2    S    
C2    H1    S    
C23   C24   A    
C3    C4    S    
C4    H15   S    
C9    H5    S    
C7    C8    T    
C7    C18   S    
C16   H11   S    
C13   O8    A    
C21   H17   S    
C10   C12   S    
C1    O1    A    
H7    N2    S    
C8    C11   S    
Cu2   O4    S    
C15   C16   S    
H6    N1    S    
N1    N2    D    
C11   O4    A    
C12   O6    A    
C2    C3    S    
C11   O3    A    
C4    H4    S    
Cu1   O3    S    
C1    O2    A    
C22   H18   S    
Cu2   N1    S    
C20   C21   A    
Cu2   O6    S    
C1    C9    S    
Cu1   O7    S    
C15   H10   S    
C24   H20   S    
Cu2   O8    S    
C2    C14   S    
C2    H3    S    
C22   C23   A    
Cu2   O2    S    
C19   C20   A    
C21   C22   A    
C12   O5    A    
C5    C18   S    
Cu1   N2    S    
C14   H8    S    
C19   C24   A    
C13   O7    A    
C3    C16   S    
Cu1   Cu2   S    
C4    C5    S    
C5    H13   S    
