data_mof_unit_564.cif
_audit_creation_date              2012-12-11T16:26:30-0500
_audit_creation_method            fapswitch 2.2
_symmetry_space_group_name_H-M    P1
_symmetry_Int_Tables_number       1
_space_group_crystal_system       triclinic
_cell_length_a                    6.937127
_cell_length_b                    17.546755
_cell_length_c                    19.428377
_cell_angle_alpha                 108.604759
_cell_angle_beta                  89.588585
_cell_angle_gamma                 90.581953
_cell_volume                      2241.18089533

loop_
_atom_site_label
_atom_site_type_symbol
_atom_type_description
_atom_site_fract_x
_atom_site_fract_y
_atom_site_fract_z
_atom_type_partial_charge
O1    O     O_R   0.494330 0.415720 0.413720 -0.536611
O2    O     O_R   0.819330 0.430070 0.560210 -0.542378
O3    O     O_R   0.994320 0.584280 0.586280 -0.536344
C1    C     C_R   0.650215 0.415424 0.582196 0.705339
O4    O     O_R   0.823730 0.406300 0.412670 -0.536984
O5    O     O_R   0.998760 0.560340 0.437690 -0.544193
C2    C     C_R   0.654928 0.383488 0.385039 0.697376
O6    O     O_R   0.489890 0.439660 0.562310 -0.544319
O7    O     O_3   0.662340 0.550560 0.508380 -0.368685
V1    V     V_3+5 0.935370 0.490620 0.498450 1.412344
O8    O     O_R   0.328750 0.569930 0.439790 -0.541919
C3    C     C_R   0.160770 0.584902 0.418035 0.701994
O9    O     O_R   0.324340 0.593700 0.587330 -0.537190
C4    C     C_R   0.155502 0.616412 0.615053 0.697152
V2    V     V_3+5 0.435940 0.509380 0.501550 1.411992
O10   O     O_3   0.159100 0.449440 0.491620 -0.368405
H1    H     H_    0.894757 0.854210 0.568580 0.113974
C5    C     C_R   0.278395 0.600116 0.751777 -0.144380
C6    C     C_R   0.336056 0.589995 0.816859 -0.125564
C7    C     C_R   0.322845 0.653408 0.881484 -0.122962
C8    C     C_R   0.252188 0.727469 0.881503 -0.126680
C9    C     C_R   0.193863 0.739805 0.816184 0.069630
C10   C     C_R   0.207003 0.674774 0.749958 0.067730
C11   C     C_R   0.119812 0.814903 0.816306 -0.184404
C12   C     C_R   0.058067 0.824890 0.750281 0.068077
C13   C     C_R   0.070883 0.759833 0.684079 0.070509
C14   C     C_R   0.145578 0.684801 0.683882 -0.185018
C15   C     C_R   0.986274 0.899519 0.748529 -0.145827
C16   C     C_R   0.927302 0.909512 0.683568 -0.122915
C17   C     C_R   0.939736 0.846020 0.618987 -0.119676
C18   C     C_R   0.011276 0.772059 0.618867 -0.131454
H2    H     H_    0.289286 0.548578 0.703188 0.107139
H3    H     H_    0.390210 0.532444 0.817162 0.117186
H4    H     H_    0.366519 0.645089 0.931988 0.118413
H5    H     H_    0.242391 0.774518 0.933355 0.099649
H6    H     H_    0.975831 0.951119 0.797083 0.107308
H7    H     H_    0.872629 0.967009 0.683330 0.117647
H8    H     H_    0.020519 0.724984 0.567019 0.100216
C19   C     C_R   0.307767 0.633041 0.320730 -0.190507
C20   C     C_R   0.153331 0.633849 0.368341 -0.087468
C21   C     C_R   0.990669 0.680776 0.367519 -0.231013
C22   C     C_R   0.982818 0.727226 0.320611 0.104315
C23   C     C_R   0.137243 0.725140 0.272230 0.042721
C24   C     C_R   0.299506 0.677493 0.272034 0.047976
C25   C     C_R   0.823634 0.776207 0.321623 -0.211410
C26   C     C_R   0.816434 0.822355 0.274867 -0.142177
C27   C     C_R   0.967605 0.819925 0.225839 0.138215
C28   C     C_R   0.129770 0.771326 0.224587 -0.030810
C29   C     C_R   0.284340 0.769408 0.176158 0.015705
C30   C     C_R   0.445483 0.720007 0.174365 0.408194
C31   C     C_R   0.451754 0.675213 0.223567 -0.304168
C32   C     C_R   0.958972 0.865412 0.178218 -0.159132
C33   C     C_R   0.112260 0.864785 0.130412 -0.128222
C34   C     C_R   0.274302 0.817074 0.129974 -0.205163
H9    H     H_    0.433076 0.596554 0.320648 0.122642
H10   H     H_    0.871438 0.682212 0.404305 0.125915
H11   H     H_    0.704168 0.778689 0.358503 0.132949
H12   H     H_    0.691441 0.859492 0.276606 0.124562
H13   H     H_    0.834092 0.902444 0.179226 0.124066
H14   H     H_    0.391311 0.816420 0.092549 0.174055
H15   H     H_    0.576578 0.639571 0.225633 0.124617
C35   C     C_R   0.784121 0.181966 0.866491 -0.235296
C36   C     C_R   0.622841 0.133261 0.867966 -0.083204
C37   C     C_R   0.466257 0.131345 0.821657 -0.214507
C38   C     C_R   0.469910 0.177071 0.774152 0.086348
C39   C     C_R   0.630641 0.226811 0.773801 0.051217
C40   C     C_R   0.787942 0.229522 0.820358 0.092551
C41   C     C_R   0.315483 0.173985 0.727000 -0.184787
C42   C     C_R   0.318839 0.220653 0.680490 -0.188578
C43   C     C_R   0.476740 0.271190 0.680246 0.092084
C44   C     C_R   0.634013 0.273934 0.726823 0.051204
C45   C     C_R   0.794777 0.323649 0.726441 0.087045
C46   C     C_R   0.949104 0.326805 0.773658 -0.186018
C47   C     C_R   0.945746 0.280134 0.820172 -0.190436
C48   C     C_R   0.480726 0.318593 0.633992 -0.234568
C49   C     C_R   0.642142 0.367173 0.632398 -0.083484
C50   C     C_R   0.798602 0.369224 0.678802 -0.214526
H16   H     H_    0.904763 0.184068 0.902250 0.125349
H17   H     H_    0.342019 0.093437 0.821999 0.123855
H18   H     H_    0.191261 0.135827 0.726424 0.132628
H19   H     H_    0.197253 0.217517 0.644951 0.133291
H20   H     H_    0.360130 0.316430 0.598197 0.125521
H21   H     H_    0.922891 0.407083 0.678397 0.123761
H22   H     H_    0.073307 0.364977 0.774245 0.132213
H23   H     H_    0.067313 0.283282 0.855722 0.132597
H24   H     H_    0.370354 0.146665 0.430387 0.113720
C51   C     C_R   0.789535 0.399516 0.248964 -0.143369
C52   C     C_R   0.854033 0.409398 0.184235 -0.128151
C53   C     C_R   0.842277 0.345861 0.119644 -0.122816
C54   C     C_R   0.765818 0.271981 0.119276 -0.130322
C55   C     C_R   0.700302 0.259902 0.184242 0.070150
C56   C     C_R   0.712503 0.324987 0.250463 0.068060
C57   C     C_R   0.619999 0.185052 0.183761 -0.185474
C58   C     C_R   0.551573 0.175324 0.249472 0.068124
C59   C     C_R   0.563862 0.240394 0.315694 0.070309
C60   C     C_R   0.644531 0.315183 0.316203 -0.185647
C61   C     C_R   0.473726 0.100912 0.250926 -0.146006
C62   C     C_R   0.408295 0.091171 0.315592 -0.124813
C63   C     C_R   0.420280 0.154673 0.380196 -0.119923
C64   C     C_R   0.497776 0.228398 0.380627 -0.131503
H25   H     H_    0.799561 0.451172 0.297511 0.107970
H26   H     H_    0.912400 0.466852 0.184171 0.111646
H27   H     H_    0.891540 0.353968 0.069413 0.111321
H28   H     H_    0.757256 0.224889 0.067411 0.100334
H29   H     H_    0.463551 0.049257 0.202388 0.109801
H30   H     H_    0.349020 0.033845 0.315594 0.116956
H31   H     H_    0.506458 0.275456 0.432507 0.101052
O11   O     O_R   0.775200 0.060470 0.937800 -0.544841
O12   O     O_R   0.441110 0.093720 0.087350 -0.537343
O13   O     O_R   0.266330 0.939630 0.062280 -0.545046
C65   C     C_R   0.609861 0.116676 0.114961 0.696744
O14   O     O_R   0.445750 0.069950 0.939820 -0.542785
O15   O     O_R   0.271000 0.915700 0.913700 -0.536647
C66   C     C_R   0.614872 0.084771 0.917971 0.703517
O16   O     O_R   0.770530 0.084400 0.086380 -0.537190
O17   O     O_3   0.602830 0.949510 0.991680 -0.366638
V3    V     V_3+5 0.329710 0.009370 0.001550 1.414531
O18   O     O_R   0.940990 0.906170 0.912570 -0.537442
C67   C     C_R   0.109907 0.883334 0.885051 0.695780
O19   O     O_R   0.936350 0.929940 0.060100 -0.537370
C68   C     C_R   0.104415 0.914665 0.081570 0.706247
V4    V     V_3+5 0.829160 0.990450 0.998310 1.421937
O20   O     O_3   0.105910 0.050480 0.008320 -0.369530
O21   O     O_3   0.598730 0.723180 0.128332 -0.558940
C69   C     C_3   0.700651 0.650184 0.102408 0.094454
H32   H     H_    0.601144 0.597212 0.086058 0.111307
H33   H     H_    0.803015 0.644874 0.144390 0.131886
C70   C     C_3   0.818300 0.650379 0.036069 -0.704030
H34   H     H_    0.921880 0.701661 0.050698 0.231199
H35   H     H_    0.900111 0.593481 0.015207 0.172921
H36   H     H_    0.721335 0.655857 0.992676 0.217972

loop_
_geom_bond_atom_site_label_1
_geom_bond_atom_site_label_2
_ccdc_geom_bond_type
C41   H18   S    
C51   C52   A    
C57   C58   A    
C21   C22   A    
C59   C60   A    
C31   H15   S    
C48   C49   A    
C70   H34   S    
O14   C66   A    
C61   C62   A    
O12   V3    S    
C34   H14   S    
C33   C34   A    
O19   C68   A    
C12   C15   A    
C2    C60   S    
C25   H11   S    
C13   C14   A    
C35   C36   A    
O17   V4    S    
C35   C40   A    
C15   C16   A    
O12   C65   A    
O13   C68   A    
O5    C3    A    
C17   C18   A    
C50   H21   S    
C29   C34   A    
C62   C63   A    
C56   C60   A    
O17   V3    S    
C5    C6    A    
C46   C47   A    
O11   C66   A    
O18   C67   A    
C45   C50   A    
O15   C67   A    
C36   C66   S    
O8    V2    S    
C19   H9    S    
C6    C7    A    
C41   C42   A    
C11   C67   S    
C69   C70   S    
C43   C44   A    
O1    V2    S    
C10   C14   A    
C4    C14   S    
C23   C28   A    
C46   H22   S    
C1    O6    A    
C61   H29   S    
C52   C53   A    
C39   C40   A    
C13   C18   A    
O16   V4    S    
C51   H25   S    
O9    C4    A    
C53   H27   S    
H1    C17   S    
C42   C43   A    
O13   V3    S    
O19   V4    S    
C5    C10   A    
C27   C28   A    
C30   O21   S    
C11   C12   A    
C6    H3    S    
C53   C54   A    
C19   C20   A    
O4    C2    A    
C59   C64   A    
C58   C61   A    
C12   C13   A    
C25   C26   A    
C22   C25   A    
C3    C20   S    
O2    C1    A    
C23   C24   A    
C21   H10   S    
C16   C17   A    
C32   H13   S    
C55   C57   A    
C65   O16   A    
C63   C64   A    
C38   C41   A    
C30   C31   A    
C40   C47   A    
C49   C50   A    
H24   C63   S    
C54   H28   S    
C19   C24   A    
O3    C4    A    
C39   C44   A    
C57   C65   S    
O15   V3    S    
C24   C31   A    
C28   C29   A    
C38   C39   A    
O6    V2    S    
O9    V2    S    
C69   H32   S    
C37   H17   S    
C9    C11   A    
C5    H2    S    
C22   C23   A    
O2    V1    S    
C70   H36   S    
C55   C56   A    
C51   C56   A    
C32   C33   A    
O7    V1    S    
C26   C27   A    
C20   C21   A    
C64   H31   S    
O1    C2    A    
C35   H16   S    
O11   V4    S    
C45   C46   A    
C70   H35   S    
O5    V1    S    
C52   H26   S    
O8    C3    A    
C48   H20   S    
C27   C32   A    
C8    H5    S    
C62   H30   S    
C18   H8    S    
C37   C38   A    
V3    O20   S    
C7    H4    S    
O4    V1    S    
O3    V1    S    
C33   C68   S    
C54   C55   A    
O14   V3    S    
O18   V4    S    
C47   H23   S    
O7    V2    S    
C58   C59   A    
C1    C49   S    
C42   H19   S    
C36   C37   A    
C44   C45   A    
C7    C8    A    
C15   H6    S    
C29   C30   A    
C16   H7    S    
C43   C48   A    
C69   H33   S    
C9    C10   A    
V1    O10   S    
V4    O20   S    
C8    C9    A    
C26   H12   S    
V2    O10   S    
O21   C69   S    
