data_mof_unit_4638.cif
_audit_creation_date              2012-12-10T17:17:30-0500
_audit_creation_method            fapswitch 2.2
_symmetry_space_group_name_H-M    P1
_symmetry_Int_Tables_number       1
_space_group_crystal_system       triclinic
_cell_length_a                    10.213297
_cell_length_b                    10.66482
_cell_length_c                    12.364631
_cell_angle_alpha                 90.584776
_cell_angle_beta                  109.145379
_cell_angle_gamma                 94.437356
_cell_volume                      1267.58141539

loop_
_atom_site_label
_atom_site_type_symbol
_atom_type_description
_atom_site_fract_x
_atom_site_fract_y
_atom_site_fract_z
_atom_type_partial_charge
C1    C     C_R   0.051305 0.733986 0.495060 0.798679
C2    C     C_R   0.204039 0.503286 0.838969 -0.159105
C3    C     C_2   0.082907 0.869803 0.509331 0.282229
C4    C     C_R   0.133079 0.505008 0.714434 0.878248
C5    C     C_2   0.019446 0.930119 0.571784 -0.246570
C6    C     C_2   0.924512 0.130681 0.516314 0.040839
C7    C     C_2   0.028968 0.065422 0.581117 0.266815
C8    C     C_2   0.429838 0.515529 0.508828 0.495035
C9    C     C_2   0.571131 0.479837 0.505651 -0.234751
C10   C     C_R   0.949852 0.266224 0.508239 0.914876
C11   C     C_R   0.866868 0.490402 0.286573 0.875776
C12   C     C_R   0.420976 0.491554 0.996356 -0.084042
C13   C     C_R   0.743690 0.341606 0.995499 -0.219193
C14   C     C_R   0.792748 0.470105 0.166090 -0.089206
C15   C     C_R   0.143828 0.556801 0.912567 -0.397593
C16   C     C_R   0.218290 0.576526 0.029542 0.425186
C17   C     C_R   0.361217 0.553697 0.070999 0.403904
C18   C     C_3   0.785956 0.065983 0.444384 -0.972029
C19   C     C_3   0.294776 0.930154 0.493662 0.113078
C20   C     C_3   0.369275 0.027188 0.440059 -0.862490
C21   C     C_3   0.489067 0.625578 0.682362 0.137740
C22   C     C_3   0.440365 0.728460 0.742636 -0.857210
C23   C     C_R   0.334099 0.453695 0.884732 -0.018259
C24   C     C_3   0.550147 0.236574 0.777936 -0.971937
C25   C     C_3   0.425055 0.697888 0.227278 0.157778
C26   C     C_3   0.566960 0.757825 0.301078 -0.909384
C27   C     C_3   0.063741 0.705368 0.069095 0.031541
C28   C     C_3   0.049348 0.775249 0.172013 -0.765520
C29   C     C_3   0.159386 0.125916 0.666160 -0.935133
C30   C     C_R   0.562443 0.461925 0.027528 0.075799
C31   C     C_R   0.605643 0.375860 0.958857 0.144349
C32   C     C_R   0.510587 0.326075 0.855605 0.157599
C33   C     C_R   0.377822 0.365929 0.820694 -0.212695
C34   C     C_R   0.664286 0.517633 0.123578 -0.205029
C35   C     C_R   0.835552 0.385655 0.100629 -0.168936
H1    H     H_    0.936944 0.349496 0.132743 0.179595
H2    H     H_    0.714022 0.135096 0.397279 0.249003
H3    H     H_    0.800814 0.999304 0.380649 0.267619
H4    H     H_    0.737085 0.013494 0.500343 0.243781
H5    H     H_    0.324371 0.835806 0.476754 0.209103
H6    H     H_    0.330762 0.951963 0.587695 0.141999
H7    H     H_    0.341264 0.122918 0.454904 0.256057
H8    H     H_    0.483479 0.024343 0.479397 0.211258
H9    H     H_    0.339482 0.006705 0.346441 0.254925
H10   H     H_    0.603333 0.642901 0.706552 0.110430
H11   H     H_    0.467251 0.534084 0.716072 0.169690
H12   H     H_    0.960078 0.880277 0.619144 0.133380
H13   H     H_    0.325114 0.723732 0.714019 0.255877
H14   H     H_    0.480371 0.717254 0.836751 0.209656
H15   H     H_    0.480895 0.822121 0.723382 0.226168
H16   H     H_    0.463368 0.210710 0.697569 0.239855
H17   H     H_    0.637248 0.281566 0.753005 0.245296
H18   H     H_    0.581581 0.148489 0.822709 0.248572
H19   H     H_    0.357471 0.690078 0.281770 0.213129
H20   H     H_    0.381654 0.764107 0.157705 0.119818
H21   H     H_    0.629070 0.790601 0.246457 0.232342
H22   H     H_    0.553559 0.840431 0.350636 0.225453
H23   H     H_    0.575503 0.388841 0.467531 0.161397
H24   H     H_    0.624202 0.689524 0.361556 0.300845
H25   H     H_    0.958729 0.663833 0.015982 0.164535
H26   H     H_    0.104412 0.775520 0.019041 0.125680
H27   H     H_    0.151914 0.820814 0.225631 0.252893
H28   H     H_    0.975791 0.848959 0.142520 0.205919
H29   H     H_    0.009150 0.709058 0.224618 0.255764
H30   H     H_    0.221070 0.055674 0.722251 0.237807
H31   H     H_    0.224293 0.170953 0.618813 0.258066
H32   H     H_    0.131159 0.193579 0.721948 0.217316
H33   H     H_    0.676088 0.645121 0.565029 0.184063
H34   H     H_    0.323813 0.364704 0.414414 0.116636
H35   H     H_    0.780008 0.276071 0.946647 0.161178
H36   H     H_    0.646761 0.596742 0.169166 0.208227
H37   H     H_    0.037586 0.581380 0.878690 0.177831
H38   H     H_    0.310323 0.329797 0.739796 0.186250
N1    N     N_2   0.313640 0.446500 0.454900 -0.202873
N2    N     N_2   0.686360 0.553430 0.545150 -0.205348
O1    O     O_R   0.936910 0.692950 0.509080 -0.637775
O2    O     O_3   0.421534 0.628412 0.562540 -0.607849
O3    O     O_3   0.436132 0.574778 0.187182 -0.618624
O4    O     O_3   0.153189 0.608376 0.107791 -0.602642
O5    O     O_R   0.138320 0.658600 0.480130 -0.555272
O6    O     O_R   0.002900 0.525670 0.675280 -0.610226
O7    O     O_R   0.204310 0.491320 0.646330 -0.608504
O8    O     O_R   0.861680 0.341400 0.519870 -0.605558
O9    O     O_R   0.063090 0.307050 0.490920 -0.613949
O10   O     O_R   0.795690 0.508680 0.353670 -0.588377
O11   O     O_R   0.997100 0.474330 0.324720 -0.590489
O12   O     O_3   0.149994 0.935778 0.443808 -0.603472
Zn1   Zn    Zn3+2 0.865520 0.522940 0.519330 0.925381
Zn2   Zn    Zn3+2 0.134480 0.477060 0.480670 0.977776

loop_
_geom_bond_atom_site_label_1
_geom_bond_atom_site_label_2
_ccdc_geom_bond_type
C24   H17   S    
C22   H13   S    
C7    C29   S    
C19   C20   S    
H33   N2    S    
C15   H37   S    
C5    H12   S    
C12   C23   A    
O7    Zn2   S    
N1    Zn2   S    
C18   H2    S    
C13   C35   A    
C19   O12   S    
C27   H25   S    
C30   C31   A    
C11   C14   S    
C13   H35   S    
C11   O11   A    
C15   C16   A    
C10   O8    A    
C9    H23   S    
O5    Zn2   S    
C27   H26   S    
C29   H32   S    
C4    O6    A    
C35   H1    S    
C8    C9    S    
C23   C33   A    
C12   C17   A    
C26   H24   S    
O1    Zn1   S    
C22   H15   S    
C24   H16   S    
O8    Zn1   S    
C21   C22   S    
C20   H9    S    
C21   H10   S    
C6    C18   S    
C30   C34   A    
C3    O12   S    
C25   O3    S    
C25   H19   S    
C14   C35   A    
C5    C7    S    
C16   C17   A    
C24   H18   S    
C1    C3    S    
C2    C4    S    
C18   H4    S    
C24   C32   S    
C14   C34   A    
C31   C32   A    
C8    N1    D    
H34   N1    S    
C25   C26   S    
C2    C15   A    
C22   H14   S    
C29   H30   S    
C28   H29   S    
C33   H38   S    
C8    O2    S    
O9    Zn2   S    
C2    C23   A    
C20   H8    S    
C21   H11   S    
O10   Zn1   S    
C12   C30   A    
C1    O1    A    
C13   C31   A    
C25   H20   S    
C3    C5    D    
O11   Zn2   S    
C26   H21   S    
C6    C10   S    
C20   H7    S    
C6    C7    D    
C27   O4    S    
C16   O4    S    
C32   C33   A    
C18   H3    S    
C11   O10   A    
C10   O9    A    
C17   O3    S    
C26   H22   S    
O6    Zn1   S    
C19   H5    S    
C29   H31   S    
C28   H28   S    
N2    Zn1   S    
C4    O7    A    
C21   O2    S    
C27   C28   S    
C1    O5    A    
C9    N2    D    
C34   H36   S    
C19   H6    S    
C28   H27   S    
