data_mof_unit_1905.cif
_audit_creation_date              2012-12-10T18:47:04-0500
_audit_creation_method            fapswitch 2.2
_symmetry_space_group_name_H-M    P1
_symmetry_Int_Tables_number       1
_space_group_crystal_system       triclinic
_cell_length_a                    10.718795
_cell_length_b                    9.822864
_cell_length_c                    15.014469
_cell_angle_alpha                 89.93747
_cell_angle_beta                  90.11835
_cell_angle_gamma                 90.006312
_cell_volume                      1580.85809014

loop_
_atom_site_label
_atom_site_type_symbol
_atom_type_description
_atom_site_fract_x
_atom_site_fract_y
_atom_site_fract_z
_atom_type_partial_charge
C1    C     C_R   0.259818 0.499992 0.499937 0.869484
C2    C     C_R   0.740182 0.500007 0.500066 0.871643
C3    C     C_R   0.449563 0.257763 0.047479 -0.259400
C4    C     C_R   0.542286 0.743638 0.952542 -0.264862
C5    C     C_R   0.063940 0.378420 0.516686 -0.195941
C6    C     C_R   0.936062 0.621581 0.483327 -0.193910
C7    C     C_R   0.936138 0.378445 0.516783 -0.192128
C8    C     C_R   0.063864 0.621557 0.483229 -0.192868
C9    C     C_R   0.872596 0.500020 0.500082 -0.012985
C10   C     C_R   0.127405 0.499981 0.499928 -0.012679
C11   C     C_R   0.574964 0.071930 0.557261 -0.074271
C12   C     C_R   0.425043 0.928070 0.442733 -0.075892
C13   C     C_R   0.425044 0.072100 0.442732 -0.075759
C14   C     C_R   0.574961 0.927900 0.557263 -0.074114
C15   C     C_R   0.499739 0.500102 0.326544 0.897223
C16   C     C_R   0.499894 0.499922 0.673459 0.895913
C17   C     C_R   0.520415 0.621062 0.814962 -0.238984
C18   C     C_R   0.474851 0.379611 0.185089 -0.239267
C19   C     C_R   0.498658 0.499783 0.769289 -0.088173
C20   C     C_R   0.498494 0.500518 0.230716 -0.088979
C21   C     C_R   0.475115 0.378518 0.814902 -0.250268
C22   C     C_R   0.520445 0.622089 0.185055 -0.247734
C23   C     C_R   0.472728 0.376977 0.907427 0.107282
C24   C     C_R   0.519356 0.624341 0.092548 0.108247
C25   C     C_R   0.495864 0.500092 0.953644 0.021939
C26   C     C_R   0.495986 0.501274 0.046352 0.020033
C27   C     C_R   0.519512 0.622122 0.907000 0.103955
C28   C     C_R   0.473381 0.379036 0.093023 0.105531
C29   C     C_R   0.448350 0.255426 0.954507 0.096618
C30   C     C_R   0.542093 0.746238 0.045490 0.097919
H1    H     H_    0.539080 0.714665 0.778939 0.159333
H2    H     H_    0.457030 0.285868 0.221174 0.157110
H3    H     H_    0.458253 0.285700 0.777900 0.181287
H4    H     H_    0.539474 0.714486 0.221986 0.183232
H5    H     H_    0.431471 0.164949 0.084408 0.135804
H6    H     H_    0.560022 0.836586 0.915648 0.150162
H7    H     H_    0.112641 0.283944 0.530226 0.157381
H8    H     H_    0.887362 0.716059 0.469789 0.158377
H9    H     H_    0.887497 0.283988 0.530402 0.154458
H10   H     H_    0.112504 0.716013 0.469609 0.154235
H11   H     H_    0.634856 0.126577 0.602979 0.126240
H12   H     H_    0.365161 0.873423 0.397007 0.123494
H13   H     H_    0.365174 0.126881 0.396997 0.123771
H14   H     H_    0.634836 0.873119 0.602994 0.125086
N1    N     N_R   0.500000 0.857200 0.500000 -0.080300
N2    N     N_R   0.500000 0.142800 0.500000 -0.080642
O1    O     O_R   0.316770 0.614620 0.499990 -0.626641
O2    O     O_R   0.683230 0.385380 0.500010 -0.626047
O3    O     O_R   0.683230 0.614620 0.500010 -0.628741
O4    O     O_R   0.316770 0.385380 0.499990 -0.629618
O5    O     O_R   0.499980 0.614680 0.367850 -0.629250
O6    O     O_R   0.500020 0.385320 0.632150 -0.628933
O7    O     O_R   0.500020 0.614680 0.632150 -0.624874
O8    O     O_R   0.499980 0.385320 0.367850 -0.624198
Zn1   Zn    Zn3+2 0.500000 0.653120 0.500000 0.947772
Zn2   Zn    Zn3+2 0.500000 0.346880 0.500000 0.947645
N3    N     N_3   0.422784 0.130508 0.907935 -0.476842
H15   H     H_    0.335044 0.140488 0.878088 0.183615
H16   H     H_    0.415697 0.049239 0.952663 0.178213
N4    N     N_3   0.565427 0.871592 0.092107 -0.466868
H17   H     H_    0.480638 0.903856 0.119145 0.166853
H18   H     H_    0.594069 0.947659 0.047866 0.191315

loop_
_geom_bond_atom_site_label_1
_geom_bond_atom_site_label_2
_ccdc_geom_bond_type
C12   H12   S    
C4    H6    S    
C2    O3    A    
C5    H7    S    
C25   C27   A    
C5    C7    A    
C1    O4    A    
C26   C28   A    
C3    H5    S    
C6    C9    A    
O7    Zn1   S    
O1    Zn1   S    
C4    C30   A    
C5    C10   A    
N4    H18   S    
N3    H15   S    
C15   C20   S    
C18   H2    S    
N4    H17   S    
C16   C19   S    
C17   H1    S    
C23   C29   A    
C22   C24   A    
C14   H14   S    
C3    C28   A    
C17   C19   A    
C24   C26   A    
C11   H11   S    
C14   N1    A    
C15   O5    A    
C23   C25   A    
C21   C23   A    
C13   N2    A    
C22   H4    S    
C11   C14   A    
O8    Zn2   S    
N3    H16   S    
C24   C30   A    
C21   H3    S    
C20   C22   A    
C17   C27   A    
C15   O8    A    
C7    C9    A    
C13   H13   S    
C4    C27   A    
C18   C28   A    
C12   C13   A    
N1    Zn1   S    
C18   C20   A    
O2    Zn2   S    
N2    Zn2   S    
C16   O6    A    
C3    C29   A    
C7    H9    S    
C16   O7    A    
C1    O1    A    
C11   N2    A    
C6    C8    A    
C8    H10   S    
O5    Zn1   S    
C2    O2    A    
C25   C26   A    
O3    Zn1   S    
C2    C9    S    
C6    H8    S    
C8    C10   A    
O4    Zn2   S    
C1    C10   S    
O6    Zn2   S    
C29   N3    S    
C12   N1    A    
C19   C21   A    
C30   N4    S    
