data_mof_unit_602.cif
_audit_creation_date              2012-12-10T17:42:38-0500
_audit_creation_method            fapswitch 2.2
_symmetry_space_group_name_H-M    P1
_symmetry_Int_Tables_number       1
_space_group_crystal_system       triclinic
_cell_length_a                    9.944169
_cell_length_b                    10.603361
_cell_length_c                    13.123236
_cell_angle_alpha                 89.573626
_cell_angle_beta                  70.29843
_cell_angle_gamma                 88.971727
_cell_volume                      1302.52191938

loop_
_atom_site_label
_atom_site_type_symbol
_atom_type_description
_atom_site_fract_x
_atom_site_fract_y
_atom_site_fract_z
_atom_type_partial_charge
C1    C     C_R   0.500088 0.739209 0.498105 0.863262
C2    C     C_R   0.432054 0.472498 0.984425 0.078445
C3    C     C_R   0.461778 0.438375 0.875584 0.086248
C4    C     C_R   0.541559 0.456181 0.029704 0.068651
C5    C     C_R   0.668325 0.387332 0.973482 0.182849
C6    C     C_R   0.685684 0.337205 0.872002 -0.253531
C7    C     C_R   0.583703 0.362309 0.823452 -0.200130
C8    C     C_R   0.529391 0.509441 0.128735 -0.237502
C9    C     C_R   0.753171 0.413016 0.124781 -0.220571
C10   C     C_R   0.369594 0.483286 0.821422 -0.115796
C11   C     C_R   0.694409 0.866520 0.312146 -0.104965
C12   C     C_R   0.420755 0.493335 0.703733 0.836106
C13   C     C_R   0.789000 0.931354 0.225268 -0.115194
C14   C     C_R   0.791210 0.062522 0.226129 -0.132206
C15   C     C_R   0.698867 0.129207 0.313891 -0.179005
C16   C     C_R   0.603341 0.064807 0.403162 0.098212
C17   C     C_R   0.601190 0.932817 0.402373 0.119055
C18   C     C_R   0.502609 0.871446 0.491440 -0.036003
C19   C     C_R   0.406500 0.936422 0.577803 -0.184832
C20   C     C_R   0.407951 0.065253 0.578162 -0.189273
C21   C     C_R   0.506351 0.128221 0.492679 -0.082309
C22   C     C_R   0.814139 0.687826 0.615439 -0.124141
C23   C     C_R   0.501838 0.260683 0.498286 0.849614
C24   C     C_R   0.871231 0.792193 0.649780 -0.257593
C25   C     C_R   0.017265 0.814895 0.604659 -0.249569
C26   C     C_R   0.105392 0.729618 0.529326 0.486695
C27   C     C_R   0.054437 0.606737 0.528958 0.034951
C28   C     C_R   0.905815 0.597195 0.547654 0.177869
C29   C     C_R   0.947966 0.401132 0.460723 -0.118376
C30   C     C_R   0.088811 0.398552 0.465911 -0.086894
C31   C     C_R   0.579528 0.498979 0.296065 0.862884
C32   C     C_R   0.774669 0.368293 0.020667 -0.197904
C33   C     C_R   0.627512 0.480385 0.179782 -0.062603
C34   C     C_R   0.234800 0.534126 0.880514 -0.204486
C35   C     C_R   0.195700 0.548796 0.991765 -0.147840
C36   C     C_R   0.294211 0.521674 0.043387 -0.179131
H1    H     H_    0.830619 0.389931 0.163820 0.152788
H2    H     H_    0.693969 0.764820 0.307139 0.142944
H3    H     H_    0.859906 0.879696 0.156713 0.132500
H4    H     H_    0.863779 0.112831 0.158231 0.134019
H5    H     H_    0.702181 0.230946 0.310491 0.141273
H6    H     H_    0.333515 0.116204 0.645765 0.138711
H7    H     H_    0.910897 0.321147 0.427514 0.152553
H8    H     H_    0.700393 0.677782 0.646139 0.197295
H9    H     H_    0.800989 0.861138 0.703102 0.170299
H10   H     H_    0.055846 0.907310 0.614467 0.178113
H11   H     H_    0.779351 0.280650 0.829212 0.148320
H12   H     H_    0.156190 0.315997 0.437629 0.166059
H13   H     H_    0.871384 0.315017 0.978859 0.136429
H14   H     H_    0.440657 0.570794 0.170052 0.196397
H15   H     H_    0.161386 0.566100 0.840343 0.158960
H16   H     H_    0.258494 0.536928 0.129690 0.161274
H17   H     H_    0.090963 0.586595 0.037494 0.152004
H18   H     H_    0.600542 0.320143 0.745219 0.174405
H19   H     H_    0.331410 0.887026 0.645234 0.125660
N1    N     N_R   0.856860 0.501200 0.500990 -0.108359
N2    N     N_R   0.142450 0.501280 0.501020 -0.118308
O1    O     O_R   0.385310 0.683220 0.500000 -0.577667
O2    O     O_R   0.614640 0.683250 0.500010 -0.634603
O3    O     O_R   0.328400 0.499950 0.653610 -0.622466
O4    O     O_R   0.557730 0.499970 0.653620 -0.632808
O5    O     O_R   0.385360 0.316750 0.499990 -0.613141
O6    O     O_R   0.614690 0.316780 0.500000 -0.633331
O7    O     O_R   0.442270 0.500030 0.346380 -0.563704
O8    O     O_R   0.671600 0.500050 0.346390 -0.626471
Zn1   Zn    Zn3+2 0.346880 0.499980 0.499990 0.985196
Zn2   Zn    Zn3+2 0.653120 0.500020 0.500010 0.936159
S1    S     S_3+6 0.186739 0.799418 0.400547 0.016604
O9    O     O_2   0.255855 0.921240 0.410829 -0.322758
O10   O     O_2   0.295031 0.711961 0.325833 -0.323213
O11   O     O_3   0.057489 0.830352 0.347486 -0.560546
H20   H     H_    0.107128 0.868997 0.275988 0.374429

loop_
_geom_bond_atom_site_label_1
_geom_bond_atom_site_label_2
_ccdc_geom_bond_type
C26   C27   A    
C11   H2    S    
C2    C4    A    
C24   C25   A    
C31   C33   S    
O6    Zn2   S    
C29   C30   A    
C29   N1    A    
C35   H17   S    
N1    Zn2   S    
O4    Zn2   S    
C20   H6    S    
C19   C20   A    
C36   H16   S    
N2    Zn1   S    
C4    C8    A    
C5    C32   A    
C26   S1    S    
C23   O6    A    
C2    C3    A    
C1    C18   S    
O3    Zn1   S    
O11   H20   S    
C10   C34   A    
C3    C10   A    
C22   C28   A    
C1    O1    A    
C29   H7    S    
C9    C33   A    
C12   O4    A    
C11   C13   A    
C34   H15   S    
C6    C7    A    
C10   C12   S    
S1    O11   S    
C24   H9    S    
C31   O7    A    
C30   H12   S    
C25   C26   A    
O1    Zn1   S    
C17   C18   A    
C3    C7    A    
C8    C33   A    
C1    O2    A    
C21   C23   S    
C28   N1    A    
C5    C6    A    
C22   C24   A    
C32   H13   S    
C13   H3    S    
C16   C17   A    
C6    H11   S    
O5    Zn1   S    
C14   H4    S    
C15   C16   A    
C12   O3    A    
C30   N2    A    
C8    H14   S    
C2    C36   A    
C20   C21   A    
C15   H5    S    
S1    O10   D    
C34   C35   A    
C27   N2    A    
C19   H19   S    
C27   C28   A    
C31   O8    A    
C14   C15   A    
C18   C19   A    
C22   H8    S    
C7    H18   S    
O2    Zn2   S    
C9    C32   A    
C13   C14   A    
C16   C21   A    
C25   H10   S    
S1    O9    D    
C23   O5    A    
C11   C17   A    
C35   C36   A    
C4    C5    A    
O8    Zn2   S    
C9    H1    S    
O7    Zn1   S    
