data_mof_unit_1177.cif
_audit_creation_date              2012-12-11T15:26:53-0500
_audit_creation_method            fapswitch 2.2
_symmetry_space_group_name_H-M    P1
_symmetry_Int_Tables_number       1
_space_group_crystal_system       triclinic
_cell_length_a                    13.899312
_cell_length_b                    13.905592
_cell_length_c                    27.504497
_cell_angle_alpha                 89.927314
_cell_angle_beta                  90.226779
_cell_angle_gamma                 119.552327
_cell_volume                      4624.39678649

loop_
_atom_site_label
_atom_site_type_symbol
_atom_type_description
_atom_site_fract_x
_atom_site_fract_y
_atom_site_fract_z
_atom_type_partial_charge
C1    C     C_R   0.235725 0.786412 0.569183 0.540946
C2    C     C_1   0.702642 0.859122 0.859686 -0.009869
C3    C     C_1   0.139800 0.843651 0.859532 -0.003378
C4    C     C_1   0.111026 0.226307 0.850768 0.005199
C5    C     C_1   0.622052 0.809633 0.659366 -0.035428
C6    C     C_1   0.193298 0.809978 0.659943 -0.044099
C7    C     C_1   0.178087 0.361375 0.656360 -0.045232
C8    C     C_1   0.596917 0.793813 0.617028 0.031004
C9    C     C_1   0.208536 0.801303 0.617560 0.025469
C10   C     C_1   0.193960 0.395831 0.615359 0.028312
C11   C     C_R   0.069582 0.160724 0.941956 0.559093
C12   C     C_R   0.213135 0.447463 0.568769 0.541184
C13   C     C_R   0.779339 0.886847 0.949083 0.547005
C14   C     C_R   0.113083 0.893220 0.948912 0.547938
C15   C     C_R   0.611734 0.806552 0.384492 -0.022813
C16   C     C_R   0.192541 0.805437 0.384625 -0.023096
C17   C     C_R   0.194431 0.386977 0.384710 -0.023249
C18   C     C_R   0.614321 0.897501 0.359421 0.250990
C19   C     C_R   0.101870 0.717929 0.359530 0.251131
C20   C     C_R   0.281629 0.381672 0.360106 0.250515
C21   C     C_R   0.639006 0.911396 0.309801 0.294762
C22   C     C_R   0.088700 0.728253 0.309753 0.294948
C23   C     C_R   0.552046 0.764984 0.568997 0.542203
C24   C     C_R   0.271123 0.357255 0.310420 0.295007
C25   C     C_R   0.671118 0.842059 0.286428 0.018787
C26   C     C_R   0.158172 0.828629 0.286311 0.018239
C27   C     C_R   0.170940 0.328124 0.286555 0.018388
C28   C     C_R   0.232961 0.786932 0.431265 0.560334
C29   C     C_R   0.213068 0.445916 0.431246 0.561798
C30   C     C_R   0.553640 0.766727 0.431148 0.562042
C31   C     C_R   0.677953 0.759059 0.312151 -0.102691
C32   C     C_R   0.240402 0.917906 0.312053 -0.100451
C33   C     C_R   0.081933 0.323364 0.311875 -0.101654
C34   C     C_3   0.576132 0.732383 0.796202 -0.255808
C35   C     C_R   0.647873 0.740920 0.360662 -0.129494
C36   C     C_R   0.257947 0.906331 0.360734 -0.127009
C37   C     C_R   0.093659 0.353115 0.360452 -0.127894
C38   C     C_R   0.629499 0.768777 0.202774 -0.131599
C39   C     C_R   0.231990 0.859569 0.203006 -0.131629
C40   C     C_R   0.141320 0.372107 0.202874 -0.132081
C41   C     C_R   0.652541 0.779520 0.153262 -0.130033
C42   C     C_R   0.221470 0.872416 0.153471 -0.130107
C43   C     C_R   0.128732 0.349141 0.153313 -0.130007
C44   C     C_R   0.807251 0.963781 0.167561 -0.075116
C45   C     C_3   0.259935 0.936075 0.789397 -0.250886
C46   C     C_R   0.036825 0.844707 0.167208 -0.075267
C47   C     C_R   0.154194 0.190596 0.167597 -0.076169
C48   C     C_R   0.787063 0.952095 0.217067 0.324356
C49   C     C_R   0.048286 0.835674 0.216693 0.323319
C50   C     C_R   0.163005 0.210816 0.217115 0.323062
C51   C     C_R   0.696621 0.854775 0.234725 0.080872
C52   C     C_R   0.145646 0.841342 0.234614 0.080255
C53   C     C_R   0.158345 0.303081 0.234801 0.079619
C54   C     C_R   0.740804 0.877513 0.135629 -0.015307
C55   C     C_R   0.123379 0.863860 0.135591 -0.014578
C56   C     C_3   0.079097 0.337854 0.789624 -0.234036
C57   C     C_R   0.136328 0.258998 0.135674 -0.016329
C58   C     C_R   0.106967 0.222262 0.085930 0.557018
C59   C     C_R   0.778116 0.885212 0.085995 0.543550
C60   C     C_R   0.115287 0.893323 0.085966 0.544017
C61   C     C_3   0.638525 0.924351 0.730743 -0.200212
C62   C     C_3   0.179225 0.721166 0.739560 -0.215523
C63   C     C_3   0.270937 0.361749 0.732847 -0.194262
C64   C     C_3   0.760992 0.839573 0.724638 -0.097940
C65   C     C_3   0.065459 0.811921 0.723364 -0.089587
C66   C     C_3   0.089908 0.196188 0.711189 -0.093583
C67   C     C_3   0.552149 0.718623 0.740458 -0.110280
C68   C     C_3   0.779301 0.848605 0.780576 -0.214035
C69   C     C_3   0.054440 0.827699 0.778590 -0.207131
C70   C     C_3   0.070049 0.159738 0.765397 -0.216765
C71   C     C_1   0.731773 0.871411 0.901564 0.016458
C72   C     C_1   0.128164 0.861179 0.901359 0.021122
C73   C     C_1   0.093915 0.197027 0.892564 0.035959
C74   C     C_3   0.643388 0.821289 0.712264 0.007677
C75   C     C_3   0.179106 0.819530 0.712530 0.003462
C76   C     C_3   0.158103 0.324752 0.707502 -0.015088
C77   C     C_3   0.657599 0.937898 0.786670 0.126098
C78   C     C_3   0.277378 0.927890 0.734041 -0.106460
C79   C     C_3   0.163752 0.728305 0.795296 0.121028
C80   C     C_3   0.254573 0.326865 0.787246 0.124075
C81   C     C_3   0.679388 0.845789 0.807128 0.047966
C82   C     C_3   0.153397 0.832433 0.807128 0.042584
C83   C     C_3   0.129046 0.261481 0.799545 0.027785
C84   C     C_1   0.780371 0.752614 0.703987 0.215213
C85   C     C_1   0.046241 0.889432 0.693781 0.192673
C86   C     C_1   0.984756 0.149192 0.683776 0.233521
C87   C     C_1   0.541015 0.613119 0.723088 0.198174
C88   C     C_1   0.295469 0.028848 0.708421 0.255687
C89   C     C_3   0.101193 0.380409 0.736233 -0.113654
C90   C     C_1   0.998829 0.365574 0.712965 0.255802
Cl1   Cl    Cl    0.766861 0.074270 0.801201 -0.646950
Cl2   Cl    Cl    0.880778 0.057629 0.256047 -0.499032
Cl3   Cl    Cl    0.942434 0.824723 0.255314 -0.502339
Cl4   Cl    Cl    0.172486 0.115093 0.256070 -0.502700
Cl5   Cl    Cl    0.046895 0.603351 0.816615 -0.625655
Cl6   Cl    Cl    0.323664 0.249992 0.801180 -0.617862
Cl7   Cl    Cl    0.585572 0.995017 0.387788 -0.448808
Cl8   Cl    Cl    0.003720 0.593558 0.388097 -0.449300
Cl9   Cl    Cl    0.405855 0.406404 0.389252 -0.447888
Cl10  Cl    Cl    0.620613 0.009989 0.276098 -0.468174
Cl11  Cl    Cl    0.990800 0.612140 0.276038 -0.469902
Cl12  Cl    Cl    0.386876 0.372110 0.277308 -0.465354
Cr1   Cr    Cr6+3 0.164410 0.584450 0.499910 1.122556
Cr2   Cr    Cr6+3 0.415550 0.579960 0.499910 1.124622
Cr3   Cr    Cr6+3 0.420040 0.835590 0.499910 1.119553
Cr4   Cr    Cr6+3 0.156760 0.076070 0.017830 1.063694
Cr5   Cr    Cr6+3 0.923930 0.080690 0.017830 1.061236
Cr6   Cr    Cr6+3 0.919310 0.843240 0.017830 1.054230
H1    H     H_    0.556411 0.915885 0.721953 0.094837
H2    H     H_    0.560283 0.693183 0.216346 0.148703
H3    H     H_    0.307646 0.865100 0.216870 0.150278
H4    H     H_    0.136545 0.442708 0.216505 0.149995
H5    H     H_    0.602990 0.711461 0.128915 0.138861
H6    H     H_    0.289664 0.890350 0.129315 0.138614
H7    H     H_    0.111731 0.400244 0.128939 0.140358
H8    H     H_    0.879001 0.037810 0.154338 0.152579
H9    H     H_    0.962702 0.843290 0.153751 0.153399
H10   H     H_    0.154843 0.117529 0.154318 0.151745
H11   H     H_    0.703047 0.705773 0.294113 0.210873
H12   H     H_    0.258686 0.722062 0.733017 0.074397
H13   H     H_    0.293567 0.995516 0.293929 0.212009
H14   H     H_    0.004438 0.300236 0.293472 0.210659
H15   H     H_    0.701163 0.999400 0.711378 0.204348
H16   H     H_    0.112818 0.641511 0.724534 0.175003
H17   H     H_    0.316671 0.326700 0.713330 0.212368
H18   H     H_    0.648230 0.671984 0.378875 0.209441
H19   H     H_    0.326463 0.975111 0.379010 0.211266
H20   H     H_    0.025110 0.354591 0.378339 0.211162
H21   H     H_    0.823617 0.918600 0.708044 0.151644
H22   H     H_    0.999140 0.727589 0.713088 0.163957
H23   H     H_    0.321976 0.453162 0.730718 0.105308
H24   H     H_    0.139232 0.162014 0.694334 0.167433
H25   H     H_    0.856559 0.926415 0.789312 0.133797
H26   H     H_    0.975060 0.758311 0.792066 0.173813
H27   H     H_    0.101092 0.100994 0.772356 0.149120
H28   H     H_    0.791683 0.780214 0.794600 0.122667
H29   H     H_    0.050833 0.904754 0.785575 0.094097
H30   H     H_    0.980371 0.114625 0.773872 0.162922
H31   H     H_    0.470722 0.713682 0.733865 0.085362
H32   H     H_    0.354894 0.923904 0.729388 0.105697
H33   H     H_    0.158862 0.471274 0.737104 0.104666
H34   H     H_    0.581675 0.929759 0.803991 0.139753
H35   H     H_    0.502999 0.726221 0.815466 0.098915
H36   H     H_    0.332879 0.943866 0.809742 0.122230
H37   H     H_    0.116657 0.409930 0.814817 0.151672
H38   H     H_    0.237540 0.735249 0.814523 0.126618
H39   H     H_    0.294719 0.402803 0.810112 0.140289
H40   H     H_    0.589378 0.665059 0.810919 0.154924
H41   H     H_    0.254364 0.011447 0.797951 0.191326
H42   H     H_    0.988868 0.292038 0.797667 0.209972
N1    N     N_1   0.794666 0.684083 0.687600 -0.241775
N2    N     N_1   0.030814 0.949087 0.669944 -0.296550
N3    N     N_1   0.902864 0.112949 0.661961 -0.261425
N4    N     N_1   0.533238 0.530909 0.709376 -0.233256
N5    N     N_1   0.310103 0.108073 0.688316 -0.239263
N6    N     N_1   0.918677 0.354310 0.694786 -0.196875
O1    O     O_R   0.137310 0.468260 0.552980 -0.491738
O2    O     O_R   0.139940 0.470480 0.446230 -0.481931
O3    O     O_R   0.529520 0.669460 0.446230 -0.483508
O4    O     O_R   0.330540 0.860060 0.446230 -0.481266
O5    O     O_R   0.176560 0.690850 0.450770 -0.445609
O6    O     O_R   0.309150 0.485710 0.450770 -0.446922
O7    O     O_R   0.514290 0.823440 0.450770 -0.445172
O8    O     O_3   0.333333 0.666667 0.499990 -0.319738
O9    O     O_3   0.000000 0.000000 0.017910 -0.265506
O10   O     O_R   0.149710 0.171070 0.967700 -0.478982
O11   O     O_R   0.828930 0.978640 0.967700 -0.506089
O12   O     O_R   0.531740 0.669050 0.552980 -0.488473
O13   O     O_R   0.021360 0.850290 0.967700 -0.493279
O14   O     O_R   0.178510 0.985930 0.071830 -0.503894
O15   O     O_R   0.014070 0.192580 0.071830 -0.499900
O16   O     O_R   0.807420 0.821490 0.071830 -0.501762
O17   O     O_R   0.147830 0.173300 0.066650 -0.491698
O18   O     O_R   0.826700 0.974530 0.066650 -0.499194
O19   O     O_R   0.025470 0.852170 0.066650 -0.495965
O20   O     O_R   0.330950 0.862690 0.552980 -0.494356
O21   O     O_R   0.180530 0.983530 0.965090 -0.507747
O22   O     O_R   0.016470 0.197000 0.965090 -0.486040
O23   O     O_R   0.803000 0.819470 0.965090 -0.504016
O24   O     O_R   0.174120 0.688790 0.549730 -0.493741
O25   O     O_R   0.311210 0.485330 0.549730 -0.493668
O26   O     O_R   0.514670 0.825880 0.549730 -0.496480

loop_
_geom_bond_atom_site_label_1
_geom_bond_atom_site_label_2
_ccdc_geom_bond_type
C25   C31   A    
C15   C18   A    
C44   C48   A    
Cr6   O9    S    
Cr5   O9    S    
C1    O20   A    
C26   C32   A    
C69   H26   S    
C7    C10   T    
C18   C21   A    
C17   C29   S    
C3    C72   T    
C45   C82   S    
C24   C27   A    
C59   O18   A    
C61   H1    S    
C8    C23   S    
C6    C9    T    
C62   H16   S    
C65   H22   S    
C6    C75   S    
C40   H4    S    
Cr5   O15   S    
C27   C33   A    
C20   Cl9   S    
C46   C49   A    
Cr1   O8    S    
C22   Cl11  S    
C15   C30   S    
C68   C81   S    
Cr4   O10   S    
C68   H25   S    
C86   N3    T    
C66   C86   S    
C14   O13   A    
C88   N5    T    
Cr2   O6    S    
C1    O24   A    
C89   H33   S    
C13   O11   A    
Cr3   O4    S    
Cr2   O12   S    
C63   C76   S    
Cr6   O19   S    
C28   O4    A    
C17   C20   A    
C79   C82   S    
Cr1   O24   S    
C56   H37   S    
C39   C42   A    
C64   C84   S    
C69   C82   S    
C43   H7    S    
C77   H34   S    
C34   H40   S    
C42   H6    S    
C47   H10   S    
C20   C24   A    
C61   C77   S    
Cr3   O20   S    
C46   C55   A    
C11   O10   A    
Cr3   O7    S    
C45   C78   S    
C18   Cl7   S    
C63   H23   S    
C12   O1    A    
C79   H38   S    
C67   H31   S    
Cr4   O21   S    
C62   H12   S    
C16   C28   S    
C76   C89   S    
C54   C59   S    
C37   H20   S    
C39   H3    S    
Cr2   O25   S    
C55   C60   S    
Cr4   O14   S    
C30   O7    A    
C80   C83   S    
C32   H13   S    
C15   C35   A    
C19   Cl8   S    
C28   O5    A    
C47   C50   A    
C66   H24   S    
C63   C80   S    
C40   C43   A    
C69   H29   S    
C30   O3    A    
Cr5   O11   S    
C34   H35   S    
C48   C51   A    
C50   C53   A    
Cr1   O5    S    
C33   H14   S    
C45   H36   S    
C62   C79   S    
C68   H28   S    
C19   C22   A    
C1    C9    S    
C38   C41   A    
C11   C73   S    
C11   O22   A    
C21   Cl10  S    
C50   Cl4   S    
C38   C51   A    
C13   C71   S    
C5    C74   S    
C13   O23   A    
C33   C37   A    
Cr6   O23   S    
C80   Cl6   S    
C35   H18   S    
Cr4   O9    S    
C79   Cl5   S    
C26   C52   S    
C42   C55   A    
C47   C57   A    
C24   Cl12  S    
C12   O25   A    
C77   C81   S    
C49   C52   A    
C66   C76   S    
C3    C82   S    
C87   N4    T    
C67   C74   S    
C17   C37   A    
C70   C83   S    
C31   H11   S    
C4    C73   T    
C63   H17   S    
C10   C12   S    
C23   O26   A    
C56   C89   S    
C34   C81   S    
C70   H30   S    
Cr6   O16   S    
Cr5   O22   S    
C22   C26   A    
C70   H27   S    
Cr3   O26   S    
C31   C35   A    
C62   C75   S    
C58   O17   A    
C38   H2    S    
Cr2   O3    S    
C56   H42   S    
C2    C71   T    
C64   C68   S    
C32   C36   A    
C56   C83   S    
C78   C88   S    
C21   C25   A    
C77   Cl1   S    
C14   C72   S    
C29   O6    A    
Cr1   O1    S    
C41   H5    S    
C78   H32   S    
C34   C67   S    
Cr2   O8    S    
C5    C8    T    
C27   C53   S    
Cr1   O2    S    
C65   C85   S    
C29   O2    A    
Cr5   O18   S    
Cr3   O8    S    
C61   C74   S    
C80   H39   S    
C67   C87   S    
C25   C51   S    
C65   C75   S    
C61   H15   S    
C60   O14   A    
C58   O15   A    
C85   N2    T    
C16   C36   A    
C57   C58   S    
C66   C70   S    
C4    C83   S    
C16   C19   A    
C65   C69   S    
Cr4   O17   S    
C39   C52   A    
C45   H41   S    
C75   C78   S    
C41   C54   A    
C14   O21   A    
C43   C57   A    
C23   O12   A    
C36   H19   S    
C84   N1    T    
C44   C54   A    
C46   H9    S    
C64   H21   S    
C44   H8    S    
C40   C53   A    
C48   Cl2   S    
C60   O19   A    
C64   C74   S    
C2    C81   S    
C49   Cl3   S    
C89   C90   S    
Cr6   O13   S    
C90   N6    T    
C59   O16   A    
C7    C76   S    
