data_mof_unit_1488.cif
_audit_creation_date              2012-12-10T19:48:04-0500
_audit_creation_method            fapswitch 2.2
_symmetry_space_group_name_H-M    P1
_symmetry_Int_Tables_number       1
_space_group_crystal_system       triclinic
_cell_length_a                    14.978119
_cell_length_b                    14.069394
_cell_length_c                    10.691601
_cell_angle_alpha                 89.327075
_cell_angle_beta                  89.571134
_cell_angle_gamma                 91.076008
_cell_volume                      2252.4541979

loop_
_atom_site_label
_atom_site_type_symbol
_atom_type_description
_atom_site_fract_x
_atom_site_fract_y
_atom_site_fract_z
_atom_type_partial_charge
C1    C     C_R   0.326366 0.498688 0.501158 0.850647
C2    C     C_R   0.558283 0.795267 0.574477 0.018192
C3    C     C_R   0.527614 0.204534 0.603406 0.025961
C4    C     C_R   0.441296 0.795064 0.427231 0.040023
C5    C     C_R   0.501706 0.053253 0.500267 0.123158
C6    C     C_R   0.500642 0.946501 0.501132 0.150605
C7    C     C_R   0.512697 0.501049 0.259883 0.896486
C8    C     C_R   0.487062 0.499347 0.740088 0.882898
C9    C     C_R   0.538153 0.679840 0.108069 -0.196281
C10   C     C_R   0.457329 0.323044 0.895488 -0.234204
C11   C     C_R   0.448010 0.673177 0.883618 -0.214195
C12   C     C_R   0.672950 0.500964 0.496976 0.861245
C13   C     C_R   0.557241 0.331193 0.112714 -0.254255
C14   C     C_R   0.516921 0.765105 0.047686 0.128161
C15   C     C_R   0.482436 0.238158 0.955055 0.130850
C16   C     C_R   0.470229 0.761963 0.934265 0.110486
C17   C     C_R   0.537069 0.242471 0.060619 0.126861
C18   C     C_R   0.477649 0.587282 0.938530 0.058839
C19   C     C_R   0.523200 0.415896 0.060596 0.055167
C20   C     C_R   0.514027 0.590170 0.058269 0.041732
C21   C     C_R   0.484248 0.412641 0.942657 0.063918
C22   C     C_R   0.473605 0.499003 0.875780 -0.225144
C23   C     C_R   0.047812 0.489697 0.423222 0.095427
C24   C     C_R   0.525736 0.503313 0.124219 -0.217333
C25   C     C_R   0.089277 0.575538 0.454432 -0.214400
C26   C     C_R   0.908708 0.418685 0.506037 -0.218986
C27   C     C_R   0.902630 0.556353 0.369286 -0.222923
C28   C     C_R   0.096083 0.406505 0.420907 -0.232789
C29   C     C_R   0.178641 0.579131 0.487789 -0.017436
C30   C     C_R   0.818692 0.426253 0.534758 -0.014129
C31   C     C_R   0.812995 0.567781 0.398615 -0.023800
C32   C     C_R   0.184720 0.406595 0.457830 -0.008461
C33   C     C_R   0.228698 0.494489 0.486804 -0.152260
C34   C     C_R   0.950868 0.484233 0.425288 0.093356
C35   C     C_R   0.769663 0.501357 0.480992 -0.142850
C36   C     C_R   0.211345 0.670051 0.540259 0.171339
C37   C     C_R   0.231501 0.675398 0.668024 -0.134678
C38   C     C_R   0.248831 0.763551 0.722512 -0.171664
C39   C     C_R   0.247761 0.846630 0.649656 -0.101420
C40   C     C_R   0.228064 0.841790 0.522331 -0.143047
C41   C     C_R   0.209497 0.753915 0.467753 -0.176653
C42   C     C_R   0.780221 0.358394 0.628601 0.145358
C43   C     C_R   0.743145 0.391598 0.740589 -0.129487
C44   C     C_R   0.710988 0.327166 0.831319 -0.125215
C45   C     C_R   0.475367 0.105177 0.393807 -0.278538
C46   C     C_R   0.715149 0.229432 0.810737 -0.135399
C47   C     C_R   0.751239 0.195869 0.699200 -0.154596
C48   C     C_R   0.784046 0.260013 0.608499 -0.140390
C49   C     C_R   0.771559 0.654171 0.346744 0.144595
C50   C     C_R   0.766185 0.666981 0.216466 -0.209067
C51   C     C_R   0.745503 0.755873 0.165739 -0.142190
C52   C     C_R   0.729298 0.832274 0.244546 -0.095677
C53   C     C_R   0.734188 0.820054 0.374069 -0.156143
C54   C     C_R   0.755854 0.731592 0.425172 -0.101668
C55   C     C_R   0.222894 0.311627 0.480868 0.172022
C56   C     C_R   0.560355 0.894806 0.575583 -0.315912
C57   C     C_R   0.230857 0.246540 0.382922 -0.165409
C58   C     C_R   0.257475 0.153537 0.407841 -0.159564
C59   C     C_R   0.276250 0.125027 0.530371 -0.092319
C60   C     C_R   0.268193 0.189259 0.628204 -0.150009
C61   C     C_R   0.241484 0.282215 0.603858 -0.119324
C62   C     C_R   0.528275 0.104993 0.606059 -0.289818
C63   C     C_R   0.439869 0.894566 0.427293 -0.302235
C64   C     C_R   0.473944 0.204651 0.396270 0.041749
H1    H     H_    0.576696 0.685226 0.192581 0.197165
H2    H     H_    0.609620 0.930449 0.632754 0.125723
H3    H     H_    0.548187 0.069369 0.691294 0.148033
H4    H     H_    0.390884 0.929994 0.370433 0.123407
H5    H     H_    0.451369 0.243519 0.315127 0.150312
H6    H     H_    0.604088 0.755961 0.632199 0.126069
H7    H     H_    0.548848 0.243568 0.684508 0.162446
H8    H     H_    0.395240 0.755624 0.369138 0.133372
H9    H     H_    0.609043 0.171700 0.193766 0.176161
H10   H     H_    0.607965 0.121711 0.052639 0.180761
H11   H     H_    0.415698 0.833021 0.785446 0.194810
H12   H     H_    0.414782 0.318605 0.814312 0.154711
H13   H     H_    0.508096 0.882123 0.842402 0.182177
H14   H     H_    0.417954 0.155790 0.826000 0.168360
H15   H     H_    0.412355 0.115126 0.973689 0.190211
H16   H     H_    0.511526 0.856689 0.191019 0.189692
H17   H     H_    0.522602 0.912164 0.053141 0.199766
H18   H     H_    0.230775 0.611757 0.726076 0.105549
H19   H     H_    0.262251 0.767516 0.821647 0.138571
H20   H     H_    0.261436 0.914713 0.692222 0.121688
H21   H     H_    0.226185 0.906125 0.466060 0.120684
H22   H     H_    0.192180 0.751247 0.369665 0.122551
H23   H     H_    0.407594 0.671831 0.800404 0.168522
H24   H     H_    0.740366 0.467144 0.758251 0.107746
H25   H     H_    0.683648 0.353148 0.917910 0.142628
H26   H     H_    0.690358 0.179597 0.880863 0.126945
H27   H     H_    0.753969 0.120151 0.683190 0.127060
H28   H     H_    0.812396 0.233168 0.522690 0.121261
H29   H     H_    0.780923 0.608979 0.154328 0.133746
H30   H     H_    0.742234 0.765566 0.065312 0.141989
H31   H     H_    0.713719 0.901180 0.205242 0.138543
H32   H     H_    0.723455 0.879834 0.434716 0.132845
H33   H     H_    0.763596 0.724259 0.525451 0.114967
H34   H     H_    0.599846 0.333772 0.194007 0.160062
H35   H     H_    0.215347 0.267546 0.287879 0.125312
H36   H     H_    0.263666 0.103550 0.332219 0.121059
H37   H     H_    0.297449 0.053324 0.549443 0.122666
H38   H     H_    0.281162 0.166600 0.723165 0.112901
H39   H     H_    0.233651 0.330791 0.680871 0.104444
H40   H     H_    0.049790 0.638962 0.464019 0.141643
H41   H     H_    0.947345 0.365271 0.554191 0.139507
H42   H     H_    0.936801 0.607986 0.308770 0.140749
H43   H     H_    0.062016 0.339620 0.401278 0.135509
H44   H     H_    0.455767 0.069729 0.308826 0.146427
N1    N     N_R   0.500000 0.252470 0.500000 -0.098307
N2    N     N_R   0.500000 0.747530 0.500000 -0.091130
N3    N     N_3   0.568016 0.156247 0.117684 -0.477214
N4    N     N_3   0.448091 0.848292 0.869130 -0.482258
N5    N     N_3   0.455157 0.147250 0.907361 -0.478924
N6    N     N_3   0.543715 0.853272 0.104352 -0.480334
O1    O     O_R   0.369060 0.579480 0.500010 -0.612538
O2    O     O_R   0.630940 0.420520 0.499990 -0.605746
O3    O     O_R   0.630940 0.579480 0.499990 -0.624238
O4    O     O_R   0.369060 0.420520 0.500010 -0.607715
O5    O     O_R   0.499990 0.579480 0.316780 -0.626241
O6    O     O_R   0.500010 0.420520 0.683220 -0.624384
O7    O     O_R   0.500010 0.579480 0.683220 -0.623296
O8    O     O_R   0.499990 0.420520 0.316780 -0.626807
Zn1   Zn    Zn3+2 0.500000 0.606140 0.500000 0.941978
Zn2   Zn    Zn3+2 0.500000 0.393860 0.500000 0.949196

loop_
_geom_bond_atom_site_label_1
_geom_bond_atom_site_label_2
_ccdc_geom_bond_type
C40   H21   S    
C11   C18   A    
C38   H19   S    
C43   C44   A    
C64   N1    A    
C1    C33   S    
C53   C54   A    
C41   H22   S    
C29   C36   S    
C8    O6    A    
H11   N4    S    
C62   H3    S    
C43   H24   S    
C36   C37   A    
C61   H39   S    
C39   H20   S    
C10   C15   A    
C38   C39   A    
C8    O7    A    
C28   H43   S    
C49   C54   A    
C57   H35   S    
C25   H40   S    
C29   C33   A    
C52   H31   S    
C13   H34   S    
C46   C47   A    
C10   H12   S    
C26   C34   A    
C20   C24   A    
C11   H23   S    
H17   N6    S    
C8    C22   S    
C15   N5    S    
C54   H33   S    
C32   C55   S    
C18   C20   A    
C45   H44   S    
C59   C60   A    
C10   C21   A    
C21   C22   A    
C53   H32   S    
C36   C41   A    
C31   C49   S    
C60   H38   S    
C17   N3    S    
C26   H41   S    
C44   C46   A    
H9    N3    S    
C27   C34   A    
C25   C29   A    
O1    Zn1   S    
C13   C19   A    
C27   C31   A    
C51   C52   A    
C59   H37   S    
C7    O5    A    
C28   C32   A    
C58   H36   S    
H10   N3    S    
O4    Zn2   S    
C27   H42   S    
C58   C59   A    
C23   C28   A    
C5    C45   A    
C60   C61   A    
C6    C63   A    
H13   N4    S    
C3    H7    S    
C9    C14   A    
C37   C38   A    
N2    Zn1   S    
C11   C16   A    
C9    C20   A    
C47   C48   A    
C4    C63   A    
C23   C34   S    
C50   C51   A    
C50   H29   S    
C42   C48   A    
C64   H5    S    
C12   C35   S    
C30   C35   A    
C40   C41   A    
H16   N6    S    
C26   C30   A    
C55   C57   A    
C14   C16   A    
C37   H18   S    
H14   N5    S    
C42   C43   A    
C7    O8    A    
O8    Zn2   S    
C4    H8    S    
C52   C53   A    
C16   N4    S    
C3    C62   A    
C15   C17   A    
C4    N2    A    
C63   H4    S    
C2    N2    A    
O2    Zn2   S    
C19   C21   A    
C18   C22   A    
C47   H27   S    
C6    C56   A    
N1    Zn2   S    
C46   H26   S    
O5    Zn1   S    
C45   C64   A    
C13   C17   A    
C32   C33   A    
H15   N5    S    
C19   C24   A    
O3    Zn1   S    
C14   N6    S    
C57   C58   A    
C5    C6    S    
C3    N1    A    
C56   H2    S    
C55   C61   A    
C5    C62   A    
C31   C35   A    
C1    O4    A    
C23   C25   A    
C9    H1    S    
O7    Zn1   S    
C51   H30   S    
C12   O3    A    
C39   C40   A    
O6    Zn2   S    
C49   C50   A    
C48   H28   S    
C30   C42   S    
C2    C56   A    
C1    O1    A    
C2    H6    S    
C44   H25   S    
C7    C24   S    
C12   O2    A    
