data_mof_unit_3207.cif
_audit_creation_date              2012-12-11T15:43:00-0500
_audit_creation_method            fapswitch 2.2
_symmetry_space_group_name_H-M    P1
_symmetry_Int_Tables_number       1
_space_group_crystal_system       triclinic
_cell_length_a                    19.017283
_cell_length_b                    10.948888
_cell_length_c                    18.805496
_cell_angle_alpha                 89.986527
_cell_angle_beta                  89.881161
_cell_angle_gamma                 89.85885
_cell_volume                      3915.62426918

loop_
_atom_site_label
_atom_site_type_symbol
_atom_type_description
_atom_site_fract_x
_atom_site_fract_y
_atom_site_fract_z
_atom_type_partial_charge
C1    C     C_R   0.711571 0.329794 0.138588 0.553849
C2    C     C_R   0.285849 0.335499 0.862061 0.557910
C3    C     C_R   0.211667 0.830091 0.138445 0.552878
C4    C     C_R   0.769557 0.876724 0.853964 0.555210
C5    C     C_R   0.477102 0.397132 0.935547 -0.078241
C6    C     C_R   0.460201 0.365820 0.081403 -0.080891
C7    C     C_R   0.980521 0.897508 0.934476 -0.069161
C8    C     C_R   0.963663 0.866691 0.080364 -0.080099
C9    C     C_R   0.961895 0.996580 0.977129 -0.128095
C10   C     C_R   0.951688 0.980431 0.049647 -0.110906
C11   C     C_R   0.455401 0.494793 0.977891 -0.128268
C12   C     C_R   0.444950 0.478184 0.050336 -0.109307
C13   C     C_R   0.745248 0.924744 0.921481 0.019694
C14   C     C_R   0.222690 0.846616 0.062007 0.002022
C15   C     C_R   0.267478 0.368403 0.934048 0.054958
C16   C     C_R   0.722676 0.346473 0.062394 0.018503
C17   C     C_R   0.696230 0.861194 0.963426 0.112909
C18   C     C_R   0.289436 0.839215 0.031374 -0.000081
C19   C     C_R   0.255782 0.277826 0.985562 -0.013109
C20   C     C_R   0.789525 0.338228 0.031957 0.011249
C21   C     C_R   0.695056 0.876743 0.036304 0.101023
C22   C     C_R   0.300065 0.859536 0.959823 -0.022892
C23   C     C_R   0.249714 0.307779 0.056814 -0.022271
C24   C     C_R   0.800322 0.361877 0.960662 -0.017277
C25   C     C_R   0.782500 0.033389 0.026294 -0.157134
C26   C     C_R   0.175430 0.883719 0.943137 -0.156522
C27   C     C_R   0.269945 0.518434 0.027233 -0.123709
C28   C     C_R   0.675850 0.389624 0.944504 -0.149237
C29   C     C_R   0.782706 0.020653 0.952795 -0.149625
C30   C     C_R   0.165048 0.861395 0.016097 -0.165988
C31   C     C_R   0.276883 0.489280 0.956196 -0.109759
C32   C     C_R   0.665138 0.364806 0.016903 -0.158700
C33   C     C_3   0.679732 0.727713 0.970812 -0.134783
C34   C     C_3   0.359079 0.890468 0.052201 -0.118529
C35   C     C_3   0.199781 0.182312 0.994147 -0.152250
C36   C     C_3   0.858371 0.393029 0.053147 -0.127201
C37   C     C_3   0.678282 0.746506 0.051095 -0.240922
C38   C     C_3   0.371069 0.914105 0.972944 -0.210234
C39   C     C_3   0.195025 0.215323 0.072517 -0.243461
C40   C     C_3   0.870703 0.418068 0.974264 -0.219977
C41   C     C_R   0.743029 0.953594 0.069306 0.003347
C42   C     C_R   0.244205 0.894917 0.915860 0.007383
C43   C     C_R   0.253200 0.428693 0.077426 0.067264
C44   C     C_R   0.744556 0.399580 0.917361 0.014517
C45   C     C_R   0.533454 0.154353 0.145537 0.536906
C46   C     C_R   0.469212 0.157013 0.852638 0.572410
C47   C     C_R   0.034692 0.654344 0.144915 0.543990
C48   C     C_R   0.969396 0.656959 0.852428 0.579344
C49   C     C_R   0.478476 0.163989 0.568682 0.045278
C50   C     C_R   0.494680 0.162479 0.420650 -0.008735
C51   C     C_R   0.978478 0.663990 0.568682 0.045697
C52   C     C_R   0.994684 0.662480 0.420651 -0.008505
C53   C     C_R   0.476912 0.055116 0.530723 -0.002277
C54   C     C_R   0.484683 0.053590 0.458434 0.026466
C55   C     C_R   0.976917 0.555116 0.530723 -0.002494
C56   C     C_R   0.984688 0.553591 0.458435 0.026376
C57   C     C_R   0.482605 0.273722 0.456052 -0.171045
C58   C     C_R   0.475210 0.274569 0.530397 -0.166793
C59   C     C_R   0.982607 0.773724 0.456053 -0.170947
C60   C     C_R   0.975209 0.774570 0.530397 -0.166602
C61   C     C_3   0.518551 0.941294 0.541839 0.254717
C62   C     C_3   0.528458 0.939345 0.462192 0.264722
C63   C     C_3   0.018557 0.441296 0.541839 0.255365
C64   C     C_3   0.028464 0.439347 0.462192 0.264325
C65   C     C_R   0.763327 0.889688 0.569287 0.046881
C66   C     C_R   0.250154 0.932952 0.419547 0.010631
C67   C     C_R   0.263340 0.389657 0.569278 0.044900
C68   C     C_R   0.750151 0.432946 0.419551 0.010770
C69   C     C_R   0.818704 0.941926 0.531821 0.015732
C70   C     C_R   0.200383 0.001993 0.457271 0.022524
C71   C     C_R   0.318719 0.441889 0.531810 0.014646
C72   C     C_R   0.700376 0.501979 0.457276 0.022851
C73   C     C_R   0.816796 0.952513 0.459414 0.015177
C74   C     C_R   0.203675 0.010255 0.529754 0.025177
C75   C     C_R   0.316808 0.452479 0.459402 0.015529
C76   C     C_R   0.703670 0.510243 0.529758 0.025558
C77   C     C_R   0.708933 0.837592 0.456202 -0.161053
C78   C     C_R   0.313925 0.902682 0.529807 -0.161011
C79   C     C_R   0.208940 0.337572 0.456193 -0.160778
C80   C     C_R   0.813926 0.402687 0.529809 -0.161156
C81   C     C_R   0.711339 0.826962 0.530515 -0.095554
C82   C     C_R   0.311011 0.894280 0.455406 -0.162193
C83   C     C_R   0.211348 0.326939 0.530506 -0.095983
C84   C     C_R   0.811011 0.394286 0.455408 -0.162240
C85   C     C_3   0.853595 0.062165 0.542499 -0.269830
C86   C     C_3   0.121581 0.994804 0.459564 -0.264248
C87   C     C_3   0.353616 0.562124 0.542487 -0.269636
C88   C     C_3   0.621575 0.494775 0.459571 -0.264153
C89   C     C_R   0.739824 0.975964 0.145093 0.535105
C90   C     C_R   0.257881 0.965702 0.851271 0.533752
C91   C     C_R   0.242330 0.467940 0.148952 0.536664
C92   C     C_R   0.758149 0.467091 0.851827 0.535043
C93   C     C_3   0.851581 0.075297 0.462587 -0.244538
C94   C     C_3   0.126015 0.004338 0.539531 -0.277524
C95   C     C_3   0.351601 0.575258 0.462576 -0.244304
C96   C     C_3   0.626011 0.504317 0.539539 -0.277770
C97   C     C_R   0.758156 0.912040 0.421187 0.011065
C98   C     C_R   0.256531 0.951973 0.567888 0.018969
C99   C     C_R   0.258163 0.412019 0.421178 0.011704
C100  C     C_R   0.756530 0.451969 0.567890 0.018929
C101  C     C_R   0.730071 0.380588 0.351633 0.551393
C102  C     C_R   0.272723 0.372019 0.644973 0.580965
C103  C     C_R   0.230073 0.880592 0.351631 0.550990
C104  C     C_R   0.772716 0.872035 0.644978 0.572949
C105  C     C_R   0.531078 0.156833 0.352763 0.536746
C106  C     C_R   0.463860 0.156932 0.644176 0.584997
C107  C     C_R   0.031080 0.656834 0.352764 0.537541
C108  C     C_R   0.963859 0.656932 0.644175 0.584681
C109  C     C_R   0.742416 0.969404 0.353466 0.541652
C110  C     C_R   0.260212 0.976676 0.643436 0.545433
C111  C     C_R   0.242418 0.469398 0.353464 0.538404
C112  C     C_R   0.760211 0.476673 0.643437 0.544341
C113  C     C_R   0.501509 0.172879 0.922797 -0.055098
C114  C     C_R   0.511272 0.159095 0.071102 -0.070548
C115  C     C_R   0.002870 0.672974 0.921909 -0.053954
C116  C     C_R   0.015084 0.659798 0.069874 -0.071071
C117  C     C_R   0.487958 0.279297 0.964979 -0.058072
C118  C     C_R   0.485949 0.267672 0.039895 -0.067868
C119  C     C_R   0.990057 0.779425 0.963992 -0.054628
C120  C     C_R   0.988320 0.767696 0.038844 -0.072319
C121  C     C_R   0.530673 0.059438 0.027567 0.365731
C122  C     C_R   0.527522 0.067767 0.954858 0.364609
C123  C     C_R   0.038123 0.562752 0.026024 0.367410
C124  C     C_R   0.031242 0.569209 0.953384 0.365943
Cr1   Cr    Cr6+3 0.772010 0.169670 0.250090 1.016706
Cr2   Cr    Cr6+3 0.227990 0.169670 0.749910 1.036730
Cr3   Cr    Cr6+3 0.272010 0.669670 0.250090 1.017860
Cr4   Cr    Cr6+3 0.727990 0.669670 0.749910 1.031414
Cr5   Cr    Cr6+3 0.615000 0.323260 0.249260 1.006286
Cr6   Cr    Cr6+3 0.385000 0.323260 0.750740 1.000478
Cr7   Cr    Cr6+3 0.115000 0.823260 0.249260 1.005357
Cr8   Cr    Cr6+3 0.885000 0.823260 0.750740 1.004316
Cr9   Cr    Cr6+3 0.616710 0.010760 0.250840 1.075893
Cr10  Cr    Cr6+3 0.383290 0.010760 0.749160 1.045475
Cr11  Cr    Cr6+3 0.116710 0.510760 0.250840 1.073521
Cr12  Cr    Cr6+3 0.883290 0.510760 0.749160 1.051284
H1    H     H_    0.484633 0.359525 0.427544 0.130588
H2    H     H_    0.469602 0.360871 0.557783 0.133637
H3    H     H_    0.984635 0.859526 0.427545 0.130608
H4    H     H_    0.969596 0.860873 0.557782 0.133727
H5    H     H_    0.987361 0.364080 0.563511 0.142262
H6    H     H_    0.083585 0.452997 0.444889 0.166539
H7    H     H_    0.487353 0.864080 0.563511 0.142205
H8    H     H_    0.583579 0.952996 0.444889 0.166324
H9    H     H_    0.665643 0.796980 0.427440 0.144596
H10   H     H_    0.359467 0.867145 0.557339 0.133255
H11   H     H_    0.165646 0.296971 0.427432 0.144278
H12   H     H_    0.859471 0.367157 0.557339 0.133168
H13   H     H_    0.671322 0.774429 0.557520 0.173903
H14   H     H_    0.353007 0.848367 0.427097 0.188031
H15   H     H_    0.171328 0.274416 0.557513 0.173786
H16   H     H_    0.853010 0.348380 0.427097 0.187982
H17   H     H_    0.907777 0.053138 0.563843 0.140491
H18   H     H_    0.102037 0.904570 0.442006 0.169631
H19   H     H_    0.407798 0.553093 0.563829 0.140335
H20   H     H_    0.602038 0.404536 0.442016 0.169492
H21   H     H_    0.819445 0.129004 0.570807 0.148389
H22   H     H_    0.095991 0.075216 0.434303 0.163982
H23   H     H_    0.319469 0.628967 0.570796 0.149347
H24   H     H_    0.595980 0.575181 0.434310 0.164273
H25   H     H_    0.815891 0.149537 0.445247 0.169869
H26   H     H_    0.103469 0.090714 0.560662 0.149988
H27   H     H_    0.315916 0.649509 0.445239 0.170120
H28   H     H_    0.603464 0.590693 0.560668 0.149784
H29   H     H_    0.904611 0.075029 0.437574 0.164311
H30   H     H_    0.108918 0.920017 0.567595 0.148617
H31   H     H_    0.404629 0.574981 0.437562 0.164259
H32   H     H_    0.608919 0.419996 0.567605 0.148274
H33   H     H_    0.488307 0.417560 0.880548 0.142910
H34   H     H_    0.451324 0.356477 0.137959 0.133093
H35   H     H_    0.991295 0.917034 0.879263 0.141343
H36   H     H_    0.954399 0.857901 0.136862 0.135596
H37   H     H_    0.955009 0.086168 0.953731 0.107803
H38   H     H_    0.935907 0.056881 0.082526 0.116931
H39   H     H_    0.446409 0.583673 0.954294 0.108100
H40   H     H_    0.426336 0.553301 0.082788 0.125718
H41   H     H_    0.815575 0.102722 0.049457 0.141581
H42   H     H_    0.130562 0.906913 0.910476 0.135550
H43   H     H_    0.276066 0.611799 0.043195 0.128097
H44   H     H_    0.631058 0.411490 0.911438 0.129961
H45   H     H_    0.818060 0.077005 0.921750 0.141862
H46   H     H_    0.112697 0.865578 0.037723 0.154397
H47   H     H_    0.289276 0.561474 0.918820 0.145326
H48   H     H_    0.612558 0.368079 0.038315 0.148819
H49   H     H_    0.222130 0.091038 0.986227 0.162673
H50   H     H_    0.895079 0.324105 0.075815 0.160229
H51   H     H_    0.723387 0.667356 0.952957 0.148444
H52   H     H_    0.394394 0.819107 0.074598 0.167197
H53   H     H_    0.625635 0.735939 0.076175 0.195385
H54   H     H_    0.373406 0.012084 0.957541 0.137963
H55   H     H_    0.144287 0.256881 0.089551 0.209599
H56   H     H_    0.872418 0.516429 0.959515 0.139023
H57   H     H_    0.721361 0.698849 0.079562 0.102483
H58   H     H_    0.413882 0.856784 0.950220 0.174260
H59   H     H_    0.214767 0.142119 0.108217 0.137542
H60   H     H_    0.914092 0.362115 0.951502 0.173992
O1    O     O_R   0.787520 0.042810 0.170440 -0.541507
O2    O     O_R   0.212480 0.042810 0.829560 -0.541930
O3    O     O_R   0.287520 0.542810 0.170440 -0.546793
O4    O     O_R   0.712480 0.542810 0.829560 -0.535601
O5    O     O_R   0.556610 0.252880 0.323980 -0.513960
O6    O     O_R   0.443390 0.252880 0.676020 -0.521101
O7    O     O_R   0.056610 0.752880 0.323980 -0.513675
O8    O     O_R   0.943390 0.752880 0.676020 -0.521680
O9    O     O_R   0.545950 0.051210 0.330860 -0.492721
O10   O     O_R   0.454050 0.051210 0.669140 -0.489583
O11   O     O_R   0.045950 0.551210 0.330860 -0.492957
O12   O     O_R   0.954050 0.551210 0.669140 -0.489667
O13   O     O_R   0.681390 0.959480 0.325510 -0.506297
O14   O     O_R   0.318610 0.959480 0.674490 -0.515126
O15   O     O_R   0.181390 0.459480 0.325510 -0.508912
O16   O     O_R   0.818610 0.459480 0.674490 -0.516721
O17   O     O_3   0.667900 0.167900 0.250060 -0.276735
O18   O     O_3   0.332100 0.167900 0.749940 -0.284812
O19   O     O_3   0.167900 0.667900 0.250060 -0.274137
O20   O     O_3   0.832100 0.667900 0.749940 -0.268842
O21   O     O_R   0.765640 0.292100 0.175020 -0.508572
O22   O     O_R   0.234360 0.292100 0.824980 -0.480724
O23   O     O_R   0.265640 0.792100 0.175020 -0.504502
O24   O     O_R   0.734360 0.792100 0.824980 -0.493529
O25   O     O_R   0.670190 0.408840 0.168540 -0.516151
O26   O     O_R   0.329810 0.408840 0.831460 -0.523061
O27   O     O_R   0.170190 0.908840 0.168540 -0.522204
O28   O     O_R   0.829810 0.908840 0.831460 -0.523534
O29   O     O_R   0.556620 0.251410 0.175160 -0.534842
O30   O     O_R   0.443380 0.251410 0.824840 -0.540480
O31   O     O_R   0.056620 0.751410 0.175160 -0.534760
O32   O     O_R   0.943380 0.751410 0.824840 -0.527201
O33   O     O_R   0.545960 0.049620 0.170320 -0.438161
O34   O     O_R   0.454040 0.049620 0.829680 -0.445093
O35   O     O_R   0.045960 0.549620 0.170320 -0.439491
O36   O     O_R   0.954040 0.549620 0.829680 -0.445175
O37   O     O_R   0.681390 0.958010 0.176690 -0.471551
O38   O     O_R   0.318610 0.958010 0.823310 -0.500820
O39   O     O_R   0.181390 0.458010 0.176690 -0.468439
O40   O     O_R   0.818610 0.458010 0.823310 -0.500458
O41   O     O_R   0.787510 0.044390 0.330970 -0.518912
O42   O     O_R   0.212490 0.044390 0.669030 -0.517996
O43   O     O_R   0.287510 0.544390 0.330970 -0.520285
O44   O     O_R   0.712490 0.544390 0.669030 -0.518303
O45   O     O_R   0.765630 0.293570 0.323840 -0.500004
O46   O     O_R   0.234370 0.293570 0.676160 -0.483947
O47   O     O_R   0.265630 0.793570 0.323840 -0.499317
O48   O     O_R   0.734370 0.793570 0.676160 -0.489315
O49   O     O_R   0.670190 0.410420 0.329080 -0.516483
O50   O     O_R   0.329810 0.410420 0.670920 -0.520612
O51   O     O_R   0.170190 0.910420 0.329080 -0.517373
O52   O     O_R   0.829810 0.910420 0.670920 -0.525128
F1    F     F_    0.551945 0.950925 0.055038 -0.626216
F2    F     F_    0.546758 0.969352 0.915366 -0.627276
F3    F     F_    0.068179 0.460179 0.053062 -0.626000
F4    F     F_    0.050535 0.471584 0.913321 -0.624563
F5    F     F_    0.580558 0.963719 0.577958 -0.664242
F6    F     F_    0.495186 0.841159 0.430547 -0.683825
F7    F     F_    0.080565 0.463722 0.577956 -0.662460
F8    F     F_    0.995192 0.341160 0.430547 -0.684154
C125  C     C_3   0.607783 0.694598 0.940084 -0.340610
H61   H     H_    0.609456 0.698511 0.881155 0.181717
H62   H     H_    0.593492 0.601047 0.956891 0.111861
H63   H     H_    0.566060 0.757268 0.959600 0.229509
C126  C     C_3   0.354698 0.006863 0.097516 -0.387868
H64   H     H_    0.319981 0.994382 0.144194 0.169512
H65   H     H_    0.407331 0.027552 0.118676 0.159178
H66   H     H_    0.335448 0.086181 0.066445 0.125813
C127  C     C_3   0.130993 0.206070 0.954429 -0.347097
H67   H     H_    0.137619 0.191795 0.896665 0.190493
H68   H     H_    0.090219 0.141914 0.973925 0.126063
H69   H     H_    0.112745 0.300622 0.963705 0.268478
C128  C     C_3   0.851287 0.509457 0.097949 -0.381794
H70   H     H_    0.825676 0.490331 0.149641 0.176570
H71   H     H_    0.903975 0.545204 0.109873 0.143386
H72   H     H_    0.820732 0.580642 0.069537 0.123311

loop_
_geom_bond_atom_site_label_1
_geom_bond_atom_site_label_2
_ccdc_geom_bond_type
C10   H38   S    
C61   F5    S    
Cr11  O15   S    
C55   C56   A    
C88   C96   S    
C67   C83   A    
Cr10  O14   S    
C116  C123  A    
C7    H35   S    
C30   H46   S    
C5    C117  A    
C14   C18   A    
C37   H53   S    
C102  O50   A    
C73   C93   S    
C108  O12   A    
C101  O49   A    
C94   H30   S    
C96   H28   S    
Cr6   O50   S    
Cr3   O23   S    
C123  C124  A    
C74   C98   A    
Cr5   O49   S    
C53   C54   A    
C65   C69   A    
C15   C19   A    
Cr3   O19   S    
Cr12  O36   S    
C26   C42   A    
C50   C54   A    
C29   H45   S    
C98   C110  S    
Cr3   O43   S    
C112  O16   A    
C13   C29   A    
C69   C73   A    
C111  O15   A    
C27   H43   S    
C5    C11   A    
Cr1   O21   S    
Cr7   O27   S    
Cr8   O32   S    
C6    C12   A    
C126  H64   S    
C48   O32   A    
C25   H41   S    
Cr10  O10   S    
C47   O35   A    
Cr9   O9    S    
C22   C38   S    
Cr12  O20   S    
C91   O39   A    
Cr9   O13   S    
C2    O26   A    
C23   C43   A    
C90   O38   A    
C53   C61   S    
C1    O25   A    
C125  H61   S    
C89   O37   A    
C4    C13   S    
C74   C94   S    
C70   C74   A    
Cr2   O18   S    
Cr12  O16   S    
C114  C121  A    
C85   C93   S    
C45   C114  S    
C61   H7    S    
Cr4   O20   S    
C63   F7    S    
C113  C122  A    
C20   C24   A    
C52   C107  S    
C87   H23   S    
C51   C108  S    
C38   H54   S    
C55   C63   S    
C78   C98   A    
C50   C105  S    
Cr1   O17   S    
C36   C128  S    
C96   H32   S    
Cr1   O45   S    
Cr8   O20   S    
C59   H3    S    
Cr7   O7    S    
C9    C10   A    
C94   H26   S    
C107  O11   A    
Cr6   O6    S    
C80   C84   A    
C12   H40   S    
C22   C42   A    
C91   O3    A    
Cr2   O2    S    
C88   H24   S    
Cr1   O1    S    
C59   C60   A    
C34   C38   S    
C128  H70   S    
C80   C100  A    
C25   C29   A    
C46   O34   A    
Cr8   O28   S    
C107  O7    A    
C110  O14   A    
C85   H21   S    
C14   C30   A    
C109  O13   A    
Cr11  O39   S    
C57   H1    S    
C28   C32   A    
C75   C99   A    
C72   C88   S    
C32   H48   S    
Cr9   O33   S    
C67   C102  S    
C26   H42   S    
C83   H15   S    
C86   C94   S    
C47   C116  S    
Cr11  O19   S    
Cr8   O8    S    
C75   C95   S    
C68   C84   A    
C7    C119  A    
C76   C100  A    
C36   C40   S    
Cr6   O26   S    
Cr3   O47   S    
C68   C101  S    
Cr5   O25   S    
C25   C41   A    
Cr9   O37   S    
C126  H65   S    
C95   H31   S    
C64   H6    S    
Cr8   O52   S    
C20   C36   S    
C85   H17   S    
C54   C62   S    
C51   C55   A    
C4    O24   A    
C4    O28   A    
C27   C31   A    
C28   C44   A    
C103  O51   A    
C49   C58   A    
C116  C120  A    
C87   C95   S    
C68   C72   A    
C42   C90   S    
C6    H34   S    
Cr2   O46   S    
Cr11  O11   S    
C19   C23   A    
Cr4   O4    S    
Cr7   O19   S    
C123  F3    S    
C2    C15   S    
C52   C59   A    
C95   H27   S    
C66   C82   A    
C39   H55   S    
C52   C56   A    
C78   C82   A    
C105  O5    A    
C16   C20   A    
C40   H56   S    
C93   H25   S    
C35   H49   S    
C99   C111  S    
C56   C64   S    
C63   H5    S    
C47   O31   A    
C72   C76   A    
C17   C33   S    
C1    C16   S    
C45   O29   A    
Cr12  O12   S    
C35   C127  S    
C77   C97   A    
C9    H37   S    
C28   H44   S    
C121  C122  A    
C114  C118  A    
C3    C14   S    
C8    H36   S    
C60   H4    S    
C48   C115  S    
C71   C87   S    
C84   H16   S    
C8    C10   A    
C101  O45   A    
C112  O44   A    
C100  C112  S    
C86   H22   S    
C115  C119  A    
C128  H71   S    
C73   C97   A    
C24   C44   A    
C21   C41   A    
Cr4   O44   S    
C33   C125  S    
C70   C86   S    
C77   H9    S    
C46   C113  S    
Cr1   O41   S    
C8    C120  A    
Cr4   O48   S    
C40   H60   S    
C64   F8    S    
C127  H67   S    
C113  C117  A    
C79   C99   A    
C89   O1    A    
C7    C9    A    
C27   C43   A    
Cr4   O24   S    
C102  O46   A    
C3    O27   A    
C115  C124  A    
C45   O33   A    
C34   C126  S    
C111  O43   A    
C41   C89   S    
C18   C22   A    
C50   C57   A    
C66   C103  S    
C69   C85   S    
C71   C75   A    
C81   H13   S    
C62   H8    S    
C63   C64   S    
C82   H14   S    
C44   C92   S    
C124  F4    S    
C106  O10   A    
C126  H66   S    
C79   H11   S    
C119  C120  A    
C110  O42   A    
C15   C31   A    
C49   C106  S    
C34   H52   S    
C105  O9    A    
C109  O41   A    
C16   C32   A    
C104  O52   A    
C90   O2    A    
C33   H51   S    
C11   H39   S    
C103  O47   A    
Cr10  O18   S    
C38   H58   S    
C125  H63   S    
Cr9   O17   S    
Cr3   O3    S    
C46   O30   A    
C97   C109  S    
C86   H18   S    
Cr5   O5    S    
C108  O8    A    
C127  H68   S    
C19   C35   S    
C117  C118  A    
Cr7   O51   S    
C79   C83   A    
Cr11  O35   S    
C58   H2    S    
C57   C58   A    
C66   C70   A    
C39   H59   S    
C18   C34   S    
C23   C39   S    
C121  F1    S    
Cr12  O40   S    
C36   H50   S    
C104  O48   A    
C24   C40   S    
C92   O40   A    
C33   C37   S    
Cr6   O18   S    
C67   C71   A    
Cr10  O34   S    
Cr5   O17   S    
C61   C62   S    
C127  H69   S    
C43   C91   S    
C49   C53   A    
C78   H10   S    
C93   H29   S    
C13   C17   A    
C48   O36   A    
Cr2   O42   S    
Cr7   O31   S    
C80   H12   S    
C35   C39   S    
C21   C37   S    
C106  O6    A    
Cr6   O30   S    
C62   F6    S    
C3    O23   A    
C77   C81   A    
C31   H47   S    
C128  H72   S    
Cr5   O29   S    
C122  F2    S    
C2    O22   A    
C5    H33   S    
C65   C81   A    
C1    O21   A    
C51   C60   A    
C88   H20   S    
C65   C104  S    
C125  H62   S    
C92   O4    A    
C6    C118  A    
C76   C96   S    
C87   H19   S    
Cr2   O22   S    
C11   C12   A    
C37   H57   S    
Cr10  O38   S    
C26   C30   A    
C17   C21   A    
