data_mof_unit_2031.cif
_audit_creation_date              2012-12-10T18:01:45-0500
_audit_creation_method            fapswitch 2.2
_symmetry_space_group_name_H-M    P1
_symmetry_Int_Tables_number       1
_space_group_crystal_system       triclinic
_cell_length_a                    10.82051
_cell_length_b                    9.59703
_cell_length_c                    19.347276
_cell_angle_alpha                 90.075833
_cell_angle_beta                  92.610575
_cell_angle_gamma                 90.022121
_cell_volume                      2007.02615943

loop_
_atom_site_label
_atom_site_type_symbol
_atom_type_description
_atom_site_fract_x
_atom_site_fract_y
_atom_site_fract_z
_atom_type_partial_charge
Br1   Br    Br    0.306396 0.168127 0.392788 -0.515237
Br2   Br    Br    0.692447 0.831782 0.607858 -0.478463
Br3   Br    Br    0.691946 0.169046 0.608115 -0.496762
Br4   Br    Br    0.308921 0.830955 0.391349 -0.492005
C1    C     C_R   0.262300 0.499987 0.499987 0.820692
C2    C     C_R   0.063907 0.626611 0.499626 -0.150040
C3    C     C_R   0.871649 0.500026 0.499834 -0.035356
C4    C     C_R   0.128337 0.499993 0.500032 -0.035557
C5    C     C_R   0.421175 0.073912 0.455874 0.273953
C6    C     C_R   0.578656 0.926074 0.544219 0.271770
C7    C     C_R   0.578664 0.074249 0.544213 0.274696
C8    C     C_R   0.421479 0.925740 0.455698 0.277785
C9    C     C_R   0.524918 0.622498 0.255740 -0.260497
C10   C     C_R   0.489058 0.373843 0.744320 -0.247374
C11   C     C_R   0.509665 0.624970 0.745580 -0.235788
C12   C     C_R   0.737696 0.500017 0.499968 0.819395
C13   C     C_R   0.479615 0.375939 0.254716 -0.265978
C14   C     C_R   0.530456 0.622018 0.183546 0.400646
C15   C     C_R   0.493353 0.371390 0.816483 0.425810
C16   C     C_R   0.507168 0.625738 0.817622 0.425826
C17   C     C_R   0.474868 0.375034 0.182265 0.398801
C18   C     C_R   0.502749 0.498273 0.146139 -0.117949
C19   C     C_R   0.501013 0.498099 0.853820 -0.155531
C20   C     C_R   0.501495 0.499559 0.291661 -0.149707
C21   C     C_R   0.499497 0.499740 0.708445 -0.170267
C22   C     C_3   0.674142 0.793278 0.163458 0.057355
C23   C     C_R   0.502126 0.497330 0.929783 0.409712
C24   C     C_3   0.671111 0.945408 0.186929 -0.341941
C25   C     C_3   0.801281 0.003059 0.201147 -0.886063
C26   C     C_3   0.601595 0.195697 0.872190 0.051281
C27   C     C_3   0.665952 0.119832 0.813867 -0.342045
C28   C     C_3   0.782000 0.043992 0.841219 -0.819487
C29   C     C_3   0.399280 0.797359 0.871491 0.073488
C30   C     C_3   0.333504 0.881182 0.813253 -0.371362
C31   C     C_3   0.214494 0.947028 0.837306 -0.841812
C32   C     C_3   0.334821 0.197561 0.157945 0.052784
C33   C     C_3   0.345522 0.049301 0.186580 -0.337560
C34   C     C_R   0.502723 0.497733 0.069808 0.468469
C35   C     C_3   0.218725 0.987581 0.199658 -0.817362
C36   C     C_R   0.500360 0.499913 0.367582 0.868809
C37   C     C_R   0.499845 0.500035 0.632453 0.872211
C38   C     C_R   0.063875 0.373400 0.500421 -0.148911
C39   C     C_R   0.936105 0.626625 0.499418 -0.151031
C40   C     C_R   0.936077 0.373413 0.500193 -0.149183
Cu1   Cu    Cu3+1 0.500000 0.640660 0.500000 1.023974
Cu2   Cu    Cu3+1 0.500000 0.359340 0.500000 1.024752
H1    H     H_    0.111817 0.274353 0.500954 0.190001
H2    H     H_    0.728263 0.730962 0.203118 0.126580
H3    H     H_    0.623267 0.009412 0.146053 0.255507
H4    H     H_    0.618898 0.953441 0.234909 0.217701
H5    H     H_    0.850219 0.942801 0.243040 0.261691
H6    H     H_    0.795469 0.113624 0.217693 0.265232
H7    H     H_    0.855002 0.997786 0.153632 0.252700
H8    H     H_    0.587977 0.120689 0.914883 0.191679
H9    H     H_    0.662373 0.280105 0.894288 0.131968
H10   H     H_    0.601783 0.042877 0.788725 0.251351
H11   H     H_    0.692793 0.196373 0.774250 0.240838
H12   H     H_    0.888153 0.725670 0.498906 0.188128
H13   H     H_    0.848370 0.118966 0.866195 0.242103
H14   H     H_    0.827222 0.992219 0.797655 0.280059
H15   H     H_    0.757565 0.963226 0.879359 0.268437
H16   H     H_    0.413891 0.866287 0.917331 0.188500
H17   H     H_    0.338823 0.710373 0.887935 0.127695
H18   H     H_    0.395490 0.964961 0.795802 0.248593
H19   H     H_    0.310288 0.811675 0.768578 0.210601
H20   H     H_    0.150103 0.865150 0.854440 0.249841
H21   H     H_    0.168548 0.005713 0.793898 0.263905
H22   H     H_    0.235395 0.020460 0.880722 0.268546
H23   H     H_    0.888112 0.274365 0.500304 0.189469
H24   H     H_    0.282649 0.193896 0.107158 0.176855
H25   H     H_    0.278656 0.262330 0.192899 0.147237
H26   H     H_    0.392277 0.982160 0.148939 0.251096
H27   H     H_    0.402043 0.050040 0.235962 0.239379
H28   H     H_    0.171345 0.050673 0.238694 0.281640
H29   H     H_    0.230091 0.879667 0.219592 0.282515
H30   H     H_    0.160558 0.984387 0.150866 0.233938
H31   H     H_    0.111878 0.725657 0.499492 0.189196
H32   H     H_    0.540957 0.719337 0.283555 0.188338
H33   H     H_    0.479461 0.276054 0.716554 0.196575
H34   H     H_    0.517705 0.723398 0.718867 0.205438
H35   H     H_    0.464589 0.279421 0.281848 0.203547
H36   H     H_    0.724764 0.786872 0.114854 0.182198
N1    N     N_R   0.500000 0.852070 0.500000 -0.243989
N2    N     N_R   0.500000 0.147930 0.500000 -0.240667
N3    N     N_R   0.426809 0.410865 0.032229 -0.211598
N4    N     N_R   0.578059 0.584250 0.967169 -0.204361
N5    N     N_R   0.426587 0.410482 0.963505 -0.203772
N6    N     N_R   0.578445 0.584231 0.035889 -0.218038
O1    O     O_R   0.319640 0.618740 0.500000 -0.557192
O2    O     O_3   0.482981 0.244256 0.849504 -0.599652
O3    O     O_3   0.517377 0.752236 0.851960 -0.596029
O4    O     O_3   0.454691 0.250788 0.146775 -0.604368
O5    O     O_R   0.680360 0.381260 0.500000 -0.556209
O6    O     O_R   0.680360 0.618740 0.500000 -0.558388
O7    O     O_R   0.319640 0.381260 0.500000 -0.555293
O8    O     O_R   0.499980 0.618820 0.400140 -0.552163
O9    O     O_R   0.500020 0.381180 0.599860 -0.552920
O10   O     O_R   0.500020 0.618820 0.599860 -0.555496
O11   O     O_R   0.499980 0.381180 0.400140 -0.554595
O12   O     O_3   0.551449 0.745706 0.149083 -0.603282

loop_
_geom_bond_atom_site_label_1
_geom_bond_atom_site_label_2
_ccdc_geom_bond_type
Cu2   O11   S    
C26   O2    S    
C36   O11   A    
Cu1   Cu2   S    
C26   H8    S    
C12   O5    A    
C14   O12   S    
C9    C14   A    
C32   C33   S    
C4    C38   A    
C28   H15   S    
Cu1   O10   S    
C29   O3    S    
C26   C27   S    
N4    N6    A    
C11   C21   A    
C18   C34   S    
C6    N1    A    
C30   C31   S    
C35   H28   S    
C39   H12   S    
C24   H4    S    
Cu2   O7    S    
C11   H34   S    
C29   H16   S    
C35   H29   S    
C27   H10   S    
Br4   C8    S    
Cu1   O1    S    
C32   H25   S    
C22   H2    S    
C32   O4    S    
C22   H36   S    
C17   C18   A    
Cu1   N1    S    
C38   C40   A    
C36   O8    A    
Cu1   O6    S    
C30   H19   S    
C1    O7    A    
C32   H24   S    
N3    N5    A    
C11   C16   A    
C16   O3    S    
C13   C20   A    
C34   N3    A    
Br1   C5    S    
C21   C37   S    
C2    H31   S    
C2    C4    A    
C31   H20   S    
C10   H33   S    
C13   C17   A    
C8    N1    A    
C34   N6    A    
C23   N4    A    
C15   C19   A    
C24   H3    S    
C27   C28   S    
C16   C19   A    
C31   H21   S    
C29   H17   S    
C30   H18   S    
C29   C30   S    
C40   H23   S    
C35   H30   S    
C23   N5    A    
Cu2   N2    S    
C3    C12   S    
Cu2   O9    S    
C19   C23   S    
C2    C39   A    
C37   O9    A    
C28   H14   S    
Br2   C6    S    
C25   H5    S    
C3    C39   A    
C33   H27   S    
C9    H32   S    
C24   C25   S    
C14   C18   A    
C22   C24   S    
C10   C15   A    
C1    C4    S    
C7    N2    A    
C26   H9    S    
C12   O6    A    
C27   H11   S    
C33   C35   S    
C15   O2    S    
Cu2   O5    S    
C25   H7    S    
C31   H22   S    
C20   C36   S    
C13   H35   S    
C38   H1    S    
C10   C21   A    
C5    C8    A    
Br3   C7    S    
C6    C7    A    
C5    N2    A    
C9    C20   A    
C33   H26   S    
C37   O10   A    
C28   H13   S    
C3    C40   A    
Cu1   O8    S    
C25   H6    S    
C1    O1    A    
C22   O12   S    
C17   O4    S    
