data_mof_unit_4960.cif
_audit_creation_date              2012-12-10T17:43:32-0500
_audit_creation_method            fapswitch 2.2
_symmetry_space_group_name_H-M    P1
_symmetry_Int_Tables_number       1
_space_group_crystal_system       triclinic
_cell_length_a                    14.871846
_cell_length_b                    10.609915
_cell_length_c                    9.921426
_cell_angle_alpha                 92.20716
_cell_angle_beta                  89.030114
_cell_angle_gamma                 92.018982
_cell_volume                      1563.16953419

loop_
_atom_site_label
_atom_site_type_symbol
_atom_type_description
_atom_site_fract_x
_atom_site_fract_y
_atom_site_fract_z
_atom_type_partial_charge
C1    C     C_R   0.505366 0.260102 0.497646 0.863896
C2    C     C_R   0.183135 0.394686 0.539611 -0.297503
C3    C     C_R   0.232045 0.501557 0.501803 -0.050351
C4    C     C_R   0.327226 0.499896 0.500865 0.864989
C5    C     C_R   0.191035 0.607758 0.457407 -0.220071
C6    C     C_R   0.597983 0.124174 0.702304 -0.146997
C7    C     C_R   0.609784 0.071956 0.827140 -0.172241
C8    C     C_R   0.559044 0.964962 0.861452 -0.237069
C9    C     C_R   0.502508 0.903022 0.766244 0.276518
C10   C     C_R   0.504027 0.944158 0.630849 0.021007
C11   C     C_R   0.538585 0.065042 0.607615 0.049694
C12   C     C_R   0.909500 0.611544 0.455686 0.045000
C13   C     C_R   0.507137 0.125725 0.494610 -0.143366
C14   C     C_R   0.455802 0.060262 0.396289 -0.272097
C15   C     C_R   0.440638 0.931585 0.404247 0.197842
C16   C     C_R   0.489241 0.738952 0.504128 0.919844
C17   C     C_R   0.472156 0.872034 0.516841 -0.195706
C18   C     C_R   0.383484 0.333147 0.136663 -0.236013
C19   C     C_R   0.325710 0.248240 0.066440 0.208746
C20   C     C_R   0.323064 0.251051 0.925419 0.161702
C21   C     C_R   0.380338 0.335737 0.857494 -0.239752
C22   C     C_R   0.440871 0.419438 0.926388 0.136668
C23   C     C_R   0.947041 0.285483 0.569535 -0.224077
C24   C     C_R   0.441307 0.419181 0.070527 0.064857
C25   C     C_R   0.558986 0.574291 0.072716 0.249298
C26   C     C_R   0.557691 0.575042 0.929360 -0.203128
C27   C     C_R   0.672811 0.500554 0.499033 0.879386
C28   C     C_R   0.815795 0.608576 0.457008 -0.239520
C29   C     C_R   0.768134 0.501018 0.496887 -0.059632
C30   C     C_R   0.810636 0.394215 0.535495 -0.264796
C31   C     C_R   0.903559 0.393542 0.533259 0.163744
C32   C     C_R   0.953471 0.502580 0.493718 0.003883
C33   C     C_3   0.344558 0.846586 0.802992 -0.779687
C34   C     C_R   0.040217 0.285220 0.569344 -0.231397
C35   C     C_3   0.409541 0.865590 0.171794 -0.767065
C36   C     C_3   0.715286 0.610892 0.124393 -0.750573
C37   C     C_3   0.217555 0.195284 0.248379 -0.830415
C38   C     C_3   0.169837 0.200577 0.860411 -0.804732
C39   C     C_3   0.131891 0.813878 0.222566 -0.835633
C40   C     C_3   0.891425 0.914807 0.489052 -0.830463
C41   C     C_R   0.090264 0.393426 0.534381 0.170028
C42   C     C_R   0.047019 0.502223 0.493468 0.004633
C43   C     C_R   0.097603 0.609930 0.452651 0.041913
C44   C     C_R   0.054305 0.717518 0.410028 0.143968
C45   C     C_R   0.959473 0.719803 0.415569 0.140527
H1    H     H_    0.778898 0.689462 0.428576 0.172894
H2    H     H_    0.073118 0.200654 0.596669 0.144131
H3    H     H_    0.217696 0.312353 0.570462 0.133005
H4    H     H_    0.232779 0.688469 0.428703 0.167905
H5    H     H_    0.451199 0.774827 0.903267 0.213966
H6    H     H_    0.299675 0.766890 0.834703 0.242042
H7    H     H_    0.327648 0.868071 0.697966 0.240045
H8    H     H_    0.332162 0.929969 0.871005 0.240802
H9    H     H_    0.316018 0.888532 0.326809 0.231677
H10   H     H_    0.405989 0.961662 0.132108 0.233752
H11   H     H_    0.363827 0.800688 0.112489 0.236315
H12   H     H_    0.634184 0.211654 0.681159 0.148193
H13   H     H_    0.479021 0.832367 0.159332 0.241859
H14   H     H_    0.619172 0.745397 0.123835 0.193255
H15   H     H_    0.761106 0.672147 0.187416 0.238151
H16   H     H_    0.737216 0.618879 0.017336 0.213665
H17   H     H_    0.720986 0.511645 0.154145 0.261465
H18   H     H_    0.253180 0.074673 0.083763 0.246462
H19   H     H_    0.147149 0.162141 0.228635 0.242505
H20   H     H_    0.218367 0.299803 0.261910 0.263383
H21   H     H_    0.239607 0.154165 0.343037 0.240116
H22   H     H_    0.283982 0.148977 0.752331 0.219627
H23   H     H_    0.653855 0.119020 0.900355 0.151197
H24   H     H_    0.160398 0.293214 0.815128 0.251711
H25   H     H_    0.128126 0.126940 0.805994 0.231076
H26   H     H_    0.146116 0.205615 0.967005 0.266705
H27   H     H_    0.082270 0.910290 0.392645 0.234631
H28   H     H_    0.071193 0.810678 0.158634 0.240587
H29   H     H_    0.170867 0.727876 0.200562 0.261895
H30   H     H_    0.174733 0.897335 0.196397 0.245187
H31   H     H_    0.941893 0.874272 0.296295 0.236186
H32   H     H_    0.953539 0.956640 0.535688 0.231783
H33   H     H_    0.850753 0.865068 0.566892 0.255199
H34   H     H_    0.561750 0.932531 0.963349 0.126591
H35   H     H_    0.851184 0.992066 0.451686 0.242842
H36   H     H_    0.425357 0.109464 0.316053 0.185317
H37   H     H_    0.383378 0.326490 0.243192 0.228871
H38   H     H_    0.375466 0.333208 0.750623 0.213141
H39   H     H_    0.771173 0.311734 0.565662 0.120869
H40   H     H_    0.604191 0.636711 0.875802 0.156826
H41   H     H_    0.908960 0.201559 0.598462 0.146216
N1    N     N_R   0.499150 0.498800 0.142780 -0.117598
N2    N     N_R   0.499120 0.498720 0.857170 -0.111632
N3    N     N_2   0.437362 0.811546 0.811646 -0.271111
N4    N     N_2   0.382193 0.864922 0.312141 -0.289937
N5    N     N_2   0.623796 0.651214 0.143605 -0.257810
N6    N     N_2   0.275878 0.153975 0.137978 -0.321969
N7    N     N_2   0.263448 0.168026 0.850678 -0.325436
N8    N     N_2   0.106449 0.823320 0.363948 -0.322051
N9    N     N_2   0.913939 0.828888 0.377704 -0.315239
O1    O     O_R   0.500000 0.316780 0.614690 -0.636704
O2    O     O_R   0.499990 0.316750 0.385360 -0.641231
O3    O     O_R   0.367850 0.499980 0.614680 -0.627127
O4    O     O_R   0.367840 0.499960 0.385350 -0.634858
O5    O     O_R   0.500010 0.683250 0.614640 -0.601311
O6    O     O_R   0.500000 0.683220 0.385310 -0.577993
O7    O     O_R   0.632160 0.500040 0.614650 -0.621439
O8    O     O_R   0.632150 0.500020 0.385320 -0.591582
Zn1   Zn    Zn3+2 0.500010 0.500020 0.653130 0.939778
Zn2   Zn    Zn3+2 0.499990 0.499980 0.346870 0.957346

loop_
_geom_bond_atom_site_label_1
_geom_bond_atom_site_label_2
_ccdc_geom_bond_type
C20   N7    S    
C38   H25   S    
C4    O3    A    
C27   C29   S    
C41   C42   A    
C19   C20   A    
C25   N1    A    
C7    C8    A    
C33   H7    S    
C28   H1    S    
C12   C28   A    
C35   H13   S    
C18   C24   A    
C28   C29   A    
H9    N4    S    
C1    O1    A    
H31   N9    S    
C30   C31   A    
C10   C17   A    
O5    Zn1   S    
C18   C19   A    
C39   H29   S    
C19   N6    S    
C7    H23   S    
C21   H38   S    
C8    C9    A    
C23   H41   S    
C37   H20   S    
H18   N6    S    
C8    H34   S    
C40   H35   S    
C22   N2    A    
C9    C10   A    
O2    Zn2   S    
C5    C43   A    
C38   H24   S    
C21   C22   A    
C12   C32   A    
C33   H8    S    
C6    H12   S    
C5    H4    S    
C34   C41   A    
C36   H17   S    
N2    Zn1   S    
O6    Zn2   S    
O4    Zn2   S    
C25   N5    S    
C35   H10   S    
C9    N3    S    
C6    C11   A    
C16   O5    A    
C2    H3    S    
C25   C26   A    
C23   C31   A    
C43   C44   A    
C39   N8    S    
C29   C30   A    
C33   N3    S    
H5    N3    S    
C31   C32   A    
N1    Zn2   S    
C23   C34   A    
C37   H21   S    
O8    Zn2   S    
H14   N5    S    
O7    Zn1   S    
C36   N5    S    
C39   H30   S    
O1    Zn1   S    
C40   H33   S    
C1    C13   S    
C42   C43   A    
C40   N9    S    
C1    O2    A    
C36   H16   S    
C45   N9    S    
C3    C5    A    
C37   H19   S    
C44   C45   A    
C15   C17   A    
C38   H26   S    
C37   N6    S    
C35   H11   S    
C40   H32   S    
C12   C45   A    
C36   H15   S    
C6    C7    A    
C33   H6    S    
C27   O7    A    
C2    C3    A    
H27   N8    S    
C15   N4    S    
C11   C13   A    
C16   C17   S    
C26   H40   S    
O3    Zn1   S    
C38   N7    S    
C27   O8    A    
C18   H37   S    
C22   C24   A    
C39   H28   S    
C30   H39   S    
C24   N1    A    
C44   N8    S    
C10   C11   A    
C35   N4    S    
C16   O6    A    
C20   C21   A    
C26   N2    A    
C4    O4    A    
H22   N7    S    
C32   C42   A    
C14   C15   A    
C34   H2    S    
C2    C41   A    
C14   H36   S    
C13   C14   A    
C3    C4    S    
