data_mof_unit_3623.cif
_audit_creation_date              2012-12-10T16:44:17-0500
_audit_creation_method            fapswitch 2.2
_symmetry_space_group_name_H-M    P1
_symmetry_Int_Tables_number       1
_space_group_crystal_system       triclinic
_cell_length_a                    7.447803
_cell_length_b                    8.692923
_cell_length_c                    13.3169
_cell_angle_alpha                 94.003436
_cell_angle_beta                  77.442788
_cell_angle_gamma                 103.149967
_cell_volume                      819.299375086

loop_
_atom_site_label
_atom_site_type_symbol
_atom_type_description
_atom_site_fract_x
_atom_site_fract_y
_atom_site_fract_z
_atom_type_partial_charge
C1    C     C_R   0.545303 0.800143 0.503019 0.872828
C2    C     C_R   0.408722 0.520454 0.979868 0.010016
C3    C     C_R   0.457540 0.561819 0.874509 0.073795
C4    C     C_R   0.552880 0.561044 0.038363 0.093118
C5    C     C_R   0.720418 0.674013 0.000761 0.150442
C6    C     C_R   0.751625 0.733544 0.902594 -0.230045
C7    C     C_R   0.624378 0.675873 0.839453 -0.191660
C8    C     C_R   0.539134 0.488534 0.131422 -0.178956
C9    C     C_R   0.820242 0.671188 0.161998 -0.164710
C10   C     C_R   0.335780 0.491332 0.807652 -0.099863
C11   C     C_2   0.570786 0.968055 0.504461 -0.360623
C12   C     C_R   0.399264 0.495942 0.694747 0.775583
C13   C     C_2   0.429290 0.031932 0.495426 -0.362197
C14   C     C_R   0.454721 0.199858 0.496947 0.894225
C15   C     C_R   0.601727 0.513559 0.305805 0.822833
C16   C     C_R   0.853415 0.727694 0.062723 -0.178072
C17   C     C_R   0.663002 0.550574 0.196488 -0.033162
C18   C     C_R   0.156031 0.402641 0.848877 -0.221200
C19   C     C_R   0.095994 0.383588 0.954318 -0.187322
C20   C     C_R   0.217780 0.443810 0.021344 -0.007415
Cu1   Cu    Cu3+1 0.321300 0.483160 0.488710 0.960273
Cu2   Cu    Cu3+1 0.678700 0.516840 0.511290 0.950778
H1    H     H_    0.913340 0.725303 0.212793 0.176489
H2    H     H_    0.292945 0.960514 0.486882 0.179141
H3    H     H_    0.011162 0.619077 0.578925 0.225397
H4    H     H_    0.988548 0.380428 0.421410 0.240020
H5    H     H_    0.877245 0.822152 0.873463 0.143615
H6    H     H_    0.978640 0.818045 0.036047 0.152019
H7    H     H_    0.427754 0.387090 0.156831 0.144650
H8    H     H_    0.060027 0.349052 0.799350 0.168609
H9    H     H_    0.951303 0.324004 0.983936 0.175545
H10   H     H_    0.655311 0.726660 0.764179 0.159753
H11   H     H_    0.707140 0.039463 0.512992 0.179548
N1    N     N_2   0.947230 0.542220 0.528320 -0.223059
N2    N     N_2   0.052770 0.457780 0.471680 -0.224553
O1    O     O_R   0.383920 0.714220 0.492660 -0.581203
O2    O     O_R   0.685730 0.742660 0.511730 -0.594441
O3    O     O_R   0.275440 0.478800 0.636790 -0.586051
O4    O     O_R   0.577250 0.507240 0.655860 -0.579911
O5    O     O_R   0.314270 0.257340 0.488270 -0.583165
O6    O     O_R   0.616080 0.285780 0.507340 -0.576490
O7    O     O_R   0.422750 0.492760 0.344140 -0.564975
O8    O     O_R   0.724560 0.521200 0.363210 -0.585559
C21   C     C_2   0.130906 0.446438 0.132774 0.798617
O9    O     O_2   0.005624 0.336124 0.170283 -0.615541
O10   O     O_R   0.188216 0.577795 0.194253 -0.760788
H12   H     H_    0.118403 0.566321 0.268557 0.343667

loop_
_geom_bond_atom_site_label_1
_geom_bond_atom_site_label_2
_ccdc_geom_bond_type
C16   H6    S    
C2    C4    A    
C6    C7    A    
C18   H8    S    
C15   O7    A    
C8    C17   A    
C1    C11   S    
C6    H5    S    
C1    O2    A    
H3    N1    S    
C4    C8    A    
C19   H9    S    
C12   O4    A    
C2    C3    A    
C15   O8    A    
C3    C10   A    
C13   C14   S    
C11   C13   D    
Cu1   O5    S    
C10   C12   S    
C10   C18   A    
C14   O6    A    
Cu1   N2    S    
C8    H7    S    
C9    C17   A    
C20   C21   S    
C9    C16   A    
C21   O10   S    
C18   C19   A    
C3    C7    A    
C12   O3    A    
C5    C6    A    
Cu2   N1    S    
Cu2   O6    S    
Cu2   O4    S    
C14   O5    A    
Cu1   O7    S    
H4    N2    S    
C11   H11   S    
C21   O9    D    
C13   H2    S    
C15   C17   S    
N1    N2    D    
Cu1   O1    S    
O10   H12   S    
C9    H1    S    
C5    C16   A    
C7    H10   S    
Cu1   Cu2   S    
Cu2   O2    S    
C2    C20   A    
Cu2   O8    S    
Cu1   O3    S    
C19   C20   A    
C1    O1    A    
C4    C5    A    
