data_mof_unit_2280.cif
_audit_creation_date              2012-12-10T18:47:07-0500
_audit_creation_method            fapswitch 2.2
_symmetry_space_group_name_H-M    P1
_symmetry_Int_Tables_number       1
_space_group_crystal_system       triclinic
_cell_length_a                    10.5559
_cell_length_b                    9.821815
_cell_length_c                    15.012773
_cell_angle_alpha                 89.999895
_cell_angle_beta                  90.014561
_cell_angle_gamma                 89.999744
_cell_volume                      1556.49568443

loop_
_atom_site_label
_atom_site_type_symbol
_atom_type_description
_atom_site_fract_x
_atom_site_fract_y
_atom_site_fract_z
_atom_type_partial_charge
C1    C     C_R   0.261156 0.500000 0.485406 0.908706
C2    C     C_R   0.129834 0.500001 0.455267 -0.180155
C3    C     C_R   0.500088 0.071877 0.578235 -0.011560
C4    C     C_R   0.499917 0.928147 0.421781 -0.063383
C5    C     C_R   0.499917 0.071853 0.421781 -0.063383
C6    C     C_R   0.500088 0.928123 0.578235 -0.011558
C7    C     C_R   0.499972 0.500000 0.326500 0.947120
C8    C     C_R   0.500029 0.500000 0.673527 0.915038
C9    C     C_R   0.500040 0.624023 0.815301 -0.242410
C10   C     C_R   0.499964 0.375963 0.184886 -0.200513
C11   C     C_R   0.500036 0.500000 0.769477 -0.075361
C12   C     C_R   0.738835 0.500000 0.485429 0.908717
C13   C     C_R   0.499968 0.500000 0.230658 -0.043635
C14   C     C_R   0.500027 0.375978 0.815302 -0.242411
C15   C     C_R   0.499980 0.624038 0.184885 -0.200514
C16   C     C_R   0.500015 0.375023 0.907440 0.119180
C17   C     C_R   0.499994 0.624987 0.092768 0.110805
C18   C     C_R   0.500013 0.500001 0.953769 0.066225
C19   C     C_R   0.499995 0.500001 0.046439 0.057639
C20   C     C_R   0.500028 0.624978 0.907439 0.119179
C21   C     C_R   0.499979 0.375015 0.092769 0.110805
C22   C     C_R   0.499999 0.251356 0.953839 -0.202047
C23   C     C_R   0.499981 0.251353 0.046385 -0.193375
C24   C     C_R   0.500011 0.748649 0.046385 -0.193375
C25   C     C_2   0.136755 0.250073 0.416009 0.969144
C26   C     C_2   0.863176 0.749933 0.416034 0.969158
C27   C     C_2   0.863183 0.250059 0.416049 0.969194
C28   C     C_2   0.136748 0.749936 0.416025 0.969187
C29   C     C_R   0.500027 0.748646 0.953838 -0.202048
C30   C     C_R   0.066075 0.375587 0.440225 -0.104469
C31   C     C_R   0.933878 0.624415 0.440235 -0.104490
C32   C     C_R   0.933881 0.375584 0.440238 -0.104508
C33   C     C_R   0.066072 0.624416 0.440229 -0.104488
C34   C     C_R   0.870132 0.499999 0.455284 -0.180165
H1    H     H_    0.500048 0.719892 0.779502 0.154417
H2    H     H_    0.499852 0.874333 0.359067 0.120197
H3    H     H_    0.499853 0.125668 0.359067 0.120197
H4    H     H_    0.500161 0.874278 0.640951 0.116319
H5    H     H_    0.258872 0.160038 0.331217 0.325866
H6    H     H_    0.740959 0.839976 0.331274 0.325876
H7    H     H_    0.740978 0.159992 0.331292 0.325885
H8    H     H_    0.258851 0.840000 0.331238 0.325875
H9    H     H_    0.499954 0.280096 0.220706 0.156880
H10   H     H_    0.500025 0.280108 0.779502 0.154417
H11   H     H_    0.499984 0.719905 0.220705 0.156881
H12   H     H_    0.500000 0.155014 0.918613 0.141529
H13   H     H_    0.500010 0.844985 0.081622 0.140039
H14   H     H_    0.499969 0.155017 0.081623 0.140038
H15   H     H_    0.500039 0.844987 0.918612 0.141529
H16   H     H_    0.500161 0.125721 0.640951 0.116319
N1    N     N_R   0.500000 0.857200 0.500000 -0.070802
N2    N     N_R   0.500000 0.142800 0.500000 -0.070802
O1    O     O_R   0.316770 0.614620 0.499990 -0.604136
O2    O     O_R   0.215892 0.251004 0.341375 -0.801165
O3    O     O_2   0.871471 0.851863 0.462330 -0.528114
O4    O     O_R   0.783958 0.749013 0.341414 -0.801151
O5    O     O_2   0.871469 0.148145 0.462361 -0.528093
O6    O     O_R   0.783976 0.250957 0.341423 -0.801153
O7    O     O_2   0.128515 0.851853 0.462335 -0.528083
O8    O     O_R   0.215872 0.749031 0.341385 -0.801168
O9    O     O_R   0.683230 0.385380 0.500010 -0.604146
O10   O     O_R   0.683230 0.614620 0.500010 -0.604141
O11   O     O_R   0.316770 0.385380 0.499990 -0.604131
O12   O     O_R   0.499980 0.614680 0.367850 -0.624966
O13   O     O_R   0.500020 0.385320 0.632150 -0.632647
O14   O     O_R   0.500020 0.614680 0.632150 -0.632647
O15   O     O_R   0.499980 0.385320 0.367850 -0.624966
O16   O     O_2   0.128513 0.148139 0.462302 -0.528104
Zn1   Zn    Zn3+2 0.500000 0.653120 0.500000 1.005952
Zn2   Zn    Zn3+2 0.500000 0.346880 0.500000 1.005952

loop_
_geom_bond_atom_site_label_1
_geom_bond_atom_site_label_2
_ccdc_geom_bond_type
O9    Zn2   S    
C28   C33   S    
C3    N2    A    
C31   C33   A    
C5    N2    A    
C8    O14   A    
C13   C15   A    
C5    H3    S    
C6    N1    A    
C12   O10   A    
C9    C20   A    
O11   Zn2   S    
C7    C13   S    
C2    C30   A    
C3    C6    A    
O1    Zn1   S    
C26   O3    D    
O15   Zn2   S    
C6    H4    S    
C27   C32   S    
C31   C34   A    
C8    O13   A    
C29   H15   S    
O12   Zn1   S    
C30   C32   A    
C12   O9    A    
C9    C11   A    
C25   O16   D    
C8    C11   S    
C1    O11   A    
C2    C33   A    
C14   H10   S    
H5    O2    S    
C19   C21   A    
C3    H16   S    
C4    H2    S    
H7    O6    S    
C1    C2    S    
C18   C20   A    
C20   C29   A    
C28   O8    S    
C10   C21   A    
C11   C14   A    
C14   C16   A    
C7    O12   A    
C17   C24   A    
N2    Zn2   S    
C15   H11   S    
C4    N1    A    
C12   C34   S    
O13   Zn2   S    
O14   Zn1   S    
C26   C31   S    
C25   O2    S    
C16   C18   A    
C18   C19   A    
C27   O5    D    
C28   O7    D    
H8    O8    S    
C25   C30   S    
C15   C17   A    
C1    O1    A    
C24   C29   A    
C17   C19   A    
C9    H1    S    
C16   C22   A    
C23   H14   S    
N1    Zn1   S    
C22   H12   S    
C10   H9    S    
C22   C23   A    
C24   H13   S    
C7    O15   A    
C21   C23   A    
C10   C13   A    
O10   Zn1   S    
C32   C34   A    
C4    C5    A    
H6    O4    S    
C27   O6    S    
C26   O4    S    
