data_mof_unit_1390.cif
_audit_creation_date              2012-12-10T18:09:46-0500
_audit_creation_method            fapswitch 2.2
_symmetry_space_group_name_H-M    P1
_symmetry_Int_Tables_number       1
_space_group_crystal_system       triclinic
_cell_length_a                    10.663042
_cell_length_b                    12.596971
_cell_length_c                    13.115679
_cell_angle_alpha                 82.24669
_cell_angle_beta                  90.700257
_cell_angle_gamma                 102.49117
_cell_volume                      1704.03734264

loop_
_atom_site_label
_atom_site_type_symbol
_atom_type_description
_atom_site_fract_x
_atom_site_fract_y
_atom_site_fract_z
_atom_type_partial_charge
C1    C     C_R   0.479897 0.438766 0.691181 0.862378
C2    C     C_R   0.462039 0.447069 0.973522 0.095700
C3    C     C_R   0.432271 0.467793 0.869052 0.086688
C4    C     C_R   0.741727 0.500567 0.498671 0.853298
C5    C     C_R   0.463323 0.530589 0.035774 0.062073
C6    C     C_R   0.414665 0.625104 0.998664 0.111470
C7    C     C_R   0.366191 0.634491 0.898977 -0.232119
C8    C     C_R   0.374836 0.557030 0.835180 -0.198642
C9    C     C_R   0.515321 0.523346 0.133421 -0.236865
C10   C     C_R   0.456188 0.690823 0.164377 -0.238331
C11   C     C_R   0.462722 0.399352 0.800826 -0.119565
C12   C     C_3   0.120790 0.495811 0.501378 0.077368
C13   C     C_R   0.319412 0.089143 0.346824 -0.286444
C14   C     C_R   0.652216 0.799795 0.630056 0.021975
C15   C     C_R   0.683656 0.904577 0.658024 -0.237466
C16   C     C_R   0.513240 0.561130 0.308669 0.884217
C17   C     C_R   0.625946 0.985946 0.608352 -0.183498
C18   C     C_R   0.536032 0.962624 0.529728 0.014402
C19   C     C_R   0.508006 0.854646 0.503916 0.223569
C20   C     C_R   0.472990 0.041539 0.476305 -0.028754
C21   C     C_R   0.382421 0.011002 0.398702 0.136527
C22   C     C_R   0.357100 0.903371 0.374506 -0.059189
C23   C     C_3   0.041582 0.380582 0.481320 -0.183863
C24   C     C_R   0.420463 0.827565 0.426334 -0.276681
C25   C     C_R   0.496106 0.150511 0.496928 -0.028471
C26   C     C_R   0.346504 0.194890 0.371431 0.012691
C27   C     C_R   0.258026 0.498563 0.501211 0.835945
C28   C     C_3   0.932821 0.516161 0.607408 -0.189204
C29   C     C_3   0.079135 0.522982 0.606187 -0.432618
C30   C     C_3   0.899176 0.384753 0.471088 -0.178799
C31   C     C_3   0.954384 0.595697 0.419865 -0.174958
C32   C     C_3   0.878372 0.498776 0.497806 0.002319
C33   C     C_1   0.868029 0.429650 0.689075 0.165900
C34   C     C_3   0.094754 0.584104 0.413629 -0.459010
C35   C     C_1   0.853871 0.360949 0.367503 0.194080
C36   C     C_1   0.368751 0.805332 0.028933 0.159983
C37   C     C_1   0.265679 0.867583 0.296992 0.118109
C38   C     C_1   0.057355 0.291414 0.563561 0.191641
C39   C     C_1   0.897924 0.605602 0.316417 0.198990
C40   C     C_R   0.414580 0.706736 0.063150 0.012209
C41   C     C_R   0.502467 0.597051 0.199770 -0.066965
C42   C     C_R   0.493461 0.298835 0.839136 -0.160789
C43   C     C_R   0.502357 0.269753 0.944387 -0.120359
C44   C     C_R   0.489922 0.343813 0.011294 -0.186751
H1    H     H_    0.117514 0.560978 0.337961 0.176242
H2    H     H_    0.298970 0.255960 0.332025 0.132792
H3    H     H_    0.249976 0.069526 0.287570 0.163386
H4    H     H_    0.563234 0.181487 0.553408 0.119847
H5    H     H_    0.696400 0.735995 0.668446 0.139609
H6    H     H_    0.752319 0.922689 0.718143 0.160573
H7    H     H_    0.399459 0.747245 0.404441 0.212840
H8    H     H_    0.108595 0.467209 0.670956 0.170064
H9    H     H_    0.840279 0.317690 0.525983 0.148841
H10   H     H_    0.953811 0.674261 0.449775 0.154546
H11   H     H_    0.158470 0.665203 0.420320 0.187133
H12   H     H_    0.078241 0.360138 0.408694 0.141247
H13   H     H_    0.499394 0.317054 0.092147 0.140383
H14   H     H_    0.653592 0.065587 0.633405 0.139720
H15   H     H_    0.129698 0.607701 0.617113 0.179243
H16   H     H_    0.447573 0.748862 0.216362 0.161062
H17   H     H_    0.323587 0.702642 0.868847 0.160990
H18   H     H_    0.562849 0.458024 0.161650 0.164897
H19   H     H_    0.514457 0.244275 0.787652 0.159970
H20   H     H_    0.524478 0.191533 0.973986 0.155964
H21   H     H_    0.916362 0.595225 0.627562 0.143722
H22   H     H_    0.334909 0.567316 0.759161 0.165169
N1    N     N_R   0.433240 0.222190 0.444680 -0.101497
N2    N     N_R   0.566070 0.776970 0.554790 -0.126552
N3    N     N_1   0.817221 0.361982 0.752876 -0.208243
N4    N     N_1   0.818240 0.341865 0.286874 -0.195665
N5    N     N_1   0.332233 0.884351 0.001512 -0.194266
N6    N     N_1   0.192350 0.838758 0.235282 -0.190065
N7    N     N_1   0.069722 0.221914 0.627663 -0.195595
N8    N     N_1   0.853697 0.613713 0.235463 -0.190802
O1    O     O_R   0.468120 0.366740 0.627160 -0.609959
O2    O     O_R   0.510770 0.544830 0.662520 -0.617789
O3    O     O_R   0.663880 0.410950 0.482330 -0.621546
O4    O     O_R   0.706530 0.589040 0.517700 -0.628182
O5    O     O_R   0.489230 0.455170 0.337480 -0.616072
O6    O     O_R   0.531880 0.633260 0.372840 -0.631607
O7    O     O_R   0.293470 0.410960 0.482300 -0.622652
O8    O     O_R   0.336120 0.589050 0.517670 -0.648647
Zn1   Zn    Zn3+2 0.471520 0.381090 0.476390 0.951411
Zn2   Zn    Zn3+2 0.528480 0.618910 0.523610 0.927293

loop_
_geom_bond_atom_site_label_1
_geom_bond_atom_site_label_2
_ccdc_geom_bond_type
C30   C32   S    
N1    Zn1   S    
C12   C29   S    
C25   N1    A    
O6    Zn2   S    
O2    Zn2   S    
C7    C8    A    
C8    H22   S    
C12   C23   S    
C5    C9    A    
C30   C35   S    
C26   N1    A    
C28   C29   S    
C2    C3    A    
C5    C6    A    
C15   H6    S    
C14   H5    S    
C20   C25   A    
O3    Zn1   S    
C11   C42   A    
C10   C40   A    
C18   C19   A    
C39   N8    T    
C7    H17   S    
C36   C40   S    
C29   H15   S    
C35   N4    T    
C2    C44   A    
C1    C11   S    
C36   N5    T    
C33   N3    T    
C17   H14   S    
C24   H7    S    
C34   H11   S    
C21   C22   A    
C10   C41   A    
O7    Zn1   S    
C43   H20   S    
C30   H9    S    
C12   C27   S    
C9    H18   S    
N2    Zn2   S    
C23   C30   S    
C23   H12   S    
C6    C40   A    
C3    C8    A    
C13   H3    S    
C27   O7    A    
C22   C37   S    
C16   O6    A    
C1    O1    A    
C10   H16   S    
C43   C44   A    
C4    O4    A    
C31   C32   S    
C28   C32   S    
C44   H13   S    
C17   C18   A    
C31   C34   S    
C13   C21   A    
C19   N2    A    
C34   H1    S    
C25   H4    S    
C4    C32   S    
C28   C33   S    
O8    Zn2   S    
C22   C24   A    
C13   C26   A    
C2    C5    A    
C42   C43   A    
C12   C34   S    
C15   C17   A    
C1    O2    A    
C27   O8    A    
C6    C7    A    
C23   C38   S    
C9    C41   A    
C16   O5    A    
C28   H21   S    
C4    O3    A    
O5    Zn1   S    
O1    Zn1   S    
C42   H19   S    
C31   C39   S    
C19   C24   A    
C18   C20   A    
C31   H10   S    
C3    C11   A    
C26   H2    S    
O4    Zn2   S    
C20   C21   A    
C37   N6    T    
C14   N2    A    
C14   C15   A    
C16   C41   S    
C38   N7    T    
C29   H8    S    
