data_mof_unit_2509.cif
_audit_creation_date              2012-12-10T20:32:01-0500
_audit_creation_method            fapswitch 2.2
_symmetry_space_group_name_H-M    P1
_symmetry_Int_Tables_number       1
_space_group_crystal_system       triclinic
_cell_length_a                    9.926366
_cell_length_b                    10.665726
_cell_length_c                    15.455622
_cell_angle_alpha                 90.605517
_cell_angle_beta                  66.948168
_cell_angle_gamma                 89.813438
_cell_volume                      1505.5251758

loop_
_atom_site_label
_atom_site_type_symbol
_atom_type_description
_atom_site_fract_x
_atom_site_fract_y
_atom_site_fract_z
_atom_type_partial_charge
C1    C     C_R   0.501842 0.739816 0.496335 0.886646
C2    C     C_R   0.379497 0.455003 0.925965 0.008735
C3    C     C_R   0.265641 0.544100 0.970336 0.143647
C4    C     C_R   0.454429 0.404328 0.979849 0.064604
C5    C     C_R   0.448317 0.470010 0.061533 0.055089
C6    C     C_R   0.336239 0.560270 0.102421 -0.165111
C7    C     C_R   0.241487 0.591284 0.059631 -0.181748
C8    C     C_R   0.531205 0.289101 0.957186 -0.151745
C9    C     C_R   0.626367 0.254731 0.998972 -0.213807
C10   C     C_R   0.641015 0.330958 0.068433 0.165121
C11   C     C_R   0.550435 0.438733 0.101525 0.097411
C12   C     C_R   0.407719 0.496437 0.676268 0.905039
C13   C     C_R   0.737950 0.295908 0.109861 -0.202514
C14   C     C_R   0.736941 0.360684 0.188715 -0.197181
C15   C     C_R   0.562280 0.509175 0.175399 -0.250208
C16   C     C_R   0.384646 0.936663 0.486527 0.141281
C17   C     C_R   0.509803 0.870916 0.479774 -0.102587
C18   C     C_R   0.643516 0.933739 0.453831 -0.238333
C19   C     C_R   0.643490 0.063584 0.455792 -0.204022
C20   C     C_R   0.510084 0.128392 0.481326 -0.100282
C21   C     C_R   0.384939 0.064470 0.487203 0.126279
C22   C     C_3   0.232010 0.073403 0.559663 -0.449374
C23   C     C_R   0.502040 0.260083 0.496855 0.922788
C24   C     C_3   0.231447 0.931348 0.558717 -0.481578
C25   C     C_R   0.880377 0.521826 0.580983 0.191651
C26   C     C_R   0.977000 0.461797 0.422794 0.008434
C27   C     C_R   0.120366 0.465805 0.422232 -0.160451
C28   C     C_R   0.021526 0.518186 0.581574 0.223474
C29   C     C_3   0.990526 0.625961 0.648719 -0.574901
C30   C     C_3   0.838098 0.633041 0.646620 -0.247269
C31   C     C_R   0.591875 0.497173 0.323695 0.857469
C32   C     C_R   0.346431 0.492656 0.779309 -0.120120
C33   C     C_R   0.644853 0.464809 0.223854 -0.046615
C34   C     C_R   0.181614 0.590843 0.923357 -0.181505
C35   C     C_R   0.221549 0.564926 0.828538 -0.195760
C36   C     C_R   0.422092 0.430900 0.827776 -0.087243
H1    H     H_    0.154558 0.658883 0.094058 0.159511
H2    H     H_    0.805968 0.212646 0.085938 0.144807
H3    H     H_    0.744920 0.111820 0.443605 0.216046
H4    H     H_    0.226322 0.114829 0.627377 0.214849
H5    H     H_    0.155331 0.115329 0.531233 0.214801
H6    H     H_    0.224711 0.889906 0.626021 0.201059
H7    H     H_    0.213058 0.437097 0.359680 0.176263
H8    H     H_    0.987877 0.596268 0.718013 0.203981
H9    H     H_    0.498498 0.593394 0.202525 0.135373
H10   H     H_    0.749724 0.611363 0.715639 0.193862
H11   H     H_    0.796445 0.321219 0.227004 0.194733
H12   H     H_    0.687545 0.167576 0.977483 0.151470
H13   H     H_    0.091155 0.655042 0.958286 0.142362
H14   H     H_    0.314437 0.604218 0.169746 0.165318
H15   H     H_    0.516523 0.222968 0.908281 0.159807
N1    N     N_R   0.856900 0.500860 0.500610 -0.149143
N2    N     N_R   0.142540 0.500820 0.500610 -0.108986
O1    O     O_R   0.385310 0.683210 0.499990 -0.615669
O2    O     O_R   0.614650 0.683240 0.500000 -0.602658
O3    O     O_R   0.319830 0.499970 0.632240 -0.613701
O4    O     O_R   0.549170 0.500000 0.632250 -0.604045
O5    O     O_R   0.385350 0.316760 0.500000 -0.623122
O6    O     O_R   0.614690 0.316790 0.500010 -0.576307
O7    O     O_R   0.450830 0.500000 0.367750 -0.619238
O8    O     O_R   0.680170 0.500030 0.367760 -0.597378
Zn1   Zn    Zn3+2 0.346870 0.499980 0.499990 0.956167
Zn2   Zn    Zn3+2 0.653130 0.500020 0.500010 1.012995
H16   H     H_    0.745221 0.883679 0.439037 0.218257
H17   H     H_    0.154911 0.891815 0.529144 0.239855
C37   C     C_2   0.961427 0.404211 0.341086 0.924088
O9    O     O_2   0.883611 0.312594 0.351682 -0.658883
O10   O     O_R   0.046110 0.447011 0.251056 -0.833534
H18   H     H_    0.034195 0.394647 0.199477 0.335540
H19   H     H_    0.062460 0.707002 0.618073 0.216489
C38   C     C_2   0.810659 0.752510 0.604897 0.981349
O11   O     O_2   0.896455 0.786859 0.527758 -0.662618
O12   O     O_R   0.687381 0.825288 0.656499 -0.805862
H20   H     H_    0.682576 0.906107 0.623928 0.340953
H21   H     H_    0.162439 0.611012 0.791868 0.152208
C39   C     C_2   0.553611 0.354261 0.771737 0.889226
O13   O     O_2   0.673320 0.380777 0.771843 -0.646239
O14   O     O_R   0.540228 0.254022 0.716660 -0.814619
H22   H     H_    0.637178 0.210163 0.680442 0.345321

loop_
_geom_bond_atom_site_label_1
_geom_bond_atom_site_label_2
_ccdc_geom_bond_type
O5    Zn1   S    
C23   O5    A    
C37   O10   S    
C16   C21   A    
C24   H6    S    
O12   H20   S    
C31   O8    A    
C19   C20   A    
C4    C8    A    
C14   C33   A    
C30   C38   S    
C25   C28   A    
C23   O6    A    
C35   H21   S    
C26   C27   A    
C32   C36   A    
C28   C29   S    
C39   O14   S    
C5    C11   A    
C3    C7    A    
C5    C6    A    
C22   H5    S    
C8    C9    A    
O7    Zn1   S    
C34   C35   A    
O8    Zn2   S    
C36   C39   S    
O10   H18   S    
C11   C15   A    
C16   C17   A    
O2    Zn2   S    
C31   C33   S    
C9    C10   A    
C37   O9    D    
C16   C24   S    
C21   C22   S    
C12   C32   S    
O4    Zn2   S    
C6    C7    A    
C26   C37   S    
C32   C35   A    
C39   O13   D    
C38   O12   S    
O14   H22   S    
C18   C19   A    
O1    Zn1   S    
C3    C34   A    
N1    Zn2   S    
C31   O7    A    
C2    C4    A    
C1    O1    A    
C29   C30   S    
C26   N1    A    
N2    Zn1   S    
C20   C23   S    
C22   H4    S    
C17   C18   A    
C7    H1    S    
C6    H14   S    
C8    H15   S    
C13   H2    S    
C12   O3    A    
C19   H3    S    
C24   H17   S    
C12   O4    A    
C29   H8    S    
C22   C24   S    
C15   H9    S    
C29   H19   S    
C2    C36   A    
C25   C30   S    
C34   H13   S    
C1    C17   S    
C30   H10   S    
C4    C5    A    
C10   C13   A    
C28   N2    A    
C27   N2    A    
C14   H11   S    
O6    Zn2   S    
C2    C3    A    
C1    O2    A    
C25   N1    A    
C38   O11   D    
C18   H16   S    
O3    Zn1   S    
C10   C11   A    
C27   H7    S    
C20   C21   A    
C9    H12   S    
C13   C14   A    
C15   C33   A    
