data_mof_unit_3861.cif
_audit_creation_date              2012-10-26T17:13:01-0400
_audit_creation_method            fapswitch 2.2
_symmetry_space_group_name_H-M    P1
_symmetry_Int_Tables_number       1
_space_group_crystal_system       triclinic
_cell_length_a                    16.808028
_cell_length_b                    16.884895
_cell_length_c                    16.859483
_cell_angle_alpha                 68.763922
_cell_angle_beta                  68.23359
_cell_angle_gamma                 67.854928
_cell_volume                      3975.84120759

loop_
_atom_site_label
_atom_site_type_symbol
_atom_type_description
_atom_site_fract_x
_atom_site_fract_y
_atom_site_fract_z
_atom_type_partial_charge
C1    C     C_R   0.327256 0.963643 0.441753 0.014968
C2    C     C_R   0.318568 0.441223 0.979142 -0.021093
C3    C     C_R   0.549910 0.412861 0.977581 0.011511
C4    C     C_R   0.033397 0.452127 0.578880 0.009828
C5    C     C_R   0.983727 0.538004 0.420998 0.018297
C6    C     C_3   0.216012 0.079140 0.202760 0.029453
C7    C     C_3   0.183447 0.075375 0.131223 -0.342542
C8    C     C_3   0.740365 0.167751 0.679235 0.058703
C9    C     C_3   0.805433 0.182322 0.712437 -0.312982
C10   C     C_3   0.995143 0.218574 0.210066 0.060665
C11   C     C_3   0.944514 0.217885 0.151517 -0.320791
C12   C     C_3   0.114781 0.733690 0.738499 0.052380
C13   C     C_R   0.986395 0.690151 0.571406 -0.017687
C14   C     C_3   0.116911 0.798803 0.780245 -0.279927
C15   C     C_3   0.318883 0.258418 0.836329 0.058575
C16   C     C_3   0.279517 0.200341 0.819248 -0.325670
C17   C     C_3   0.707564 0.705777 0.156268 0.006468
C18   C     C_3   0.759649 0.741679 0.185502 -0.342167
C19   C     C_R   0.021317 0.303409 0.428610 -0.024898
C20   C     C_R   0.450864 0.006364 0.444742 0.000945
C21   C     C_R   0.550673 0.019795 0.540693 0.001339
C22   C     C_R   0.005881 0.445110 0.449747 -0.000339
C23   C     C_R   0.006152 0.545612 0.552229 0.000104
C24   C     C_R   0.456338 0.442156 0.997145 0.006617
C25   C     C_R   0.549869 0.540403 0.014668 0.000731
C26   C     C_R   0.012360 0.831906 0.569927 0.608157
C27   C     C_R   0.674111 0.060647 0.544598 -0.001647
C28   C     C_R   0.986756 0.167885 0.430420 0.601192
C29   C     C_R   0.830628 0.569031 0.016112 0.591645
C30   C     C_R   0.171564 0.433995 0.974386 0.606282
C31   C     C_R   0.568695 0.019702 0.829140 0.608258
C32   C     C_R   0.429120 0.991437 0.166448 0.580783
C33   C     C_R   0.435402 0.171221 0.971994 0.597456
C34   C     C_R   0.565127 0.829111 0.024571 0.598052
C35   C     C_R   0.980463 0.432608 0.169638 0.567835
C36   C     C_R   0.025084 0.565684 0.829055 0.630428
C37   C     C_R   0.171671 0.975349 0.433703 0.627508
C38   C     C_R   0.996084 0.438878 0.311338 -0.016171
C39   C     C_R   0.828243 0.030610 0.563591 0.611086
C40   C     C_R   0.400920 0.999579 0.396758 -0.039453
C41   C     C_R   0.599028 0.027774 0.589209 -0.040325
C42   C     C_R   0.004975 0.395909 0.397688 -0.036110
C43   C     C_R   0.010764 0.596187 0.600660 -0.036081
C44   C     C_R   0.408916 0.399372 0.979771 -0.034100
C45   C     C_R   0.596153 0.595246 0.014598 -0.040644
C46   C     C_R   0.268514 0.972691 0.392969 0.045600
C47   C     C_R   0.728416 0.053263 0.595904 0.001633
C48   C     C_R   0.985636 0.391388 0.262312 -0.003494
C49   C     C_R   0.041103 0.552491 0.677428 0.007258
C50   C     C_R   0.033552 0.603549 0.732150 0.022266
C51   C     C_R   0.402724 0.269815 0.953694 0.006064
C52   C     C_R   0.599729 0.732842 0.030016 0.003890
C53   C     C_R   0.610398 0.024701 0.731608 0.015817
C54   C     C_R   0.385159 0.004140 0.257321 -0.007896
C55   C     C_R   0.735639 0.609906 0.013393 0.012147
C56   C     C_R   0.270312 0.397571 0.962553 0.015218
C57   C     C_R   0.006381 0.738449 0.612520 0.017116
C58   C     C_R   0.997364 0.258717 0.386661 0.001633
C59   C     C_R   0.523503 0.937984 0.722062 0.254475
C60   C     C_R   0.453811 0.319382 0.955500 0.019549
C61   C     C_R   0.486690 0.079178 0.261000 0.237950
C62   C     C_R   0.944011 0.731065 0.501954 0.241502
C63   C     C_R   0.064091 0.260362 0.497948 0.235175
C64   C     C_R   0.735212 0.500860 0.945314 0.246993
C65   C     C_R   0.282197 0.528335 0.989544 0.277170
C66   C     C_R   0.318806 0.916382 0.531582 0.253270
C67   C     C_R   0.690044 0.101322 0.452365 0.242007
C68   C     C_R   0.548285 0.296174 0.926254 0.266114
C69   C     C_R   0.453943 0.709285 0.038386 0.247768
C70   C     C_R   0.000616 0.527812 0.277178 0.233575
C71   C     C_R   0.548997 0.681566 0.027218 0.001248
C72   C     C_R   0.080156 0.459778 0.695368 0.254877
C73   C     C_R   0.299932 0.991517 0.300077 0.206253
C74   C     C_R   0.686513 0.057300 0.684697 0.221847
C75   C     C_R   0.979164 0.303181 0.303065 0.206988
C76   C     C_R   0.024023 0.695165 0.695862 0.203934
C77   C     C_R   0.315532 0.313651 0.944196 0.201460
C78   C     C_R   0.687875 0.690219 0.037132 0.206750
C79   C     C_R   0.639215 0.096619 0.404038 0.049029
C80   C     C_R   0.369180 0.921648 0.580033 0.050892
C81   C     C_R   0.070457 0.409003 0.650973 0.059787
C82   C     C_R   0.575371 0.998135 0.682638 -0.034645
C83   C     C_R   0.973694 0.579982 0.335580 0.043181
C84   C     C_R   0.408822 0.645676 0.063698 0.030064
C85   C     C_R   0.596488 0.340451 0.939988 0.058553
C86   C     C_R   0.537507 0.085097 0.308186 0.044876
C87   C     C_R   0.471809 0.932263 0.675542 0.033960
C88   C     C_R   0.318754 0.555633 0.033341 0.071533
C89   C     C_R   0.690312 0.443550 0.949380 0.040296
C90   C     C_R   0.062792 0.308817 0.551774 0.041633
C91   C     C_R   0.951264 0.681552 0.446895 0.045981
C92   C     C_R   0.655073 0.133832 0.312188 -0.110937
C93   C     C_R   0.425660 0.027196 0.303496 -0.023964
C94   C     C_R   0.359567 0.877306 0.670267 -0.101154
C95   C     C_R   0.100787 0.315972 0.674458 -0.109319
C96   C     C_R   0.949021 0.672677 0.306977 -0.119535
C97   C     C_R   0.314853 0.670992 0.087679 -0.090630
C98   C     C_R   0.690287 0.317594 0.911814 -0.110142
C99   C     C_R   0.604894 0.128594 0.265298 -0.111989
C100  C     C_R   0.410596 0.881803 0.716907 -0.093570
C101  C     C_R   0.270761 0.629891 0.066678 -0.044928
C102  C     C_R   0.736367 0.369146 0.915185 -0.114201
C103  C     C_R   0.096794 0.266661 0.625894 -0.114329
C104  C     C_R   0.690417 0.567795 0.991491 -0.016077
C105  C     C_R   0.933236 0.723096 0.363978 -0.102506
C106  C     C_R   0.520377 0.047494 0.400249 0.005226
C107  C     C_R   0.483367 0.976092 0.584804 0.001941
C108  C     C_R   0.030687 0.401889 0.528765 0.002804
C109  C     C_R   0.979743 0.588415 0.473834 0.009289
C110  C     C_R   0.409855 0.518067 0.028656 0.014925
C111  C     C_R   0.596972 0.463399 0.984154 0.004849
C112  C     C_R   0.570605 0.054001 0.448257 0.009733
C113  C     C_R   0.432980 0.969836 0.536859 0.009586
C114  C     C_R   0.456215 0.565249 0.040615 0.014913
Cl1   Cl    Cl    0.555402 0.846976 0.808231 -0.515192
Cl2   Cl    Cl    0.398146 0.805921 0.968730 -0.566009
Cl3   Cl    Cl    0.094379 0.549146 0.188923 -0.632316
Cl4   Cl    Cl    0.164644 0.412755 0.749891 -0.673028
Cl5   Cl    Cl    0.479718 0.157630 0.158866 -0.643880
Cl6   Cl    Cl    0.859159 0.832795 0.500761 -0.584628
Cl7   Cl    Cl    0.148150 0.158921 0.494441 -0.635896
Cl8   Cl    Cl    0.831875 0.511007 0.856130 -0.591099
Cl9   Cl    Cl    0.244414 0.614411 0.901938 -0.637512
Cl10  Cl    Cl    0.268796 0.830024 0.573345 -0.683967
Cl11  Cl    Cl    0.759006 0.173862 0.401482 -0.606572
Cl12  Cl    Cl    0.602574 0.236705 0.845474 -0.678672
Cu1   Cu    Cu3+1 0.995180 0.995180 0.424630 1.057873
Cu2   Cu    Cu3+1 0.004820 0.004820 0.575370 1.033033
Cu3   Cu    Cu3+1 0.995180 0.424630 0.995180 1.015037
Cu4   Cu    Cu3+1 0.004820 0.575370 0.004820 1.090491
Cu5   Cu    Cu3+1 0.424630 0.995180 0.995180 1.029864
Cu6   Cu    Cu3+1 0.575370 0.004820 0.004820 1.103531
H1    H     H_    0.400174 0.847120 0.786199 0.219439
H2    H     H_    0.276833 0.731166 0.109039 0.156966
H3    H     H_    0.941499 0.705926 0.240788 0.131359
H4    H     H_    0.127138 0.280428 0.731048 0.148469
H5    H     H_    0.267144 0.116318 0.169253 0.147129
H6    H     H_    0.160723 0.116687 0.248053 0.115720
H7    H     H_    0.126844 0.045636 0.161808 0.124914
H8    H     H_    0.162332 0.142812 0.088620 0.103003
H9    H     H_    0.237595 0.034418 0.088315 0.195288
H10   H     H_    0.676706 0.221033 0.685662 0.192347
H11   H     H_    0.769767 0.176114 0.606978 0.121521
H12   H     H_    0.621147 0.157195 0.194549 0.170597
H13   H     H_    0.873717 0.139663 0.689883 0.155709
H14   H     H_    0.806527 0.252573 0.686033 0.111937
H15   H     H_    0.786174 0.165131 0.785670 0.193142
H16   H     H_    0.020547 0.148470 0.241759 0.146091
H17   H     H_    0.055501 0.241442 0.169706 0.118684
H18   H     H_    0.908723 0.285658 0.120292 0.190368
H19   H     H_    0.991744 0.184983 0.098719 0.058469
H20   H     H_    0.894403 0.180573 0.192042 0.161409
H21   H     H_    0.154290 0.745337 0.668630 0.196168
H22   H     H_    0.147160 0.665575 0.772671 0.190692
H23   H     H_    0.913389 0.794534 0.340273 0.161552
H24   H     H_    0.075723 0.788203 0.850074 0.170001
H25   H     H_    0.186368 0.788612 0.778994 0.160606
H26   H     H_    0.090539 0.867845 0.743285 0.166924
H27   H     H_    0.391296 0.224672 0.827298 0.121629
H28   H     H_    0.314950 0.322329 0.785389 0.202139
H29   H     H_    0.205650 0.224935 0.837630 0.185582
H30   H     H_    0.304799 0.200331 0.748331 0.114592
H31   H     H_    0.298902 0.131368 0.859893 0.152245
H32   H     H_    0.725539 0.632399 0.183084 0.121133
H33   H     H_    0.634979 0.734272 0.184753 0.124170
H34   H     H_    0.120427 0.195236 0.647061 0.163535
H35   H     H_    0.742138 0.814986 0.161304 0.162132
H36   H     H_    0.743237 0.722918 0.258808 0.105084
H37   H     H_    0.832430 0.713672 0.158541 0.165133
H38   H     H_    0.808449 0.350211 0.890907 0.158933
H39   H     H_    0.200404 0.659652 0.070888 0.189761
H40   H     H_    0.312138 0.839125 0.705993 0.175153
H41   H     H_    0.707226 0.166412 0.275108 0.169371
H42   H     H_    0.728925 0.260755 0.885318 0.152888
O1    O     O_R   0.124540 0.978640 0.385460 -0.488003
O2    O     O_R   0.124540 0.385460 0.978640 -0.460080
O3    O     O_R   0.021360 0.875460 0.614540 -0.465147
O4    O     O_R   0.978640 0.124540 0.385460 -0.484198
O5    O     O_R   0.013780 0.867370 0.487190 -0.484977
O6    O     O_R   0.986220 0.132630 0.512810 -0.508696
O7    O     O_R   0.867370 0.487190 0.013780 -0.505236
O8    O     O_R   0.132630 0.512810 0.986220 -0.452692
O9    O     O_R   0.487190 0.013780 0.867370 -0.504558
O10   O     O_R   0.512810 0.986220 0.132630 -0.501517
O11   O     O_R   0.512810 0.132630 0.986220 -0.424673
O12   O     O_R   0.875460 0.021360 0.614540 -0.492883
O13   O     O_R   0.487190 0.867370 0.013780 -0.437067
O14   O     O_R   0.986220 0.512810 0.132630 -0.479395
O15   O     O_R   0.013780 0.487190 0.867370 -0.431792
O16   O     O_R   0.132630 0.986220 0.512810 -0.443665
O17   O     O_R   0.867370 0.013780 0.487190 -0.428396
O18   O     O_3   0.249283 0.991544 0.251203 -0.517409
O19   O     O_3   0.724557 0.083769 0.727942 -0.501936
O20   O     O_3   0.935631 0.269095 0.271791 -0.488738
O21   O     O_3   0.025240 0.744667 0.745065 -0.524005
O22   O     O_3   0.272264 0.272507 0.921883 -0.524989
O23   O     O_R   0.978640 0.385460 0.124540 -0.524238
O24   O     O_3   0.729513 0.729875 0.062933 -0.512363
O25   O     O_R   0.021360 0.614540 0.875460 -0.473014
O26   O     O_R   0.385460 0.124540 0.978640 -0.521532
O27   O     O_R   0.614540 0.875460 0.021360 -0.468296
O28   O     O_R   0.614540 0.021360 0.875460 -0.424167
O29   O     O_R   0.385460 0.978640 0.124540 -0.486383
O30   O     O_R   0.875460 0.614540 0.021360 -0.460917

loop_
_geom_bond_atom_site_label_1
_geom_bond_atom_site_label_2
_ccdc_geom_bond_type
C102  H38   S    
C96   C105  A    
C38   C70   A    
C69   Cl2   S    
C25   C45   A    
C89   C102  A    
C3    C85   A    
C91   C105  A    
C53   C74   A    
C59   C82   A    
C7    H9    S    
C12   H21   S    
C2    C65   A    
C88   C101  A    
Cu4   O30   S    
C106  C112  A    
C26   O5    A    
C4    C108  A    
C72   Cl4   S    
Cu6   O27   S    
C29   O7    A    
C79   C112  A    
C14   H26   S    
Cu2   O12   S    
C84   C97   A    
C97   H2    S    
C57   C76   A    
C45   C104  A    
C77   O22   S    
C38   C42   A    
C67   Cl11  S    
C10   H17   S    
C20   C113  A    
C81   C95   A    
Cu4   O14   S    
C1    C46   A    
C18   H37   S    
C61   Cl5   S    
C83   C96   A    
C34   O27   A    
C15   C16   S    
C9    H14   S    
C23   C43   A    
C64   C104  A    
C30   O2    A    
C69   C71   A    
C59   Cl1   S    
C107  C113  A    
C31   O28   A    
Cu3   O7    S    
C85   C98   A    
C1    C40   A    
C94   H40   S    
C39   O12   A    
Cu5   O9    S    
C5    C22   A    
C19   C63   A    
C35   O14   A    
C54   C93   A    
C49   C72   A    
Cu3   O15   S    
C22   C42   A    
Cu1   Cu2   S    
C36   O25   A    
Cu3   O2    S    
Cu3   O23   S    
Cu2   O6    S    
C17   H32   S    
Cu5   O29   S    
C40   C93   A    
C62   Cl6   S    
C72   C81   A    
C19   C42   A    
C88   C110  A    
C37   O16   A    
C74   O19   S    
C19   C58   A    
C29   O30   A    
C68   C85   A    
C30   O8    A    
C48   C75   A    
C3    C24   A    
C86   C106  A    
C64   C89   A    
C52   C78   A    
C35   C48   S    
C32   C54   S    
C63   Cl7   S    
C95   C103  A    
C58   C75   A    
C1    C66   A    
C96   H3    S    
C20   C106  A    
C17   H33   S    
C16   H31   S    
Cu1   O1    S    
C23   C109  A    
C45   C71   A    
C13   C62   A    
C14   H25   S    
C36   O15   A    
C99   H12   S    
C8    O19   S    
C24   C110  A    
Cu4   O8    S    
C2    C44   A    
C55   C78   A    
C18   H36   S    
C8    C9    S    
C92   H41   S    
C29   C55   S    
C33   O26   A    
C16   H30   S    
C98   C102  A    
C30   C56   S    
C55   C104  A    
C9    H15   S    
Cu1   O17   S    
C56   C77   A    
C53   C82   A    
C6    H6    S    
C51   C77   A    
C15   H27   S    
C86   C99   A    
C76   O21   S    
C50   C76   A    
C37   O1    A    
C54   C73   A    
C39   O17   A    
C27   C41   A    
C11   H18   S    
C20   C40   A    
C94   C100  A    
C78   O24   S    
C62   C91   A    
C17   C18   S    
C67   C79   A    
C17   O24   S    
C31   C53   S    
C70   C83   A    
C28   O6    A    
C79   C92   A    
C21   C107  A    
C21   C41   A    
C15   O22   S    
C11   H19   S    
C105  H23   S    
C12   C14   S    
C24   C44   A    
C12   O21   S    
C66   Cl10  S    
C80   C94   A    
Cu5   Cu6   S    
C68   Cl12  S    
C13   C43   A    
C21   C112  A    
C36   C50   S    
C100  H1    S    
C35   O23   A    
C65   C88   A    
C39   C47   S    
C87   C100  A    
C26   O3    A    
C27   C47   A    
C4    C23   A    
C110  C114  A    
C84   C114  A    
C31   O9    A    
Cu1   O4    S    
Cu6   O28   S    
C32   O10   A    
C43   C49   A    
C47   C74   A    
C12   H22   S    
C14   H24   S    
C87   C107  A    
Cu6   O11   S    
C33   O11   A    
C18   H35   S    
C5    C83   A    
C6    C7    S    
Cu2   O3    S    
C28   C58   S    
C16   H29   S    
C33   C51   S    
C66   C80   A    
C89   C111  A    
C34   C52   S    
Cu1   O5    S    
C91   C109  A    
C32   O29   A    
C10   O20   S    
Cu5   O26   S    
Cu3   Cu4   S    
C90   C108  A    
C15   H28   S    
C69   C84   A    
C2    C56   A    
C25   C114  A    
Cu6   O10   S    
C7    H7    S    
C7    H8    S    
C5    C109  A    
C44   C60   A    
C22   C108  A    
C41   C82   A    
C4    C81   A    
C63   C90   A    
C9    H13   S    
C95   H4    S    
C38   C48   A    
C101  H39   S    
C8    H11   S    
Cu2   O16   S    
C61   C86   A    
C65   Cl9   S    
C34   O13   A    
C26   C57   S    
C59   C87   A    
C90   C103  A    
C73   O18   S    
C27   C67   A    
C10   C11   S    
C25   C111  A    
C3    C111  A    
C75   O20   S    
C11   H20   S    
C6    H5    S    
C13   C57   A    
C80   C113  A    
C60   C68   A    
C103  H34   S    
C64   Cl8   S    
C49   C50   A    
C6    O18   S    
C52   C71   A    
C8    H10   S    
C51   C60   A    
C70   Cl3   S    
C37   C46   S    
C61   C93   A    
C28   O4    A    
C46   C73   A    
C97   C101  A    
Cu4   O25   S    
C92   C99   A    
C10   H16   S    
C98   H42   S    
Cu5   O13   S    
