data_mof_unit_3268.cif
_audit_creation_date              2012-12-11T17:20:01-0500
_audit_creation_method            fapswitch 2.2
_symmetry_space_group_name_H-M    P1
_symmetry_Int_Tables_number       1
_space_group_crystal_system       triclinic
_cell_length_a                    8.256892
_cell_length_b                    16.369718
_cell_length_c                    22.879061
_cell_angle_alpha                 95.71165
_cell_angle_beta                  89.672694
_cell_angle_gamma                 93.074693
_cell_volume                      3072.61993701

loop_
_atom_site_label
_atom_site_type_symbol
_atom_type_description
_atom_site_fract_x
_atom_site_fract_y
_atom_site_fract_z
_atom_type_partial_charge
Ba1   Ba    Ba6+2 0.848660 0.538140 0.472240 1.643055
Ba2   Ba    Ba6+2 0.341160 0.461930 0.527770 1.652303
C1    C     C_3   0.634082 0.841408 0.321408 -0.366177
C2    C     C_R   0.093502 0.567522 0.939281 -0.027953
C3    C     C_R   0.047543 0.562534 0.879202 0.595696
C4    C     C_3   0.091434 0.715522 0.312428 0.319609
C5    C     C_R   0.967663 0.419626 0.880958 0.572268
C6    C     C_R   0.012239 0.422815 0.940775 -0.016080
C7    C     C_R   0.075325 0.497153 0.970107 -0.052628
C8    C     C_R   0.156663 0.641440 0.969465 -0.075567
C9    C     C_R   0.200719 0.645297 0.028752 -0.075269
C10   C     C_R   0.183127 0.575382 0.060040 -0.018913
C11   C     C_R   0.120153 0.501064 0.030549 -0.052147
C12   C     C_3   0.618256 0.755759 0.341858 0.352062
C13   C     C_R   0.995300 0.352782 0.971921 -0.074998
C14   C     C_R   0.040002 0.356511 0.031004 -0.079164
C15   C     C_R   0.102617 0.430484 0.061153 -0.023748
C16   C     C_3   0.065842 0.741019 0.251218 -0.323447
C17   C     C_R   0.148750 0.435111 0.121029 0.588682
C18   C     C_R   0.226833 0.578370 0.120083 0.575240
C19   C     C_2   0.797102 0.444985 0.769085 -0.084352
C20   C     C_3   0.772421 0.419101 0.704490 -0.049282
C21   C     C_1   0.003461 0.513383 0.685481 0.032546
C22   C     C_2   0.049601 0.517735 0.741812 -0.104235
C23   C     C_3   0.506879 0.345658 0.349300 0.275489
C24   C     C_2   0.939227 0.483945 0.787837 0.195932
C25   C     C_R   0.404746 0.549141 0.232345 -0.098784
C26   C     C_R   0.446342 0.555301 0.292027 -0.018723
C27   C     C_R   0.192402 0.484829 0.314849 0.022549
C28   C     C_3   0.188771 0.712157 0.596954 0.310729
C29   C     C_R   0.147651 0.479845 0.254982 -0.109967
C30   C     C_R   0.252685 0.513119 0.212811 0.207540
C31   C     C_2   0.871392 0.470685 0.665165 -0.290692
C32   C     C_R   0.384915 0.732598 0.474650 -0.297904
C33   C     C_R   0.526520 0.758877 0.505076 0.031151
C34   C     C_3   0.482547 0.321963 0.283824 -0.374819
C35   C     C_R   0.579261 0.841899 0.509900 -0.126348
C36   C     C_R   0.487756 0.899827 0.484638 0.245791
C37   C     C_R   0.339658 0.872808 0.456843 -0.169271
C38   C     C_R   0.287492 0.789340 0.452854 -0.008494
C39   C     C_R   0.621306 0.147102 0.488651 -0.122471
C40   C     C_3   0.196092 0.804966 0.611729 -0.374042
C41   C     C_R   0.671126 0.230052 0.491662 -0.008403
C42   C     C_R   0.716652 0.091007 0.514329 0.252309
C43   C     C_R   0.813045 0.258967 0.520876 -0.280577
C44   C     C_R   0.912635 0.204875 0.544465 -0.003784
C45   C     C_3   0.096370 0.285133 0.686996 0.331816
C46   C     C_R   0.864417 0.120689 0.541692 -0.171619
C47   C     C_3   0.924542 0.286616 0.368633 0.323714
C48   C     C_3   0.943006 0.196410 0.378974 -0.234707
C49   C     C_3   0.682034 0.638868 0.647233 0.300082
C50   C     C_3   0.685527 0.659082 0.713560 -0.356117
C51   C     C_R   0.027981 0.143680 0.331293 0.085382
C52   C     C_R   0.064179 0.168872 0.275267 -0.031297
C53   C     C_R   0.143051 0.116881 0.233403 -0.079200
C54   C     C_R   0.185341 0.039281 0.246569 -0.057863
C55   C     C_R   0.148464 0.013276 0.301622 -0.065977
C56   C     C_3   0.118102 0.261047 0.748810 -0.315347
C57   C     C_R   0.069991 0.065027 0.343674 -0.060532
C58   C     C_3   0.557145 0.242895 0.662891 0.351812
C59   C     C_3   0.520692 0.159417 0.685219 -0.362107
C60   C     C_R   0.338676 0.525209 0.332820 -0.294564
H1    H     H_    0.278689 0.822600 0.649563 0.129024
H2    H     H_    0.775804 0.710645 0.725690 0.134657
H3    H     H_    0.719112 0.604758 0.735165 0.071261
H4    H     H_    0.487292 0.739720 0.348263 -0.057813
H5    H     H_    0.578958 0.886051 0.354382 0.078521
H6    H     H_    0.391010 0.366708 0.368413 0.051619
H7    H     H_    0.601511 0.396565 0.355353 0.049201
H8    H     H_    0.384612 0.272843 0.276638 0.141728
H9    H     H_    0.448297 0.375973 0.261974 0.073932
H10   H     H_    0.596525 0.299370 0.263691 0.113936
H11   H     H_    0.570538 0.841980 0.278807 0.120654
H12   H     H_    0.241747 0.836175 0.573677 0.060908
H13   H     H_    0.069059 0.686332 0.218682 0.127811
H14   H     H_    0.173935 0.341778 0.682407 0.092827
H15   H     H_    0.967253 0.297496 0.680987 -0.051313
H16   H     H_    0.236128 0.232997 0.753219 0.144733
H17   H     H_    0.116881 0.316774 0.780382 0.124725
H18   H     H_    0.018943 0.216394 0.759467 0.120815
H19   H     H_    0.691216 0.254106 0.663154 -0.063338
H20   H     H_    0.511943 0.240325 0.617029 0.074068
H21   H     H_    0.586467 0.111898 0.657966 0.078738
H22   H     H_    0.388889 0.142539 0.682392 0.151820
H23   H     H_    0.073016 0.825854 0.623114 0.128807
H24   H     H_    0.013223 0.659341 0.317176 0.101445
H25   H     H_    0.560874 0.160828 0.731568 0.121808
H26   H     H_    0.024881 0.301045 0.053071 0.119202
H27   H     H_    0.947398 0.294493 0.950639 0.122640
H28   H     H_    0.248686 0.703544 0.050075 0.121057
H29   H     H_    0.491204 0.571743 0.201233 0.114558
H30   H     H_    0.172349 0.696793 0.947303 0.122962
H31   H     H_    0.168680 0.544563 0.754648 0.128964
H32   H     H_    0.710435 0.421906 0.800120 0.118581
H33   H     H_    0.032053 0.449914 0.241390 0.117309
H34   H     H_    0.869471 0.317014 0.408610 0.003962
H35   H     H_    0.372896 0.529308 0.378632 0.082078
H36   H     H_    0.220682 0.701495 0.317040 -0.042284
H37   H     H_    0.850308 0.458273 0.618277 0.082550
H38   H     H_    0.510621 0.126774 0.465164 0.109077
H39   H     H_    0.264413 0.916746 0.439279 0.086657
H40   H     H_    0.689433 0.860877 0.534100 0.113708
H41   H     H_    0.941630 0.078489 0.560232 0.092513
H42   H     H_    0.344322 0.668369 0.471770 0.077488
H43   H     H_    0.850865 0.323469 0.522316 0.079258
H44   H     H_    0.945841 0.767718 0.248092 0.147110
H45   H     H_    0.820735 0.167111 0.385449 0.049025
H46   H     H_    0.162176 0.787404 0.240902 0.113455
H47   H     H_    0.312123 0.692252 0.586606 0.005897
H48   H     H_    0.108092 0.696286 0.558382 0.064975
H49   H     H_    0.683522 0.757256 0.384348 0.079300
H50   H     H_    0.845438 0.290513 0.330039 0.021342
H51   H     H_    0.031847 0.228096 0.263261 0.086298
H52   H     H_    0.171077 0.136769 0.190595 0.086546
H53   H     H_    0.246178 0.999187 0.214034 0.072020
H54   H     H_    0.180643 0.952993 0.311751 0.084569
H55   H     H_    0.042240 0.043839 0.386177 0.070133
H56   H     H_    0.011942 0.195884 0.420533 0.082341
H57   H     H_    0.563823 0.676787 0.729560 0.133578
H58   H     H_    0.804849 0.623898 0.631838 0.009284
H59   H     H_    0.596249 0.584963 0.636653 0.078986
H60   H     H_    0.763998 0.860466 0.316051 0.142569
N1    N     N_R   0.985762 0.488946 0.850187 -0.423116
N2    N     N_R   0.207726 0.508914 0.150564 -0.422276
N3    N     N_2   0.536555 0.985227 0.487703 -0.235968
N4    N     N_2   0.670404 0.005185 0.512020 -0.233184
O1    O     O_2   0.899090 0.455560 0.360740 -0.485891
O2    O     O_2   0.249371 0.210234 0.539382 -0.475280
O3    O     O_3   0.142048 0.220747 0.646264 -0.604076
O4    O     O_3   0.139470 0.456390 0.431790 -0.458808
O5    O     O_3   0.555510 0.597400 0.529070 -0.487440
O6    O     O_2   0.384010 0.302440 0.472310 -0.425187
O7    O     O_3   0.554970 0.276865 0.375302 -0.651071
O8    O     O_2   0.442512 0.463341 0.709765 -0.497136
O9    O     O_3   0.479909 0.304066 0.698936 -0.595093
O10   O     O_2   0.060307 0.624166 0.853138 -0.594615
O11   O     O_2   0.913336 0.354436 0.856247 -0.618887
O12   O     O_3   0.633204 0.707492 0.621388 -0.633126
O13   O     O_2   0.138858 0.372873 0.146509 -0.611029
O14   O     O_2   0.281401 0.643258 0.145186 -0.615414
O15   O     O_3   0.652060 0.602710 0.395680 -0.485153
O16   O     O_2   0.782971 0.549189 0.292727 -0.498419
O17   O     O_3   0.076788 0.324208 0.359421 -0.643380
O18   O     O_3   0.686966 0.699622 0.299555 -0.598732
O19   O     O_2   0.805680 0.697590 0.527730 -0.459576
O20   O     O_3   0.061950 0.644310 0.424380 -0.492826
O21   O     O_2   0.952560 0.791069 0.462937 -0.480217
O22   O     O_3   0.048544 0.779575 0.354052 -0.605351
O23   O     O_2   0.290610 0.544470 0.639300 -0.461766
O24   O     O_3   0.050220 0.543670 0.568220 -0.493950
O25   O     O_3   0.537630 0.397360 0.604330 -0.476135
O26   O     O_3   0.129587 0.675393 0.645884 -0.624046
O27   O     O_3   0.634180 0.402670 0.470930 -0.478759
O28   O     O_3   0.127750 0.355750 0.575620 -0.486166
P1    P     P_3+3 0.070660 0.431690 0.369620 0.990205
P2    P     P_3+3 0.630590 0.685720 0.544880 0.987897
P3    P     P_3+3 0.087131 0.751550 0.424210 0.944507
P4    P     P_3+3 0.119040 0.568370 0.630390 0.994074
P5    P     P_3+3 0.108070 0.247845 0.575519 0.965428
P6    P     P_3+3 0.643157 0.600205 0.319162 0.948980
P7    P     P_3+3 0.564114 0.300976 0.451460 0.951853
P8    P     P_3+3 0.557088 0.399610 0.680355 0.942661

loop_
_geom_bond_atom_site_label_1
_geom_bond_atom_site_label_2
_ccdc_geom_bond_type
Ba2   O24   S    
C3    O10   D    
C53   C54   A    
C52   H51   S    
C16   H13   S    
C30   N2    S    
Ba1   O19   S    
C19   C24   D    
C51   C57   A    
C5    C6    A    
O20   P3    S    
C43   C44   A    
C42   N4    S    
C28   H48   S    
C32   C38   A    
C4    H36   S    
O5    P2    S    
C33   C35   A    
C22   C24   S    
C45   H14   S    
C32   C33   A    
C36   C37   A    
C20   P8    S    
C55   C57   A    
C19   H32   S    
C13   C14   A    
C21   P4    S    
C26   P6    S    
C54   C55   A    
Ba1   Ba2   S    
Ba1   P1    S    
C7    C11   A    
O6    P7    D    
C59   H25   S    
Ba2   O4    S    
C27   C60   A    
O19   P2    D    
C58   H20   S    
C34   H8    S    
C14   C15   A    
C21   C31   D    
Ba2   O6    S    
C21   C22   D    
C25   H29   S    
O4    P1    S    
O18   P6    S    
C23   O7    S    
O23   P4    D    
C1    H60   S    
C56   H18   S    
C27   P1    S    
Ba2   O23   S    
C8    H30   S    
Ba2   O28   S    
C19   C20   S    
C39   C41   A    
Ba1   O20   S    
C23   H6    S    
C43   H43   S    
C37   H39   S    
C55   H54   S    
O26   P4    S    
C12   H49   S    
C4    C16   S    
C44   C46   A    
C17   N2    Am   
C40   H12   S    
C48   C51   S    
C28   H47   S    
C49   C50   S    
C38   P3    S    
C49   H58   S    
C33   P2    S    
Ba1   O4    S    
C59   H21   S    
O16   P6    D    
C37   C38   A    
C5    O11   D    
C6    C7    A    
C51   C52   A    
C46   H41   S    
C32   H42   S    
C35   H40   S    
O8    P8    D    
O27   P7    S    
C58   C59   S    
C31   H37   S    
Ba1   P2    S    
C16   H44   S    
C35   C36   A    
C13   H27   S    
C60   H35   S    
C4    O22   S    
C58   H19   S    
O15   P6    S    
C28   O26   S    
C29   C30   A    
C12   O18   S    
Ba2   P4    S    
O25   P8    S    
C39   C42   A    
C10   C18   A    
Ba2   O5    S    
C12   H4    S    
C39   H38   S    
Ba1   O24   S    
C40   H23   S    
C49   O12   S    
Ba1   O27   S    
C41   C43   A    
C58   O9    S    
C1    C12   S    
C56   H17   S    
C47   H50   S    
C41   P7    S    
C45   O3    S    
Ba2   O27   S    
C50   H2    S    
N3    N4    D    
C49   H59   S    
O9    P8    S    
C23   H7    S    
C24   N1    S    
C45   H15   S    
C2    C8    A    
O21   P3    D    
O3    P5    S    
C36   N3    S    
O12   P2    S    
Ba2   O25   S    
C20   C31   S    
C52   C53   A    
O24   P4    S    
C25   C30   A    
C48   H56   S    
C1    H5    S    
Ba1   O1    S    
C5    N1    Am   
C2    C3    A    
Ba1   O5    S    
C59   H22   S    
O7    P7    S    
C9    C10   A    
C34   H9    S    
C53   H52   S    
C6    C13   A    
C3    N1    Am   
C4    H24   S    
C11   C15   A    
O17   P1    S    
O1    P1    D    
C18   O14   D    
O28   P5    S    
C27   C29   A    
C22   H31   S    
C45   C56   S    
C9    H28   S    
C48   H45   S    
C29   H33   S    
C44   P5    S    
C47   O17   S    
C15   C17   A    
C54   H53   S    
O22   P3    S    
C47   H34   S    
C1    H11   S    
C16   H46   S    
C18   N2    Am   
Ba1   O15   S    
C8    C9    A    
C56   H16   S    
C23   C34   S    
C57   H55   S    
C50   H57   S    
C34   H10   S    
C10   C11   A    
C17   O13   D    
C47   C48   S    
C25   C26   A    
C14   H26   S    
C28   C40   S    
C2    C7    A    
C40   H1    S    
C50   H3    S    
C42   C46   A    
O2    P5    D    
C26   C60   A    
