data_mof_unit_2987.cif
_audit_creation_date              2012-12-10T17:51:23-0500
_audit_creation_method            fapswitch 2.2
_symmetry_space_group_name_H-M    P1
_symmetry_Int_Tables_number       1
_space_group_crystal_system       triclinic
_cell_length_a                    14.714635
_cell_length_b                    14.566131
_cell_length_c                    17.189305
_cell_angle_alpha                 106.297186
_cell_angle_beta                  73.064739
_cell_angle_gamma                 114.500897
_cell_volume                      3152.62415627

loop_
_atom_site_label
_atom_site_type_symbol
_atom_type_description
_atom_site_fract_x
_atom_site_fract_y
_atom_site_fract_z
_atom_type_partial_charge
C1    C     C_R   0.118167 0.689016 0.512079 0.863457
C2    C     C_R   0.881643 0.311005 0.488978 0.772674
C3    C     C_R   0.183776 0.798820 0.515043 -0.056370
C4    C     C_R   0.815050 0.201572 0.488614 -0.074939
C5    C     C_R   0.219882 0.977546 0.515222 -0.219158
C6    C     C_R   0.776571 0.023951 0.494189 -0.225816
C7    C     C_R   0.149715 0.876597 0.513597 0.100202
C8    C     C_R   0.847762 0.123928 0.492617 0.090990
C9    C     C_R   0.286361 0.824892 0.516147 -0.278551
C10   C     C_R   0.712012 0.175920 0.488518 -0.274310
C11   C     C_R   0.358499 0.924165 0.510628 0.089841
C12   C     C_R   0.639200 0.077190 0.495699 0.089437
C13   C     C_R   0.322876 0.001368 0.512715 0.141030
C14   C     C_R   0.674140 0.000225 0.495423 0.134670
C15   C     C_R   0.464659 0.948927 0.503699 0.078353
C16   C     C_R   0.533042 0.052512 0.502424 0.078025
C17   C     C_R   0.492743 0.128038 0.509268 -0.230529
C18   C     C_R   0.504953 0.873374 0.496772 -0.223027
C19   C     C_R   0.390111 0.102309 0.512622 -0.211695
C20   C     C_R   0.607054 0.899296 0.495107 -0.212835
C21   C     C_R   0.301753 0.337037 0.353571 -0.309185
C22   C     C_R   0.709924 0.679473 0.632837 -0.314434
C23   C     C_R   0.989651 0.503899 0.653115 0.883560
C24   C     C_R   0.011185 0.497375 0.347050 0.860934
C25   C     C_R   0.218102 0.367206 0.376872 0.164308
C26   C     C_R   0.791518 0.646663 0.612103 0.131521
C27   C     C_R   0.283377 0.486417 0.490947 0.012245
C28   C     C_R   0.712517 0.507549 0.513783 0.009885
C29   C     C_R   0.373870 0.462809 0.468282 -0.029599
C30   C     C_R   0.625936 0.536846 0.531566 -0.029834
C31   C     C_R   0.379310 0.381568 0.400299 0.103736
C32   C     C_R   0.625697 0.625539 0.593311 0.103468
C33   C     C_R   0.457855 0.516535 0.510660 0.040148
C34   C     C_R   0.541626 0.482635 0.489393 0.039956
C35   C     C_R   0.539326 0.396206 0.425934 -0.231075
C36   C     C_R   0.461709 0.605336 0.571584 -0.227094
C37   C     C_R   0.461103 0.346021 0.380411 0.099296
C38   C     C_R   0.542965 0.659922 0.613583 0.096465
C39   C     C_R   0.978131 0.495822 0.738614 -0.155527
C40   C     C_R   0.011804 0.485825 0.259748 -0.153860
C41   C     C_R   0.995454 0.413877 0.751370 -0.273325
C42   C     C_R   0.917693 0.437833 0.234710 -0.269361
C43   C     C_R   0.978895 0.397348 0.830859 -0.137248
C44   C     C_R   0.913598 0.417052 0.151702 -0.138316
C45   C     C_R   0.944325 0.462488 0.898908 0.099311
C46   C     C_R   0.003789 0.444194 0.092378 0.103723
C47   C     C_R   0.926061 0.543784 0.886869 -0.211137
C48   C     C_R   0.098026 0.491218 0.116628 -0.218962
C49   C     C_R   0.944893 0.563028 0.807392 0.438231
C50   C     C_R   0.103316 0.514494 0.200185 0.422590
C51   C     C_2   0.932506 0.451446 0.983745 -0.190435
C52   C     C_2   0.001537 0.430773 0.005161 -0.189774
Cu1   Cu    Cu3+1 0.916740 0.524770 0.521640 0.969052
Cu2   Cu    Cu3+1 0.083260 0.475230 0.478360 0.968374
H1    H     H_    0.020024 0.361119 0.699467 0.161301
H2    H     H_    0.847045 0.414325 0.279407 0.156825
H3    H     H_    0.537984 0.208550 0.512855 0.142402
H4    H     H_    0.460135 0.792733 0.492371 0.143978
H5    H     H_    0.720565 0.443136 0.467139 0.118088
H6    H     H_    0.269462 0.541520 0.544989 0.124282
H7    H     H_    0.856384 0.690388 0.641323 0.166338
H8    H     H_    0.159719 0.332780 0.340207 0.128462
H9    H     H_    0.303865 0.278232 0.299070 0.140162
H10   H     H_    0.715129 0.748197 0.679190 0.147922
H11   H     H_    0.599568 0.367434 0.409961 0.120555
H12   H     H_    0.402541 0.635307 0.585190 0.123679
H13   H     H_    0.065904 0.418833 0.958783 0.156265
H14   H     H_    0.875413 0.475687 0.031246 0.156994
H15   H     H_    0.900476 0.594497 0.940059 0.180390
H16   H     H_    0.167256 0.513118 0.070313 0.179487
H17   H     H_    0.840042 0.379226 0.133860 0.144166
H18   H     H_    0.992198 0.333224 0.839101 0.145329
H19   H     H_    0.363060 0.162404 0.515828 0.149755
H20   H     H_    0.633942 0.839249 0.492395 0.151492
H21   H     H_    0.690614 0.234770 0.481341 0.148007
H22   H     H_    0.307920 0.765503 0.521984 0.148652
H23   H     H_    0.194736 0.038158 0.516337 0.128064
H24   H     H_    0.801303 0.963772 0.495059 0.127217
N1    N     N_R   0.208390 0.438070 0.445820 -0.183889
N2    N     N_R   0.791610 0.561930 0.554180 -0.186158
O1    O     O_R   0.020090 0.662480 0.528530 -0.589642
O2    O     O_R   0.979910 0.337520 0.471470 -0.603949
O3    O     O_R   0.160710 0.620650 0.491980 -0.573188
O4    O     O_R   0.839290 0.379350 0.508020 -0.590041
O5    O     O_R   0.921540 0.523360 0.633990 -0.519229
O6    O     O_R   0.078460 0.476640 0.366010 -0.529404
O7    O     O_R   0.062170 0.481520 0.597440 -0.609678
O8    O     O_R   0.937830 0.518480 0.402560 -0.603019
C53   C     C_3   0.462199 0.252972 0.311390 -0.403893
C54   C     C_3   0.550209 0.215135 0.296859 -0.381671
C55   C     C_3   0.538999 0.119630 0.229181 -0.786071
H25   H     H_    0.466788 0.056141 0.247224 0.263085
H26   H     H_    0.539349 0.136585 0.169968 0.252755
H27   H     H_    0.603694 0.094491 0.219837 0.246693
H28   H     H_    0.624186 0.276121 0.277605 0.215788
H29   H     H_    0.550669 0.195272 0.354528 0.227995
H30   H     H_    0.389609 0.188041 0.326058 0.201577
H31   H     H_    0.464780 0.272214 0.252407 0.207416
C56   C     C_3   0.543664 0.756058 0.679545 -0.410751
C57   C     C_3   0.448776 0.785263 0.701278 -0.362489
C58   C     C_3   0.459580 0.881179 0.768501 -0.786201
H32   H     H_    0.468664 0.867804 0.825855 0.257318
H33   H     H_    0.526656 0.947222 0.747099 0.252991
H34   H     H_    0.390209 0.900406 0.782794 0.252552
H35   H     H_    0.438106 0.801586 0.645956 0.223896
H36   H     H_    0.380092 0.721178 0.723903 0.230160
H37   H     H_    0.552664 0.744236 0.737633 0.215833
H38   H     H_    0.610979 0.822227 0.658396 0.195869
S1    S     S_3+6 0.224323 0.584556 0.227527 0.000133
O9    O     O_2   0.262294 0.511902 0.243821 -0.290005
O10   O     O_2   0.299162 0.637033 0.158345 -0.282198
O11   O     O_3   0.214565 0.673647 0.313092 -0.573841
H39   H     H_    0.282153 0.702773 0.328606 0.377740
S2    S     S_3+6 0.930389 0.673959 0.798079 -0.014436
O12   O     O_2   0.824807 0.644169 0.784276 -0.303355
O13   O     O_2   0.943867 0.752462 0.876344 -0.288251
O14   O     O_3   0.017252 0.725366 0.718441 -0.571703
H40   H     H_    0.004552 0.787064 0.718511 0.358055
C59   C     C_3   0.956034 0.140263 0.493502 -0.396460
C60   C     C_3   0.014932 0.119310 0.404940 -0.307637
C61   C     C_3   0.116968 0.115031 0.404207 -0.884865
H41   H     H_    0.160179 0.183297 0.445178 0.259893
H42   H     H_    0.104024 0.044878 0.425626 0.252107
H43   H     H_    0.162750 0.111942 0.340198 0.244647
H44   H     H_    0.969748 0.044498 0.371035 0.222176
H45   H     H_    0.027602 0.179945 0.371581 0.220453
H46   H     H_    0.995893 0.217319 0.527220 0.210514
H47   H     H_    0.954540 0.086223 0.529000 0.182503
C62   C     C_3   0.042046 0.856596 0.507454 -0.422438
C63   C     C_3   0.023258 0.803582 0.419708 -0.281468
C64   C     C_3   0.914541 0.781536 0.413594 -0.834615
H48   H     H_    0.858827 0.730835 0.457300 0.260242
H49   H     H_    0.900603 0.854327 0.427833 0.239716
H50   H     H_    0.903138 0.742421 0.349791 0.251381
H51   H     H_    0.077235 0.853972 0.375064 0.221705
H52   H     H_    0.036783 0.730279 0.401257 0.250699
H53   H     H_    0.985288 0.812741 0.554916 0.207307
H54   H     H_    0.028928 0.930047 0.522376 0.178447

loop_
_geom_bond_atom_site_label_1
_geom_bond_atom_site_label_2
_ccdc_geom_bond_type
C15   C18   A    
C43   H18   S    
C29   C33   A    
C27   C29   A    
C2    O4    A    
C63   H51   S    
C4    C8    A    
C64   H50   S    
S2    O12   D    
C54   H28   S    
C39   C41   A    
Cu1   Cu2   S    
C56   H38   S    
C21   C31   A    
C57   H35   S    
C58   H32   S    
C22   C32   A    
Cu1   O4    S    
C35   C37   A    
C26   H7    S    
Cu2   N1    S    
C3    C7    A    
C27   H6    S    
S1    O10   D    
Cu2   O7    S    
C36   H12   S    
C6    H24   S    
C55   H26   S    
C45   C51   S    
C1    O1    A    
C15   C16   A    
C46   C52   S    
C33   C36   A    
C44   H17   S    
Cu1   O1    S    
C34   C35   A    
Cu2   O3    S    
C61   H43   S    
C42   H2    S    
C11   C15   A    
C18   H4    S    
C47   H15   S    
C62   H54   S    
C12   C16   A    
C16   C17   A    
C9    H22   S    
C32   C38   A    
C5    C13   A    
C25   H8    S    
C59   H47   S    
C40   C42   A    
C49   S2    S    
C58   H33   S    
C23   O7    A    
C41   C43   A    
C42   C44   A    
C7    C62   S    
O11   H39   S    
C44   C46   A    
C45   C47   A    
C46   C48   A    
C61   H42   S    
C13   C19   A    
C51   C52   D    
C14   C20   A    
C19   H19   S    
Cu1   N2    S    
C47   C49   A    
S1    O11   S    
C55   H25   S    
Cu2   O6    S    
C30   C34   A    
C60   H44   S    
C6    C8    A    
C50   S1    S    
C26   N2    A    
C31   C37   A    
C53   H30   S    
C1    C3    S    
C2    C4    S    
C3    C9    A    
C6    C14   A    
C43   C45   A    
C10   H21   S    
C56   C57   S    
C33   C34   A    
C20   H20   S    
C40   C50   A    
C48   C50   A    
C9    C11   A    
C61   H41   S    
C52   H13   S    
C10   C12   A    
C39   C49   A    
C12   C14   A    
C58   H34   S    
C23   O5    A    
C2    O2    A    
C5    H23   S    
C64   H48   S    
Cu2   O2    S    
C60   C61   S    
C5    C7    A    
C62   C63   S    
C28   H5    S    
C21   C25   A    
C24   C40   S    
C25   N1    A    
C57   H36   S    
C24   O8    A    
C63   H52   S    
C48   H16   S    
C38   C56   S    
C64   H49   S    
C18   C20   A    
S2    O13   D    
C59   C60   S    
C54   H29   S    
C1    O3    A    
C56   H37   S    
C27   N1    A    
C37   C53   S    
C53   H31   S    
C36   C38   A    
C63   C64   S    
C29   C31   A    
O14   H40   S    
C55   H27   S    
C30   C32   A    
C11   C13   A    
C54   C55   S    
C24   O6    A    
C41   H1    S    
C28   C30   A    
C57   C58   S    
C17   C19   A    
Cu1   O8    S    
C60   H45   S    
C51   H14   S    
C28   N2    A    
C21   H9    S    
S2    O14   S    
C22   H10   S    
C62   H53   S    
C22   C26   A    
C35   H11   S    
Cu1   O5    S    
C53   C54   S    
S1    O9    D    
C4    C10   A    
C23   C39   S    
C8    C59   S    
C17   H3    S    
C59   H46   S    
