data_mof_unit_4361.cif
_audit_creation_date              2012-12-11T14:13:24-0500
_audit_creation_method            fapswitch 2.2
_symmetry_space_group_name_H-M    P1
_symmetry_Int_Tables_number       1
_space_group_crystal_system       triclinic
_cell_length_a                    11.620633
_cell_length_b                    18.603742
_cell_length_c                    9.953692
_cell_angle_alpha                 90.000055
_cell_angle_beta                  110.622188
_cell_angle_gamma                 89.999962
_cell_volume                      2013.97702034

loop_
_atom_site_label
_atom_site_type_symbol
_atom_type_description
_atom_site_fract_x
_atom_site_fract_y
_atom_site_fract_z
_atom_type_partial_charge
C1    C     C_R   0.073578 0.646147 0.140474 0.555501
C2    C     C_2   0.594070 0.075927 0.079686 -0.069061
C3    C     C_2   0.594031 0.424046 0.079762 -0.069032
C4    C     C_2   0.405968 0.575953 0.920240 -0.069033
C5    C     C_2   0.493393 0.962647 0.014547 -0.169359
C6    C     C_2   0.506943 0.037233 0.985092 -0.169387
C7    C     C_2   0.506773 0.462706 0.985275 -0.169375
C8    C     C_2   0.493222 0.537292 0.014731 -0.169374
C9    C     C_2   0.010155 0.922081 0.113282 0.346151
C10   C     C_2   0.989837 0.077916 0.886714 0.346166
C11   C     C_2   0.989841 0.422082 0.886716 0.346161
C12   C     C_R   0.926422 0.353853 0.859526 0.555506
C13   C     C_2   0.010159 0.577918 0.113284 0.346160
C14   C     C_2   0.024217 0.963931 0.011215 -0.099525
C15   C     C_2   0.975765 0.036065 0.988773 -0.099529
C16   C     C_2   0.975775 0.463933 0.988780 -0.099532
C17   C     C_2   0.024226 0.536067 0.011220 -0.099532
C18   C     C_R   0.469000 0.646760 0.443109 0.546166
C19   C     C_R   0.531000 0.353240 0.556891 0.546170
C20   C     C_R   0.531000 0.146760 0.556891 0.546152
C21   C     C_R   0.468999 0.853240 0.443109 0.546181
C22   C     C_R   0.376366 0.645486 0.963036 0.582200
C23   C     C_R   0.926421 0.146147 0.859525 0.555503
C24   C     C_R   0.623634 0.354513 0.036965 0.582207
C25   C     C_R   0.623639 0.145481 0.036954 0.582221
C26   C     C_R   0.376372 0.854507 0.963023 0.582182
C27   C     C_R   0.506921 0.424890 0.487888 0.019195
C28   C     C_R   0.493079 0.575110 0.512112 0.019195
C29   C     C_R   0.493076 0.924891 0.512110 0.019198
C30   C     C_R   0.506920 0.075110 0.487886 0.019190
C31   C     C_R   0.285042 0.416185 0.436040 -0.080506
C32   C     C_R   0.714958 0.583815 0.563960 -0.080508
C33   C     C_R   0.714957 0.916186 0.563966 -0.080513
C34   C     C_R   0.073577 0.853853 0.140474 0.555501
C35   C     C_R   0.285040 0.083817 0.436030 -0.080503
C36   C     C_R   0.177302 0.445602 0.443054 0.361800
C37   C     C_R   0.822699 0.554398 0.556946 0.361799
C38   C     C_R   0.822699 0.945603 0.556956 0.361792
C39   C     C_R   0.177296 0.054401 0.443033 0.361800
C40   C     C_R   0.178033 0.515242 0.493714 0.016174
C41   C     C_R   0.821967 0.484758 0.506286 0.016173
C42   C     C_R   0.821967 0.015242 0.506291 0.016171
C43   C     C_R   0.178024 0.984760 0.493690 0.016180
C44   C     C_R   0.283534 0.557600 0.526740 0.327751
C45   C     C_R   0.394054 0.457309 0.474333 -0.113309
C46   C     C_R   0.716466 0.442400 0.473260 0.327751
C47   C     C_R   0.716465 0.057600 0.473260 0.327760
C48   C     C_R   0.283524 0.942401 0.526722 0.327748
C49   C     C_R   0.390474 0.531104 0.504897 -0.021181
C50   C     C_R   0.609526 0.468896 0.495103 -0.021182
C51   C     C_R   0.609524 0.031104 0.495103 -0.021173
C52   C     C_R   0.390469 0.968897 0.504889 -0.021194
C53   C     C_R   0.605946 0.542691 0.525667 -0.113309
C54   C     C_R   0.605944 0.957309 0.525668 -0.113297
C55   C     C_R   0.394052 0.042693 0.474328 -0.113318
C56   C     C_2   0.406008 0.924019 0.920162 -0.069008
Cr1   Cr    Cr6+3 0.187610 0.750000 0.979860 1.137878
Cr2   Cr    Cr6+3 0.812390 0.250000 0.020140 1.137882
Cr3   Cr    Cr6+3 0.245810 0.750000 0.341640 1.206903
Cr4   Cr    Cr6+3 0.754190 0.250000 0.658360 1.206897
Cr5   Cr    Cr6+3 0.485760 0.750000 0.219910 1.059049
Cr6   Cr    Cr6+3 0.514240 0.250000 0.780090 1.059071
F1    F     F_    0.073776 0.405187 0.407415 -0.587542
F2    F     F_    0.951540 0.945654 0.201787 -0.626656
F3    F     F_    0.951544 0.554345 0.201788 -0.626641
F4    F     F_    0.048456 0.445655 0.798212 -0.626639
F5    F     F_    0.926224 0.594813 0.592585 -0.587543
F6    F     F_    0.926226 0.905189 0.592603 -0.587542
F7    F     F_    0.073770 0.094816 0.407386 -0.587540
F8    F     F_    0.283360 0.621348 0.593055 -0.597326
F9    F     F_    0.716640 0.378652 0.406946 -0.597323
F10   F     F_    0.716637 0.121346 0.406940 -0.597321
F11   F     F_    0.283344 0.878653 0.593033 -0.597322
F12   F     F_    0.048456 0.054344 0.798214 -0.626632
H1    H     H_    0.283559 0.360874 0.401356 0.166898
H2    H     H_    0.076451 0.945447 0.946066 0.192094
H3    H     H_    0.076460 0.554551 0.946072 0.192087
H4    H     H_    0.923540 0.445449 0.053929 0.192086
H5    H     H_    0.096793 0.536515 0.508639 0.241685
H6    H     H_    0.903208 0.463485 0.491361 0.241685
H7    H     H_    0.903209 0.036515 0.491369 0.241677
H8    H     H_    0.096779 0.963487 0.508605 0.241682
H9    H     H_    0.449388 0.059431 0.882095 0.175899
H10   H     H_    0.551085 0.940420 0.117452 0.175983
H11   H     H_    0.550844 0.559505 0.117682 0.175940
H12   H     H_    0.716441 0.639126 0.598644 0.166896
H13   H     H_    0.449149 0.440493 0.882325 0.175941
H14   H     H_    0.716440 0.860875 0.598652 0.166891
H15   H     H_    0.283560 0.139129 0.401348 0.166900
H16   H     H_    0.655263 0.051614 0.177940 0.171405
H17   H     H_    0.344686 0.948372 0.822031 0.171437
H18   H     H_    0.344712 0.551620 0.822047 0.171418
H19   H     H_    0.655288 0.448380 0.177953 0.171418
H20   H     H_    0.923527 0.054548 0.053918 0.192086
O1    O     O_R   0.267710 0.668200 0.902110 -0.443696
O2    O     O_R   0.883280 0.330790 0.732340 -0.438574
O3    O     O_R   0.883280 0.169210 0.732340 -0.438582
O4    O     O_R   0.116720 0.830790 0.267660 -0.438572
O5    O     O_R   0.366710 0.675440 0.427590 -0.425338
O6    O     O_R   0.633290 0.324560 0.572410 -0.425335
O7    O     O_R   0.633290 0.175440 0.572410 -0.425340
O8    O     O_R   0.366710 0.824560 0.427590 -0.425335
O9    O     O_R   0.534870 0.669390 0.371760 -0.524456
O10   O     O_R   0.465130 0.330610 0.628240 -0.524452
O11   O     O_R   0.465130 0.169390 0.628240 -0.524467
O12   O     O_R   0.732290 0.331800 0.097890 -0.443694
O13   O     O_R   0.534870 0.830610 0.371760 -0.524438
O14   O     O_R   0.453080 0.674480 0.075160 -0.510769
O15   O     O_R   0.546920 0.325520 0.924840 -0.510762
O16   O     O_R   0.546920 0.174480 0.924840 -0.510746
O17   O     O_R   0.453080 0.825520 0.075160 -0.510784
O18   O     O_3   0.306390 0.750000 0.180470 -0.313665
O19   O     O_3   0.693610 0.250000 0.819530 -0.313683
O20   O     O_R   0.732290 0.168200 0.097890 -0.443685
O21   O     O_R   0.267710 0.831800 0.902110 -0.443702
O22   O     O_R   0.099480 0.674460 0.038850 -0.540795
O23   O     O_R   0.900520 0.325540 0.961150 -0.540793
O24   O     O_R   0.900520 0.174460 0.961150 -0.540791
O25   O     O_R   0.099480 0.825540 0.038850 -0.540790
O26   O     O_R   0.116720 0.669210 0.267660 -0.438576

loop_
_geom_bond_atom_site_label_1
_geom_bond_atom_site_label_2
_ccdc_geom_bond_type
C44   C49   A    
C30   C51   A    
Cr3   O26   S    
C9    F2    S    
Cr3   O5    S    
C22   O1    A    
C5    C56   D    
C4    C8    D    
C23   O24   A    
C3    C24   S    
C7    C8    S    
Cr1   O21   S    
Cr6   O11   S    
C13   F3    S    
Cr5   O9    S    
C33   H14   S    
C38   C42   A    
C3    C7    D    
C10   C15   D    
C5    C6    S    
Cr1   O18   S    
C29   C54   A    
C18   O9    A    
Cr2   O24   S    
C8    H11   S    
C11   C16   D    
C2    H16   S    
Cr5   O14   S    
C26   O21   A    
C56   H17   S    
C7    H13   S    
C16   C17   S    
Cr2   O19   S    
C41   C46   A    
C44   F8    S    
C1    O22   A    
C36   F1    S    
C19   C27   S    
C43   C48   A    
C40   C44   A    
C27   C50   A    
Cr1   O25   S    
C27   C45   A    
Cr4   O19   S    
C2    C6    D    
C42   H7    S    
C15   H20   S    
Cr1   O22   S    
Cr6   O10   S    
C50   C53   A    
C35   C55   A    
C36   C40   A    
C18   C28   S    
Cr6   O19   S    
Cr4   O3    S    
C5    H10   S    
C39   C43   A    
C20   O7    A    
C21   C29   S    
Cr2   O23   S    
Cr2   O12   S    
C1    O26   A    
C14   H2    S    
C35   C39   A    
C9    C14   D    
C4    C22   S    
C19   O10   A    
C31   H1    S    
Cr6   O16   S    
C45   C49   A    
C28   C53   A    
C32   H12   S    
C17   H3    S    
Cr3   O18   S    
C39   F7    S    
C40   H5    S    
C3    H19   S    
C32   C37   A    
C46   F9    S    
C21   O13   A    
C25   O16   A    
C21   O8    A    
Cr4   O2    S    
C23   O3    A    
C38   F6    S    
Cr1   O1    S    
C9    C34   S    
C24   O12   A    
C18   O5    A    
Cr4   O7    S    
Cr5   O17   S    
C35   H15   S    
C32   C53   A    
C20   O11   A    
C34   O25   A    
Cr3   O4    S    
C6    H9    S    
C14   C15   S    
Cr3   O8    S    
C48   F11   S    
C24   O15   A    
Cr4   O6    S    
C26   C56   S    
C47   C51   A    
C19   O6    A    
C11   F4    S    
C10   C23   S    
C30   C55   A    
C46   C50   A    
C33   C38   A    
C13   C17   D    
C51   C54   A    
C25   O20   A    
C20   C30   S    
C52   C55   A    
C10   F12   S    
Cr6   O15   S    
C33   C54   A    
C22   O14   A    
C37   F5    S    
C34   O4    A    
C28   C49   A    
C2    C25   S    
C16   H4    S    
C42   C47   A    
C37   C41   A    
Cr5   O13   S    
C47   F10   S    
C12   O23   A    
C48   C52   A    
C1    C13   S    
C31   C45   A    
Cr2   O20   S    
C43   H8    S    
C31   C36   A    
C12   O2    A    
C41   H6    S    
Cr5   O18   S    
C26   O17   A    
C11   C12   S    
C4    H18   S    
C29   C52   A    
