data_mof_unit_4643.cif
_audit_creation_date              2013-03-05T15:55:05-0500
_audit_creation_method            fapswitch 2.2
_symmetry_space_group_name_H-M    P1
_symmetry_Int_Tables_number       1
_space_group_crystal_system       triclinic
_cell_length_a                    14.975443
_cell_length_b                    15.027112
_cell_length_c                    14.988553
_cell_angle_alpha                 110.059322
_cell_angle_beta                  109.895225
_cell_angle_gamma                 109.384031
_cell_volume                      2566.38938318

loop_
_atom_site_label
_atom_site_type_symbol
_atom_site_description
_atom_site_fract_x
_atom_site_fract_y
_atom_site_fract_z
_atom_type_partial_charge
C1    C     C_R   0.200614 0.291168 0.193451 -0.119347
H1    H     H_    0.149228 0.323042 0.164367 0.130401
N1    N     N_R   0.291070 0.347930 0.293870 -0.041719
C2    C     C_R   0.597610 0.506867 0.804652 -0.088794
H2    H     H_    0.666307 0.495461 0.837386 0.160191
N2    N     N_R   0.554050 0.497220 0.706150 -0.047655
C3    C     C_R   0.429166 0.186811 0.404035 -0.100297
H3    H     H_    0.371374 0.126814 0.318379 0.131752
N3    N     N_R   0.497240 0.291100 0.443210 -0.049350
C4    C     C_R   0.272634 0.547028 0.587533 0.157102
N4    N     N_R   0.347890 0.554050 0.556810 -0.063596
C5    C     C_R   0.531954 0.272516 0.587385 0.313225
N5    N     N_R   0.554050 0.347900 0.556830 -0.066748
C6    C     C_R   0.184896 0.437380 0.403783 -0.125161
H4    H     H_    0.126760 0.375130 0.318500 0.124733
N6    N     N_R   0.291070 0.497250 0.443190 -0.039981
C7    C     C_R   0.503253 0.593027 0.804486 -0.131254
H5    H     H_    0.481706 0.653253 0.836289 0.096145
N7    N     N_R   0.497240 0.554030 0.706140 -0.050216
C8    C     C_R   0.292865 0.202445 0.192880 -0.150784
H6    H     H_    0.329015 0.156576 0.163728 0.110200
N8    N     N_R   0.347890 0.291110 0.293870 -0.046381
C9    C     C_R   0.200246 0.200141 0.127969 0.049876
C10   C     C_R   0.564981 0.563472 0.867090 0.049483
C11   C     C_R   0.450209 0.170721 0.491297 -0.020442
C12   C     C_R   0.168279 0.466328 0.491595 0.001426
C13   C     C_R   0.399820 0.703206 0.407540 0.281600
N9    N     N_R   0.445950 0.652100 0.443170 -0.067153
C14   C     C_R   0.797127 0.490310 0.590493 -0.137336
H7    H     H_    0.851442 0.518182 0.675558 0.122746
N10   N     N_R   0.708930 0.502750 0.556810 -0.044801
C15   C     C_R   0.567002 0.474502 0.254348 -0.145614
H8    H     H_    0.625544 0.448949 0.253227 0.163368
N11   N     N_R   0.502760 0.445970 0.293860 -0.045189
C16   C     C_R   0.723470 0.814578 0.748666 -0.126875
H9    H     H_    0.703031 0.878455 0.758660 0.105811
N12   N     N_R   0.652110 0.708890 0.706130 -0.042999
C17   C     C_R   0.815022 0.723001 0.748474 -0.119996
H10   H     H_    0.878197 0.701414 0.757804 0.100849
N13   N     N_R   0.708930 0.652070 0.706130 -0.042050
C18   C     C_R   0.472411 0.562828 0.248552 -0.075224
H11   H     H_    0.440336 0.614920 0.236260 0.148659
N14   N     N_R   0.445950 0.502780 0.293850 -0.033617
C19   C     C_R   0.499090 0.801843 0.591286 -0.220232
H12   H     H_    0.527513 0.858906 0.675910 0.121454
N15   N     N_R   0.502760 0.708900 0.556790 -0.052880
C20   C     C_R   0.701417 0.396237 0.407779 -0.082553
H13   H     H_    0.661301 0.332043 0.322843 0.139958
N16   N     N_R   0.652110 0.445950 0.443190 -0.050495
Ni1   Ni    Ni4+2 0.369690 0.500010 0.369700 0.261911
Ni2   Ni    Ni4+2 0.630310 0.499990 0.630300 0.231817
Ni3   Ni    Ni4+2 0.500000 0.369720 0.369720 0.235243
Ni4   Ni    Ni4+2 0.500000 0.630280 0.630280 0.196410
C21   C     C_R   0.436442 0.800169 0.498331 -0.001491
C22   C     C_R   0.792715 0.420513 0.497919 0.065081
C23   C     C_R   0.548671 0.545979 0.222830 0.030694
C24   C     C_R   0.826216 0.825653 0.774047 0.046492
H14   H     H_    0.885491 0.327729 0.990995 0.108882
C25   C     C_R   0.965925 0.442720 0.165259 0.003459
H15   H     H_    0.993229 0.514527 0.157417 0.145375
C26   C     C_R   0.986731 0.455029 0.268386 -0.067568
H16   H     H_    0.030112 0.536712 0.340061 0.122858
C27   C     C_R   0.949094 0.361650 0.278034 0.087368
C28   C     C_R   0.891389 0.256329 0.183740 -0.136723
H17   H     H_    0.860943 0.183624 0.189730 0.123815
C29   C     C_R   0.870529 0.244505 0.080930 -0.073076
H18   H     H_    0.824703 0.163228 0.008171 0.113119
C30   C     C_R   0.906220 0.337533 0.071484 -0.078292
C31   C     C_R   0.865011 0.345889 0.388095 -0.173355
H19   H     H_    0.790328 0.312478 0.312387 0.170671
C32   C     C_R   0.870552 0.383402 0.490326 0.044852
C33   C     C_R   0.964799 0.410055 0.583334 0.049439
C34   C     C_R   0.057231 0.420861 0.574267 -0.229244
H20   H     H_    0.129324 0.436613 0.641797 0.141391
C35   C     C_R   0.060571 0.419471 0.481945 0.044417
C36   C     C_R   0.960353 0.372897 0.383841 0.009920
C37   C     C_R   0.070848 0.502707 0.789427 -0.268716
H21   H     H_    0.138478 0.562195 0.792304 0.149836
C38   C     C_R   0.087138 0.501209 0.885916 0.426999
C39   C     C_R   0.001652 0.425498 0.884908 -0.170856
H22   H     H_    0.015177 0.424386 0.959918 0.145510
C40   C     C_R   0.900356 0.349407 0.786428 -0.132235
H23   H     H_    0.835488 0.288695 0.785444 0.176196
C41   C     C_R   0.884856 0.348010 0.688259 -0.125996
H24   H     H_    0.807660 0.285481 0.611687 0.159952
C42   C     C_R   0.971079 0.423548 0.688568 0.062576
C43   C     C_R   0.639506 0.534140 0.020761 0.070699
C44   C     C_R   0.600583 0.593556 0.981708 0.044470
C45   C     C_R   0.580183 0.667042 0.048106 -0.163571
H25   H     H_    0.555116 0.718663 0.023731 0.136239
C46   C     C_R   0.577008 0.662763 0.138986 -0.147293
H26   H     H_    0.549388 0.711083 0.181866 0.133834
C47   C     C_R   0.593496 0.584543 0.162445 0.009927
C48   C     C_R   0.636151 0.529258 0.109776 0.109759
C49   C     C_3   0.599805 0.408791 0.054798 0.144030
C50   C     C_3   0.605321 0.415560 0.958843 -0.498334
H27   H     H_    0.514623 0.354785 0.032894 0.116876
H28   H     H_    0.672375 0.405712 0.949175 0.261437
H29   H     H_    0.523218 0.365157 0.881525 0.197125
C51   C     C_R   0.404440 0.894387 0.400734 0.094127
C52   C     C_R   0.414259 0.883800 0.491115 0.080821
C53   C     C_R   0.407934 0.958557 0.572309 -0.189357
H30   H     H_    0.412750 0.951776 0.643225 0.138574
C54   C     C_R   0.405882 0.049064 0.566045 -0.122451
H31   H     H_    0.411702 0.112434 0.634046 0.163999
C55   C     C_R   0.408888 0.062639 0.478059 0.054835
C56   C     C_R   0.387280 0.972416 0.385470 -0.014173
C57   C     C_3   0.411653 0.944694 0.291072 0.356428
C58   C     C_3   0.446597 0.869456 0.323739 -0.225845
H32   H     H_    0.397512 0.782026 0.256525 0.199740
C59   C     C_R   0.023933 0.123412 0.962910 0.119470
C60   C     C_R   0.120669 0.121416 0.010312 0.053617
C61   C     C_R   0.125856 0.028612 0.953892 -0.186077
H33   H     H_    0.200576 0.025536 0.985599 0.138856
C62   C     C_R   0.030012 0.932857 0.863002 -0.201151
H34   H     H_    0.034325 0.859504 0.827752 0.130971
C63   C     C_R   0.928572 0.929342 0.828848 0.056990
C64   C     C_R   0.927625 0.027286 0.872622 0.127190
C65   C     C_3   0.904778 0.084783 0.811432 -0.510781
C66   C     C_3   0.009345 0.187942 0.908044 -0.451513
H35   H     H_    0.908580 0.053685 0.734759 0.211528
H36   H     H_    0.829368 0.089182 0.800348 0.192247
H37   H     H_    0.074457 0.217075 0.888018 0.213014
H38   H     H_    0.995483 0.252726 0.953023 0.184064
Br1   Br    Br    0.230502 0.593825 0.014757 -0.643614
Br2   Br    Br    0.708350 0.376830 0.128939 -0.628892
C67   C     C_3   0.303979 0.870325 0.175247 -0.388026
C68   C     C_3   0.234072 0.921871 0.147472 -0.293082
C69   C     C_3   0.122983 0.836617 0.040801 -0.885565
H39   H     H_    0.135033 0.806850 0.969399 0.261606
H40   H     H_    0.078397 0.765560 0.047130 0.274023
H41   H     H_    0.071167 0.874251 0.026353 0.253924
H42   H     H_    0.218044 0.955321 0.215083 0.203049
H43   H     H_    0.278422 0.988110 0.135915 0.215014
H44   H     H_    0.325957 0.844651 0.110758 0.239654
H45   H     H_    0.250188 0.794487 0.169995 0.237112
Br3   Br    Br    0.526092 0.061103 0.295262 -0.649773
C70   C     C_3   0.297492 0.635983 0.694070 -0.454712
C71   C     C_3   0.230716 0.692942 0.674111 -0.250243
C72   C     C_3   0.263881 0.788142 0.782984 -0.902577
H46   H     H_    0.249541 0.757995 0.837698 0.267351
H47   H     H_    0.352301 0.851221 0.826021 0.267237
H48   H     H_    0.213652 0.826990 0.766192 0.248162
H49   H     H_    0.245296 0.725327 0.620812 0.205901
H50   H     H_    0.141244 0.634298 0.631638 0.208967
H51   H     H_    0.284334 0.602698 0.746890 0.188914
H52   H     H_    0.385490 0.700505 0.738832 0.191216
C73   C     C_3   0.570999 0.906221 0.380262 -0.331554
C74   C     C_3   0.647134 0.010120 0.496827 -0.163922
C75   C     C_3   0.767961 0.050342 0.531690 -0.956524
H53   H     H_    0.786286 0.983594 0.527048 0.261617
H54   H     H_    0.787302 0.077990 0.477304 0.284235
H55   H     H_    0.821277 0.120614 0.618128 0.258525
H56   H     H_    0.630797 0.077623 0.500265 0.243984
H57   H     H_    0.633095 0.991107 0.557825 0.190727
H58   H     H_    0.578468 0.837315 0.387026 0.159704
H59   H     H_    0.600639 0.916479 0.323875 0.231201
Br4   Br    Br    0.628741 0.291513 0.723189 -0.708127
Br5   Br    Br    0.258699 0.621963 0.274776 -0.642810

loop_
_geom_bond_atom_site_label_1
_geom_bond_atom_site_label_2
_geom_bond_distance
_ccdc_geom_bond_type
C29   C30   1.396883 A    
C43   C44   1.396906 A    
C50   H29   1.112819 S    
C47   C48   1.402507 A    
C34   C35   1.394897 A    
C34   H20   1.080924 S    
C21   C52   1.430851 S    
C49   C50   1.503770 S    
C72   H48   1.110561 S    
C74   H56   1.108578 S    
C68   C69   1.528072 S    
C54   C55   1.414805 A    
C13   C21   1.370082 A    
C74   C75   1.525226 S    
C3    H3    1.068615 S    
C20   N16   1.321321 A    
C37   H21   1.081465 S    
C9    C60   1.460251 S    
N9    N15   1.373786 A    
C52   C53   1.401160 A    
C59   C64   1.394913 A    
C24   C63   1.460059 S    
C16   N12   1.336377 A    
C67   H44   1.111974 S    
C69   H39   1.111142 S    
N12   N13   1.391172 A    
C51   C58   1.492314 S    
C17   H10   1.079172 S    
C2    C10   1.370834 A    
C55   C56   1.407567 A    
C13   Br5   1.917069 S    
C62   H34   1.081363 S    
C43   C48   1.377792 A    
C57   C58   1.545943 S    
C31   C36   1.379274 A    
C26   C27   1.406169 A    
C1    H1    1.082221 S    
C18   H11   1.079678 S    
C31   C32   1.400879 A    
N3    N5    1.373785 A    
C64   C65   1.493643 S    
C54   H31   1.082540 S    
N5    Ni2   1.850760 S    
N9    Ni1   1.850760 S    
C41   H24   1.082918 S    
C16   H9    1.079406 S    
C62   C63   1.404085 A    
C75   H55   1.108564 S    
C50   H28   1.110935 S    
C56   C57   1.535167 S    
N2    Ni2   1.866287 S    
C45   C46   1.401428 A    
C26   H16   1.083476 S    
N4    Ni4   1.846364 S    
C66   H37   1.112877 S    
C73   H59   1.111015 S    
C69   H41   1.108953 S    
N12   Ni4   1.845752 S    
N7    Ni4   1.871289 S    
C71   H49   1.112468 S    
C37   C38   1.391914 A    
C29   H18   1.082840 S    
C38   Br1   1.904386 S    
C25   H15   1.082682 S    
C18   N14   1.340990 A    
C53   H30   1.082779 S    
N3    Ni3   1.871389 S    
N10   N16   1.373785 A    
C60   C61   1.404848 A    
N1    Ni1   1.849885 S    
C19   N15   1.340131 A    
C11   C55   1.445132 S    
C7    H5    1.073771 S    
C65   H35   1.111809 S    
C23   C47   1.456259 S    
C25   C26   1.399420 A    
C7    C10   1.378512 A    
C72   H46   1.110866 S    
C2    N2    1.327114 A    
C4    N4    1.341970 A    
C46   H26   1.082392 S    
C39   H22   1.079571 S    
C14   C22   1.386718 A    
C6    C12   1.373135 A    
C38   C39   1.393481 A    
C61   C62   1.392848 A    
C59   C66   1.493214 S    
C1    N1    1.338894 A    
C15   N11   1.322220 A    
C35   C36   1.413944 A    
C18   C23   1.393431 A    
C14   H7    1.079054 S    
N2    N7    1.390928 A    
C68   H43   1.104367 S    
C25   C30   1.398555 A    
C46   C47   1.408296 A    
C17   C24   1.390525 A    
N4    N6    1.373785 A    
C20   H13   1.079125 S    
C8    C9    1.377742 A    
C70   H52   1.109367 S    
C65   C66   1.502526 S    
N16   Ni3   1.846364 S    
C43   C50   1.495083 S    
C8    H6    1.077592 S    
C12   C35   1.461458 S    
C48   C49   1.506566 S    
C67   H45   1.113442 S    
C53   C54   1.404586 A    
C10   C44   1.457346 S    
H14   C30   1.079969 S    
C8    N8    1.335770 A    
C37   C42   1.407852 A    
C1    C9    1.380126 A    
C40   C41   1.400897 A    
C6    N6    1.316479 A    
C58   C73   1.554076 S    
C67   C68   1.527134 S    
C19   H12   1.081421 S    
C20   C22   1.378904 A    
C61   H33   1.080526 S    
C65   H36   1.112064 S    
C3    N3    1.319429 A    
C71   H50   1.108143 S    
C51   C56   1.355462 A    
C59   C60   1.395439 A    
C75   H53   1.110875 S    
N11   N14   1.390926 A    
N10   Ni2   1.866235 S    
C33   C34   1.398164 A    
C33   C42   1.484854 S    
C71   C72   1.526922 S    
C49   H27   1.112958 S    
N14   Ni1   1.866287 S    
C72   H47   1.110852 S    
N13   Ni2   1.849885 S    
C4    C70   1.508707 S    
N11   Ni3   1.871288 S    
C3    C11   1.362151 A    
C5    C11   1.399467 A    
C16   C24   1.388569 A    
C5    Br4   1.909021 S    
C28   H17   1.083557 S    
C74   H57   1.109889 S    
C32   C33   1.413668 A    
C14   N10   1.345040 A    
C68   H42   1.110610 S    
C15   H8    1.070227 S    
C17   N13   1.337410 A    
C49   Br2   1.939785 S    
C4    C12   1.413123 A    
C57   Br3   1.965302 S    
C70   H51   1.108226 S    
N15   Ni4   1.871387 S    
C51   C52   1.381993 A    
C7    N7    1.344039 A    
C39   C40   1.397939 A    
N8    Ni3   1.845754 S    
C75   H54   1.110916 S    
C73   C74   1.543194 S    
C57   C67   1.559021 S    
C31   H19   1.078541 S    
N6    Ni1   1.866232 S    
C70   C71   1.536984 S    
C27   C28   1.405553 A    
C19   C21   1.375724 A    
C2    H2    1.076881 S    
C44   C45   1.407191 A    
C40   H23   1.081180 S    
C27   C36   1.478956 S    
C58   H32   1.108305 S    
C13   N9    1.317050 A    
C6    H4    1.071772 S    
C41   C42   1.405412 A    
N1    N8    1.391173 A    
C73   H58   1.111814 S    
C5    N5    1.346363 A    
C45   H25   1.081890 S    
C63   C64   1.398103 A    
C15   C23   1.381196 A    
C22   C32   1.470012 S    
C66   H38   1.106576 S    
C28   C29   1.396940 A    
C69   H40   1.110992 S    
