data_mof_unit_4632.cif
_audit_creation_date              2012-10-26T21:00:11-0400
_audit_creation_method            fapswitch 2.2
_symmetry_space_group_name_H-M    P1
_symmetry_Int_Tables_number       1
_space_group_crystal_system       triclinic
_cell_length_a                    19.365848
_cell_length_b                    8.688066
_cell_length_c                    7.463557
_cell_angle_alpha                 103.349975
_cell_angle_beta                  94.215855
_cell_angle_gamma                 92.978354
_cell_volume                      1215.43875671

loop_
_atom_site_label
_atom_site_type_symbol
_atom_type_description
_atom_site_fract_x
_atom_site_fract_y
_atom_site_fract_z
_atom_type_partial_charge
C1    C     C_R   0.497861 0.199576 0.452910 0.535565
C2    C     C_R   0.812197 0.444448 0.328939 -0.078588
C3    C     C_R   0.146084 0.502064 0.504170 -0.007581
C4    C     C_R   0.853916 0.497936 0.495830 -0.007581
C5    C     C_R   0.177539 0.450423 0.339682 -0.116984
C6    C     C_R   0.822461 0.549576 0.660317 -0.116984
C7    C     C_R   0.249398 0.451519 0.342057 -0.142795
C8    C     C_R   0.750602 0.548481 0.657943 -0.142795
C9    C     C_R   0.291646 0.504239 0.508786 0.027098
C10   C     C_R   0.708354 0.495761 0.491214 0.027097
C11   C     C_R   0.929961 0.499073 0.498057 0.351888
C12   C     C_R   0.502139 0.800424 0.547090 0.535565
C13   C     C_R   0.070039 0.500927 0.501943 0.351888
C14   C     C_2   0.496895 0.031363 0.426753 -0.126456
C15   C     C_2   0.503104 0.968637 0.573247 -0.126456
C16   C     C_R   0.367568 0.502044 0.503172 0.555644
C17   C     C_R   0.632432 0.497956 0.496828 0.555644
C18   C     C_R   0.259951 0.557748 0.675146 0.226873
C19   C     C_R   0.740049 0.442252 0.324853 0.226873
C20   C     C_R   0.187803 0.555552 0.671061 -0.078588
Cl1   Cl    Cl    0.306798 0.634147 0.892332 -0.571777
Cl2   Cl    Cl    0.693202 0.365853 0.107668 -0.571777
Cu1   Cu    Cu3+1 0.507710 0.517380 0.684380 1.141707
Cu2   Cu    Cu3+1 0.492290 0.482620 0.315620 1.141707
H1    H     H_    0.164460 0.597021 0.799442 0.171645
H2    H     H_    0.591759 0.698778 0.993855 0.332288
H3    H     H_    0.835540 0.402979 0.200558 0.171645
H4    H     H_    0.146727 0.408707 0.208584 0.162601
H5    H     H_    0.853273 0.591292 0.791416 0.162601
H6    H     H_    0.271835 0.409758 0.212349 0.173995
H7    H     H_    0.728165 0.590242 0.787651 0.173995
H8    H     H_    0.491092 0.958865 0.285978 0.162698
H9    H     H_    0.508908 0.041135 0.714022 0.162698
H10   H     H_    0.408241 0.301222 0.006145 0.332288
N1    N     N_R   0.029345 0.451616 0.340710 -0.209158
N2    N     N_R   0.970655 0.548384 0.659290 -0.209158
N3    N     N_R   0.960649 0.450713 0.338827 -0.216746
N4    N     N_R   0.039351 0.549287 0.661173 -0.216746
N5    N     N_2   0.480680 0.456420 0.038530 0.113379
N6    N     N_2   0.519320 0.543580 0.961470 0.113379
O1    O     O_R   0.505010 0.286130 0.619770 -0.466593
O2    O     O_3   0.567022 0.643725 0.075172 -0.559143
O3    O     O_R   0.494990 0.713870 0.380230 -0.466593
O4    O     O_R   0.491990 0.256780 0.308370 -0.519465
O5    O     O_R   0.508010 0.743220 0.691630 -0.519465
O6    O     O_R   0.406650 0.514660 0.655750 -0.411979
O7    O     O_R   0.593350 0.485340 0.344250 -0.411979
O8    O     O_R   0.393640 0.485310 0.344340 -0.528113
O9    O     O_R   0.606360 0.514690 0.655660 -0.528113
O10   O     O_3   0.432978 0.356274 0.924827 -0.559143

loop_
_geom_bond_atom_site_label_1
_geom_bond_atom_site_label_2
_ccdc_geom_bond_type
C6    H5    S    
C2    C4    A    
Cu1   Cu2   S    
C2    H3    S    
Cu1   O5    S    
C5    H4    S    
C5    C7    A    
C3    C13   S    
C1    O4    A    
N6    O2    S    
Cu1   O1    S    
C12   C15   S    
C10   C19   A    
C16   O8    A    
N2    N4    A    
C3    C20   A    
Cu1   O6    S    
C4    C11   S    
C8    H7    S    
C13   N4    A    
C1    O1    A    
C11   N2    A    
N1    N3    A    
C9    C16   S    
C13   N1    A    
C12   O3    A    
C18   C20   A    
Cu2   O4    S    
Cu1   O9    S    
H10   O10   S    
C20   H1    S    
C10   C17   S    
C16   O6    A    
Cu1   N6    S    
Cu2   O8    S    
C7    C9    A    
C9    C18   A    
N5    O10   S    
H2    O2    S    
C4    C6    A    
C19   Cl2   S    
C17   O9    A    
N5    N6    D    
C11   N3    A    
Cu2   O3    S    
C18   Cl1   S    
C14   C15   D    
C6    C8    A    
C1    C14   S    
C2    C19   A    
Cu2   O7    S    
Cu2   N5    S    
C15   H9    S    
C8    C10   A    
C17   O7    A    
C14   H8    S    
C12   O5    A    
C3    C5    A    
C7    H6    S    
