data_mof_unit_2351.cif
_audit_creation_date              2012-12-10T18:05:56-0500
_audit_creation_method            fapswitch 2.2
_symmetry_space_group_name_H-M    P1
_symmetry_Int_Tables_number       1
_space_group_crystal_system       triclinic
_cell_length_a                    12.612754
_cell_length_b                    13.205838
_cell_length_c                    15.008997
_cell_angle_alpha                 90.363538
_cell_angle_beta                  102.129974
_cell_angle_gamma                 84.563894
_cell_volume                      2432.88483798

loop_
_atom_site_label
_atom_site_type_symbol
_atom_type_description
_atom_site_fract_x
_atom_site_fract_y
_atom_site_fract_z
_atom_type_partial_charge
C1    C     C_R   0.440901 0.690851 0.495240 0.842622
C2    C     C_R   0.601152 0.488553 0.112164 0.123879
C3    C     C_R   0.304762 0.539353 0.010287 -0.192199
C4    C     C_R   0.306618 0.539152 0.917998 -0.164891
C5    C     C_R   0.405601 0.518381 0.890044 0.123908
C6    C     C_R   0.504172 0.499975 0.954557 0.005227
C7    C     C_R   0.604012 0.475785 0.926802 -0.021727
C8    C     C_R   0.701994 0.467685 0.992848 -0.088840
C9    C     C_R   0.700413 0.473346 0.084778 -0.229154
C10   C     C_R   0.407651 0.517318 0.798446 -0.275229
C11   C     C_R   0.505076 0.490015 0.770106 -0.171221
C12   C     C_R   0.501844 0.496154 0.673365 0.979207
C13   C     C_R   0.602745 0.460087 0.834037 0.411842
C14   C     C_R   0.720194 0.065157 0.610968 -0.070378
C15   C     C_R   0.587662 0.204344 0.548195 -0.158298
C16   C     C_R   0.305934 0.835823 0.441613 -0.185879
C17   C     C_R   0.278850 0.939481 0.426986 -0.138358
C18   C     C_R   0.352029 0.007447 0.466230 -0.085612
C19   C     C_R   0.450576 0.972937 0.526613 0.125964
C20   C     C_R   0.476117 0.868159 0.545544 0.021801
C21   C     C_R   0.529024 0.039627 0.562161 -0.084258
C22   C     C_R   0.635404 0.001532 0.604996 -0.023250
C23   C     C_R   0.558464 0.309638 0.517278 0.923132
C24   C     C_R   0.651281 0.902702 0.641778 0.453703
C25   C     C_R   0.570800 0.836339 0.612310 -0.274829
C26   C     C_R   0.504452 0.144149 0.558242 0.371728
C27   C     C_R   0.696737 0.163838 0.574649 -0.198067
C28   C     C_R   0.406076 0.799290 0.497313 -0.081185
C29   C     C_R   0.076132 0.362770 0.362060 -0.256677
C30   C     C_R   0.806662 0.615635 0.619301 0.082198
C31   C     C_R   0.915635 0.631355 0.651312 -0.151896
C32   C     C_R   0.994252 0.588603 0.606145 -0.229278
C33   C     C_R   0.964802 0.525260 0.530920 0.040306
C34   C     C_R   0.499499 0.500729 0.326925 0.880566
C35   C     C_R   0.853194 0.506238 0.504769 0.226276
C36   C     C_R   0.041666 0.477050 0.482894 -0.000909
C37   C     C_R   0.004698 0.409597 0.411788 0.089234
C38   C     C_R   0.896660 0.387917 0.391005 -0.267115
C39   C     C_R   0.822699 0.434439 0.437750 -0.196330
C40   C     C_R   0.153683 0.492966 0.501487 -0.090463
C41   C     C_R   0.184703 0.380496 0.382739 0.613397
C42   C     C_R   0.599004 0.488617 0.203769 -0.251575
C43   C     C_R   0.499467 0.502479 0.231132 -0.063892
C44   C     C_R   0.401248 0.519510 0.167337 -0.228390
C45   C     C_R   0.402177 0.521217 0.075048 0.108759
C46   C     C_R   0.502534 0.503765 0.047218 0.097372
H1    H     H_    0.674916 0.475897 0.253669 0.160855
H2    H     H_    0.804211 0.037847 0.638327 0.212445
H3    H     H_    0.250927 0.783996 0.405243 0.163585
H4    H     H_    0.332589 0.086467 0.445984 0.176229
H5    H     H_    0.203437 0.966966 0.381180 0.158794
H6    H     H_    0.582196 0.760685 0.641808 0.194919
H7    H     H_    0.869032 0.333980 0.338390 0.157283
H8    H     H_    0.048038 0.311504 0.307219 0.171657
H9    H     H_    0.324596 0.532111 0.189486 0.171015
H10   H     H_    0.188006 0.544324 0.553327 0.141563
H11   H     H_    0.745635 0.647545 0.654548 0.196833
H12   H     H_    0.077378 0.603517 0.633278 0.146985
H13   H     H_    0.939937 0.674688 0.712238 0.209828
H14   H     H_    0.742616 0.410687 0.421174 0.205283
H15   H     H_    0.227466 0.553701 0.030995 0.157559
H16   H     H_    0.230652 0.553752 0.868484 0.151389
H17   H     H_    0.332693 0.537567 0.748856 0.169795
H18   H     H_    0.780664 0.458614 0.974439 0.212045
H19   H     H_    0.776791 0.464781 0.134478 0.154287
H20   H     H_    0.762793 0.210022 0.572792 0.192060
N1    N     N_R   0.222190 0.444670 0.452360 -0.142135
N2    N     N_R   0.776970 0.554790 0.547140 -0.150571
O1    O     O_R   0.366740 0.627160 0.477250 -0.630369
O2    O     O_R   0.544830 0.662520 0.507680 -0.626903
O3    O     O_R   0.410940 0.482340 0.616930 -0.597617
O4    O     O_R   0.589030 0.517700 0.647360 -0.584173
O5    O     O_R   0.455170 0.337480 0.492320 -0.600280
O6    O     O_R   0.633260 0.372840 0.522750 -0.620146
O7    O     O_R   0.410970 0.482300 0.352640 -0.637045
O8    O     O_R   0.589060 0.517660 0.383070 -0.645823
Zn1   Zn    Zn3+2 0.381090 0.476390 0.479680 0.999247
Zn2   Zn    Zn3+2 0.618910 0.523610 0.520320 0.978140
S1    S     S_3+6 0.761427 0.868145 0.733723 -0.003278
O9    O     O_2   0.864766 0.854292 0.698527 -0.364164
O10   O     O_2   0.770185 0.952524 0.801816 -0.230238
O11   O     O_3   0.742667 0.760768 0.785617 -0.583970
H21   H     H_    0.811356 0.743710 0.830922 0.388377
S2    S     S_3+6 0.396644 0.192543 0.611952 0.052269
O12   O     O_2   0.435983 0.273070 0.678587 -0.261507
O13   O     O_2   0.299876 0.237054 0.542659 -0.329849
O14   O     O_3   0.358009 0.098067 0.669004 -0.528609
H22   H     H_    0.298340 0.130382 0.696194 0.389472
O15   O     O_3   0.250461 0.331569 0.330401 -0.778993
H23   H     H_    0.326456 0.334887 0.361124 0.380449
S3    S     S_3+6 0.716460 0.390043 0.800850 0.039892
O16   O     O_2   0.771433 0.312819 0.873112 -0.275750
O17   O     O_2   0.680225 0.334098 0.714247 -0.280941
O18   O     O_3   0.806108 0.471383 0.785763 -0.581394
H24   H     H_    0.860812 0.430201 0.758663 0.380281

loop_
_geom_bond_atom_site_label_1
_geom_bond_atom_site_label_2
_ccdc_geom_bond_type
C16   C28   A    
C41   O15   S    
C21   C26   A    
O2    Zn2   S    
O1    Zn1   S    
C10   H17   S    
N1    Zn1   S    
S2    O14   S    
C32   H12   S    
O14   H22   S    
C17   H5    S    
C7    C8    A    
C41   N1    A    
C45   C46   A    
C2    C46   A    
C5    C6    A    
C36   C37   A    
C19   C21   A    
S2    O13   D    
C30   C31   A    
C20   C25   A    
C30   H11   S    
C4    H16   S    
C33   C36   A    
C18   C19   A    
C31   H13   S    
O4    Zn2   S    
S2    O12   D    
C19   C20   A    
C8    C9    A    
C40   H10   S    
C40   N1    A    
C1    C28   S    
C14   C27   A    
C34   O7    A    
C15   C23   S    
C12   O4    A    
C21   C22   A    
C13   S3    S    
C23   O5    A    
C3    H15   S    
N2    Zn2   S    
C36   C40   A    
C16   H3    S    
S3    O16   D    
S1    O10   D    
C16   C17   A    
C15   C26   A    
C14   H2    S    
C20   C28   A    
C3    C45   A    
C1    O1    A    
C35   C39   A    
C43   C44   A    
C37   C38   A    
S3    O17   D    
C24   S1    S    
C15   C27   A    
C31   C32   A    
C17   C18   A    
C24   C25   A    
O7    Zn1   S    
C8    H18   S    
C12   O3    A    
O6    Zn2   S    
C22   C24   A    
C42   C43   A    
C23   O6    A    
C3    C4    A    
O3    Zn1   S    
C44   C45   A    
C18   H4    S    
C26   S2    S    
C6    C46   A    
C29   C41   A    
C34   C43   S    
O8    Zn2   S    
C4    C5    A    
S1    O11   S    
C11   C12   S    
C6    C7    A    
C1    O2    A    
C32   C33   A    
C14   C22   A    
C25   H6    S    
C5    C10   A    
C27   H20   S    
S3    O18   S    
C11   C13   A    
C44   H9    S    
C38   C39   A    
C38   H7    S    
C35   N2    A    
C2    C42   A    
C39   H14   S    
C33   C35   A    
C42   H1    S    
O18   H24   S    
C9    H19   S    
C10   C11   A    
S1    O9    D    
C7    C13   A    
O11   H21   S    
C29   H8    S    
C29   C37   A    
O5    Zn1   S    
O15   H23   S    
C2    C9    A    
C30   N2    A    
C34   O8    A    
