data_mof_unit_2314.cif
_audit_creation_date              2012-10-26T18:29:57-0400
_audit_creation_method            fapswitch 2.2
_symmetry_space_group_name_H-M    P1
_symmetry_Int_Tables_number       1
_space_group_crystal_system       triclinic
_cell_length_a                    10.906701
_cell_length_b                    13.097593
_cell_length_c                    11.699801
_cell_angle_alpha                 99.1337
_cell_angle_beta                  94.61071
_cell_angle_gamma                 90.581176
_cell_volume                      1644.35740586

loop_
_atom_site_label
_atom_site_type_symbol
_atom_type_description
_atom_site_fract_x
_atom_site_fract_y
_atom_site_fract_z
_atom_type_partial_charge
C1    C     C_R   0.507529 0.299174 0.480191 0.569930
C2    C     C_R   0.486812 0.028231 0.554403 0.013926
C3    C     C_R   0.506609 0.968024 0.447291 -0.016906
C4    C     C_R   0.259838 0.501616 0.499601 0.555302
C5    C     C_R   0.504355 0.860444 0.436735 -0.107430
C6    C     C_R   0.453199 0.872994 0.637349 0.132023
C7    C     C_R   0.447789 0.978965 0.643642 -0.029121
C8    C     C_R   0.359600 0.419496 0.025640 0.245494
C9    C     C_R   0.377584 0.428852 0.147999 0.107654
C10   C     C_R   0.563499 0.521689 0.154171 0.058041
C11   C     C_R   0.553524 0.513298 0.031613 -0.073917
C12   C     C_3   0.878308 0.491078 0.499797 -0.025436
C13   C     C_R   0.448465 0.465728 0.964712 -0.026258
C14   C     C_R   0.439843 0.466227 0.841818 0.072009
C15   C     C_R   0.622210 0.572513 0.860646 0.365469
C16   C     C_R   0.494414 0.700131 0.520925 0.584610
C17   C     C_R   0.645757 0.555413 0.976718 0.069160
C18   C     C_R   0.739945 0.491531 0.499573 0.566903
C19   C     C_3   0.082984 0.461309 0.611333 -0.023424
C20   C     C_3   0.943117 0.430849 0.596465 0.144719
C21   C     C_3   0.066470 0.609865 0.485517 0.165499
C22   C     C_3   0.062523 0.423082 0.391989 -0.275282
C23   C     C_3   0.929189 0.606253 0.515559 -0.045905
C24   C     C_3   0.122193 0.501046 0.498585 -0.028233
C25   C     C_3   0.920249 0.436628 0.380855 -0.249883
C26   C     C_R   0.484161 0.812315 0.532858 0.032784
C27   C     C_R   0.520039 0.185514 0.472554 -0.002376
C28   C     C_R   0.533377 0.015683 0.353747 -0.079545
C29   C     C_R   0.537002 0.123080 0.363950 0.066548
C30   C     C_R   0.510404 0.135522 0.572240 0.224979
Cu1   Cu    Cu3+1 0.509350 0.507730 0.615930 1.109666
Cu2   Cu    Cu3+1 0.490650 0.492270 0.384070 1.012054
H1    H     H_    0.895192 0.484051 0.312043 0.194556
H2    H     H_    0.099743 0.432578 0.308715 0.188308
H3    H     H_    0.085387 0.342625 0.402889 0.155542
H4    H     H_    0.872402 0.360828 0.350476 0.175646
H5    H     H_    0.646898 0.325074 0.820978 0.364435
H6    H     H_    0.747389 0.703676 0.661186 0.354082
H7    H     H_    0.032561 0.377514 0.002411 0.386479
H8    H     H_    0.524025 0.814523 0.354940 0.161541
H9    H     H_    0.550274 0.969089 0.271572 0.173153
H10   H     H_    0.415637 0.022654 0.721357 0.214288
H11   H     H_    0.366224 0.426319 0.786045 0.219255
H12   H     H_    0.134656 0.390134 0.621533 0.173188
H13   H     H_    0.310367 0.394774 0.194673 0.164954
H14   H     H_    0.637883 0.564101 0.207731 0.177030
H15   H     H_    0.927487 0.637382 0.609236 0.169978
I1    I     I_    0.142009 0.566461 0.773841 -0.095170
I2    I     I_    0.096706 0.648114 0.313917 -0.174233
I3    I     I_    0.815170 0.713307 0.430382 -0.249243
I4    I     I_    0.415641 0.820290 0.795456 -0.056311
I5    I     I_    0.583163 0.178730 0.210447 -0.181980
I6    I     I_    0.823515 0.590247 0.072840 -0.125896
I7    I     I_    0.918292 0.263271 0.548512 -0.209993
I8    I     I_    0.873293 0.431926 0.763319 -0.085741
I9    I     I_    0.152466 0.747431 0.584258 -0.181312
N1    N     N_R   0.523430 0.519360 0.790130 -0.279311
N2    N     N_R   0.476570 0.480640 0.209880 -0.273405
O1    O     O_R   0.506640 0.354460 0.582000 -0.438425
O2    O     O_2   0.604145 0.120942 0.791075 -0.227418
O3    O     O_3   0.642688 0.297482 0.736804 -0.461026
O4    O     O_2   0.691945 0.768311 0.932387 -0.194239
O5    O     O_2   0.846738 0.661153 0.843235 -0.234003
O6    O     O_3   0.689103 0.737273 0.714339 -0.458745
O7    O     O_2   0.210965 0.326315 0.833314 -0.237188
O8    O     O_2   0.213510 0.253303 0.012497 -0.244641
O9    O     O_3   0.103103 0.426333 0.005246 -0.482270
O10   O     O_R   0.490840 0.341410 0.386200 -0.496864
O11   O     O_R   0.325590 0.506510 0.597900 -0.506468
O12   O     O_R   0.309790 0.493450 0.402100 -0.512108
O13   O     O_R   0.509160 0.658590 0.613800 -0.438564
O14   O     O_R   0.493360 0.645540 0.418000 -0.505696
O15   O     O_R   0.690210 0.506550 0.597900 -0.475247
O16   O     O_R   0.674410 0.493490 0.402100 -0.507220
O17   O     O_2   0.426399 0.230256 0.770025 -0.268611
S1    S     S_3+6 0.544864 0.196556 0.720637 0.044980
S2    S     S_3+6 0.711895 0.683275 0.833589 0.115139
S3    S     S_3+6 0.221601 0.352258 0.963295 0.055716

loop_
_geom_bond_atom_site_label_1
_geom_bond_atom_site_label_2
_ccdc_geom_bond_type
C9    H13   S    
C8    C13   A    
C27   C29   A    
O6    S2    S    
O4    S2    D    
C19   C20   S    
C16   O14   A    
Cu2   N2    S    
C4    O12   A    
Cu2   O14   S    
C15   S2    S    
C22   H3    S    
O9    S3    S    
C12   C23   S    
C28   C29   A    
C10   N2    A    
C1    O1    A    
Cu2   O16   S    
C4    C24   S    
Cu1   O15   S    
C28   H9    S    
C1    O10   A    
C9    N2    A    
C7    H10   S    
Cu1   O1    S    
C11   C17   A    
C2    C7    A    
C8    C9    A    
C22   C25   S    
C10   H14   S    
C6    I4    S    
Cu2   O10   S    
Cu1   O13   S    
C18   O16   A    
C13   C14   A    
C27   C30   A    
C8    S3    S    
C15   N1    A    
C16   O13   A    
C20   I8    S    
O8    S3    D    
C21   I2    S    
C4    O11   A    
H6    O6    S    
O3    S1    S    
C16   C26   S    
C22   H2    S    
C23   H15   S    
C20   I7    S    
C19   I1    S    
C23   I3    S    
Cu2   O12   S    
O2    S1    D    
O17   S1    D    
C30   S1    S    
Cu1   Cu2   S    
C12   C20   S    
C18   O15   A    
C21   C23   S    
C22   C24   S    
C5    H8    S    
C17   I6    S    
C19   H12   S    
O5    S2    D    
C15   C17   A    
C14   N1    A    
C3    C28   A    
O7    S3    D    
H7    O9    S    
C3    C5    A    
C21   I9    S    
H5    O3    S    
C6    C7    A    
C12   C25   S    
C2    C30   A    
Cu1   N1    S    
C2    C3    A    
C11   C13   A    
C6    C26   A    
C19   C24   S    
C10   C11   A    
C25   H4    S    
C5    C26   A    
Cu1   O11   S    
C21   C24   S    
C12   C18   S    
C1    C27   S    
C25   H1    S    
C14   H11   S    
C29   I5    S    
