data_mof_unit_3591.cif
_audit_creation_date              2013-03-05T15:50:30-0500
_audit_creation_method            fapswitch 2.2
_symmetry_space_group_name_H-M    P1
_symmetry_Int_Tables_number       1
_space_group_crystal_system       monoclinic
_cell_length_a                    19.157881
_cell_length_b                    7.143396
_cell_length_c                    17.710176
_cell_angle_alpha                 90.0
_cell_angle_beta                  109.103082
_cell_angle_gamma                 90.0
_cell_volume                      2290.21003801

loop_
_atom_site_label
_atom_site_type_symbol
_atom_site_description
_atom_site_fract_x
_atom_site_fract_y
_atom_site_fract_z
_atom_type_partial_charge
O1    O     O_R   0.562310 0.505770 0.439670 -0.588670
O2    O     O_R   0.437690 0.005770 0.560330 -0.588669
O3    O     O_R   0.411650 0.169150 0.405330 -0.585281
O4    O     O_R   0.588350 0.669150 0.594670 -0.585281
C1    C     C_R   0.384540 0.345904 0.382738 0.813608
C2    C     C_R   0.615460 0.845904 0.617262 0.813608
O5    O     O_R   0.560140 0.175610 0.430010 -0.595343
O6    O     O_R   0.439860 0.675610 0.569990 -0.595343
O7    O     O_R   0.587240 0.012100 0.585200 -0.588708
O8    O     O_R   0.412760 0.512100 0.414800 -0.588708
C3    C     C_R   0.581198 0.344544 0.415117 0.928049
C4    C     C_R   0.418801 0.844544 0.584883 0.928046
O9    O     O_3   0.508720 0.341420 0.550890 -0.277383
O10   O     O_3   0.491280 0.841420 0.449110 -0.277382
V1    V     V_3+5 0.498380 0.063930 0.490560 1.139394
V2    V     V_3+5 0.501620 0.563930 0.509440 1.139394
C5    C     C_R   0.176075 0.763910 0.870696 -0.147424
C6    C     C_R   0.823924 0.263911 0.129302 -0.147421
C7    C     C_R   0.127618 0.916408 0.861812 -0.311209
C8    C     C_R   0.872381 0.416408 0.138187 -0.311213
C9    C     C_R   0.126256 0.057168 0.804753 0.293195
C10   C     C_R   0.873742 0.557169 0.195244 0.293198
C11   C     C_R   0.174962 0.045666 0.759385 0.003955
C12   C     C_R   0.825036 0.545667 0.240613 0.003958
C13   C     C_R   0.222896 0.889821 0.769044 0.002271
C14   C     C_R   0.777102 0.389821 0.230954 0.002270
C15   C     C_R   0.222766 0.748679 0.824398 0.054401
C16   C     C_R   0.777232 0.248680 0.175600 0.054400
C17   C     C_R   0.175890 0.184525 0.703236 -0.114786
C18   C     C_R   0.824108 0.684527 0.296761 -0.114784
C19   C     C_R   0.224117 0.171737 0.659094 -0.236988
C20   C     C_R   0.775881 0.671738 0.340904 -0.236990
C21   C     C_R   0.271930 0.018686 0.668739 0.211359
C22   C     C_R   0.728069 0.518687 0.331259 0.211358
C23   C     C_R   0.270855 0.874719 0.723013 0.040353
C24   C     C_R   0.729143 0.374720 0.276985 0.040353
C25   C     C_R   0.317729 0.716627 0.731370 -0.047971
C26   C     C_R   0.682270 0.216628 0.268628 -0.047970
C27   C     C_R   0.314996 0.572457 0.785843 0.491853
C28   C     C_R   0.685002 0.072459 0.214155 0.491853
C29   C     C_R   0.269067 0.592875 0.832631 -0.220430
C30   C     C_R   0.730931 0.092877 0.167367 -0.220432
C31   C     C_R   0.320555 0.007948 0.624577 -0.254452
C32   C     C_R   0.679445 0.507949 0.375422 -0.254452
C33   C     C_R   0.368270 0.854493 0.633021 -0.131593
C34   C     C_R   0.631729 0.354493 0.366978 -0.131593
C35   C     C_R   0.366779 0.710271 0.686555 -0.220673
C36   C     C_R   0.633220 0.210272 0.313443 -0.220673
H1    H     H_    0.177778 0.656140 0.914392 0.158534
H2    H     H_    0.822221 0.156141 0.085606 0.158536
H3    H     H_    0.139694 0.304779 0.693053 0.174977
H4    H     H_    0.860303 0.804782 0.306943 0.174976
H5    H     H_    0.224067 0.282524 0.617252 0.129040
H6    H     H_    0.775931 0.782526 0.382746 0.129040
H7    H     H_    0.320702 0.118940 0.582846 0.132513
H8    H     H_    0.679298 0.618940 0.417153 0.132514
H9    H     H_    0.405786 0.596892 0.694033 0.142365
H10   H     H_    0.594213 0.096893 0.305967 0.142365
H11   H     H_    0.268377 0.482813 0.874557 0.166130
H12   H     H_    0.731620 0.982814 0.125441 0.166131
C37   C     C_3   0.752000 0.813291 0.837812 -0.345120
C38   C     C_3   0.248000 0.313292 0.162188 -0.345120
H13   H     H_    0.772117 0.673984 0.864120 0.154307
H14   H     H_    0.227883 0.173985 0.135880 0.154307
H15   H     H_    0.740230 0.897228 0.885192 0.137295
H16   H     H_    0.259770 0.397230 0.114808 0.137294
C39   C     C_3   0.679373 0.786100 0.766207 -0.358884
C40   C     C_3   0.320628 0.286101 0.233793 -0.358886
H17   H     H_    0.632968 0.857008 0.779429 0.142494
H18   H     H_    0.367032 0.357011 0.220571 0.142495
H19   H     H_    0.665678 0.634406 0.758406 0.156866
H20   H     H_    0.334323 0.134408 0.241593 0.156866
H21   H     H_    0.847864 0.652536 0.767290 0.169657
H22   H     H_    0.152136 0.152535 0.232709 0.169657
H23   H     H_    0.740441 0.613215 0.662822 0.158714
H24   H     H_    0.259559 0.113214 0.337177 0.158714
C41   C     C_3   0.825653 0.792428 0.743651 -0.313873
C42   C     C_3   0.174347 0.292427 0.256348 -0.313872
C43   C     C_3   0.781895 0.104298 0.775306 -0.374501
C44   C     C_3   0.218105 0.604298 0.224694 -0.374502
C45   C     C_3   0.812717 0.912490 0.811361 0.104051
C46   C     C_3   0.187282 0.412490 0.188639 0.104053
H25   H     H_    0.823347 0.178549 0.754500 0.183545
H26   H     H_    0.176653 0.678548 0.245500 0.183544
H27   H     H_    0.770913 0.193607 0.821694 0.147916
H28   H     H_    0.229087 0.693608 0.178307 0.147917
C47   C     C_3   0.687418 0.866798 0.688277 0.116404
C48   C     C_3   0.312581 0.366798 0.311723 0.116404
C49   C     C_3   0.752767 0.765315 0.672338 -0.376041
C50   C     C_3   0.247233 0.265313 0.327662 -0.376041
C51   C     C_3   0.709657 0.078343 0.704365 -0.305579
C52   C     C_3   0.290342 0.578343 0.295635 -0.305579
H29   H     H_    0.664691 0.156947 0.717340 0.158839
H30   H     H_    0.335308 0.656947 0.282660 0.158839
H31   H     H_    0.717064 0.142040 0.650106 0.154300
H32   H     H_    0.282936 0.642039 0.349894 0.154300
H33   H     H_    0.867738 0.861121 0.722086 0.168461
H34   H     H_    0.132262 0.361119 0.277914 0.168460
H35   H     H_    0.760099 0.820957 0.616731 0.142985
H36   H     H_    0.239901 0.320955 0.383268 0.142986
O11   O     O_R   0.087220 0.271820 0.085230 -0.605285
O12   O     O_R   0.912780 0.771820 0.914770 -0.605285
O13   O     O_R   0.939860 0.595540 0.069990 -0.554714
O14   O     O_R   0.060140 0.095540 0.930010 -0.554711
C53   C     C_R   0.920088 0.426569 0.086458 0.976746
C54   C     C_R   0.079912 0.926569 0.913541 0.976755
O15   O     O_R   0.088340 0.601930 0.094680 -0.582500
O16   O     O_R   0.911660 0.101930 0.905320 -0.582497
O17   O     O_R   0.062310 0.765410 0.939660 -0.586828
O18   O     O_R   0.937690 0.265410 0.060340 -0.586825
C55   C     C_R   0.115852 0.431852 0.117903 0.857675
C56   C     C_R   0.884148 0.931852 0.882097 0.857680
O19   O     O_3   0.991270 0.429630 0.949130 -0.258367
O20   O     O_3   0.008730 0.929630 0.050870 -0.258368
V3    V     V_3+5 0.001620 0.707150 0.009440 1.219493
V4    V     V_3+5 0.998380 0.207150 0.990560 1.219496
N1    N     N_R   0.073162 0.205941 0.790063 0.234740
O21   O     O_R   0.094722 0.376999 0.809749 -0.424906
O22   O     O_R   0.002893 0.168701 0.761561 -0.425567
N2    N     N_R   0.926835 0.705943 0.209934 0.234740
O23   O     O_R   0.905276 0.876998 0.190242 -0.424904
O24   O     O_R   0.997104 0.668706 0.238451 -0.425566
O25   O     O_3   0.356207 0.410301 0.796216 -0.745154
H37   H     H_    0.362502 0.375651 0.744816 0.311730
O26   O     O_3   0.643790 0.910304 0.203781 -0.745155
H38   H     H_    0.637495 0.875652 0.255181 0.311730

loop_
_geom_bond_atom_site_label_1
_geom_bond_atom_site_label_2
_geom_bond_distance
_ccdc_geom_bond_type
C18   C20   1.394970 A    
C53   O18   1.324804 A    
C44   C52   1.545967 S    
C47   C51   1.570610 S    
O12   C56   1.317118 A    
O1    C3    1.322664 A    
C44   H26   1.113233 S    
O2    C4    1.322666 A    
C2    O7    1.350274 A    
O14   C54   1.325808 A    
O20   V3    1.737025 S    
O25   H37   0.988087 S    
C27   C29   1.399764 A    
C42   C50   1.558227 S    
C10   N2    1.434757 S    
C41   C49   1.558227 S    
C49   H35   1.112690 S    
C11   C17   1.408776 A    
C23   C25   1.420093 A    
C12   C14   1.417437 A    
N1    O22   1.301171 A    
C51   H29   1.113442 S    
C52   H32   1.113470 S    
C27   O25   1.379825 S    
C6    C8    1.406280 A    
C50   H36   1.112688 S    
C37   H13   1.112814 S    
C42   C46   1.558668 S    
C9    N1    1.434760 S    
O12   V3    2.013318 S    
C5    C7    1.406282 A    
O14   V4    2.003999 S    
C1    C48   1.539369 S    
C48   C52   1.570610 S    
C32   C34   1.403620 A    
C42   H34   1.112775 S    
C38   H14   1.112813 S    
C19   C21   1.400391 A    
C41   H33   1.112773 S    
C25   C35   1.415335 A    
C43   C51   1.545967 S    
C40   H20   1.112831 S    
O19   V4    1.737025 S    
C28   C30   1.399765 A    
C38   C46   1.559279 S    
O6    V2    2.004192 S    
C26   C28   1.423764 A    
O15   C55   1.334589 A    
C20   H6    1.083950 S    
C14   C16   1.406830 A    
N2    O24   1.301178 A    
O5    C3    1.325991 A    
C33   C35   1.406709 A    
C25   C27   1.423763 A    
C34   C36   1.406710 A    
C38   H16   1.112790 S    
C5    C15   1.401570 A    
C6    C16   1.401573 A    
C37   C39   1.557868 S    
C29   H11   1.084469 S    
C44   C46   1.544978 S    
C30   H12   1.084468 S    
C43   C45   1.544978 S    
O17   V3    1.998196 S    
O5    V1    2.004198 S    
C2    C47   1.539368 S    
O16   C56   1.334589 A    
C39   H17   1.112651 S    
C21   C31   1.400811 A    
O4    V2    1.990615 S    
O13   V3    2.003994 S    
C35   H9    1.080359 S    
C15   C29   1.400759 A    
C45   C56   1.529414 S    
C41   C45   1.558669 S    
O6    C4    1.325993 A    
C52   H30   1.113442 S    
C22   C32   1.400811 A    
O13   C53   1.325809 A    
O1    V2    1.997906 S    
C19   H5    1.083951 S    
O2    V1    1.997900 S    
C31   C33   1.403621 A    
O15   V3    1.990588 S    
C13   C23   1.417962 A    
C14   C24   1.417962 A    
C8    C10   1.419716 A    
C47   C49   1.550454 S    
O26   H38   0.988084 S    
C40   C48   1.549245 S    
C10   C12   1.419051 A    
O4    C2    1.374056 A    
C13   C15   1.406829 A    
C5    H1    1.084461 S    
C24   C26   1.420092 A    
O18   V4    1.998193 S    
C43   H27   1.113240 S    
O3    V1    1.990613 S    
N2    O23   1.300397 A    
C6    H2    1.084460 S    
C8    C53   1.492620 S    
C17   H3    1.081415 S    
C31   H7    1.084533 S    
C18   H4    1.081415 S    
C7    C9    1.419720 A    
C26   C36   1.415335 A    
C48   C50   1.550455 S    
C4    C33   1.486346 S    
O3    C1    1.374057 A    
C36   H10   1.080359 S    
O11   C55   1.317117 A    
C39   C47   1.549246 S    
C38   C40   1.557869 S    
C46   C55   1.529413 S    
O16   V4    1.990588 S    
C9    C11   1.419054 A    
O7    V1    1.994195 S    
C1    O8    1.350273 A    
C17   C19   1.394970 A    
O8    V2    1.994195 S    
N1    O21   1.300395 A    
C43   H25   1.113232 S    
C32   H8    1.084532 S    
C28   O26   1.379826 S    
C16   C30   1.400758 A    
C21   C23   1.412419 A    
C22   C24   1.412420 A    
C39   H19   1.112832 S    
C11   C13   1.417438 A    
C12   C18   1.408775 A    
H23   C49   1.112933 S    
C51   H31   1.113472 S    
C7    C54   1.492621 S    
C37   H15   1.112790 S    
C44   H28   1.113238 S    
C40   H18   1.112649 S    
H22   C42   1.112805 S    
O9    V2    1.737373 S    
H24   C50   1.112933 S    
O11   V4    2.013319 S    
H21   C41   1.112806 S    
O10   V1    1.737373 S    
C3    C34   1.486347 S    
C37   C45   1.559277 S    
C20   C22   1.400391 A    
C54   O17   1.324804 A    
