data_mof_unit_265.cif
_audit_creation_date              2012-12-10T20:21:43-0500
_audit_creation_method            fapswitch 2.2
_symmetry_space_group_name_H-M    P1
_symmetry_Int_Tables_number       1
_space_group_crystal_system       triclinic
_cell_length_a                    19.327914
_cell_length_b                    18.661486
_cell_length_c                    8.906096
_cell_angle_alpha                 90.002307
_cell_angle_beta                  93.652886
_cell_angle_gamma                 89.963601
_cell_volume                      3205.79139248

loop_
_atom_site_label
_atom_site_type_symbol
_atom_type_description
_atom_site_fract_x
_atom_site_fract_y
_atom_site_fract_z
_atom_type_partial_charge
C1    C     C_R   0.365903 0.500029 0.502770 0.849342
C2    C     C_R   0.634097 0.499971 0.497231 0.849345
C3    C     C_R   0.541479 0.727749 0.604832 0.227479
C4    C     C_R   0.458524 0.272251 0.395161 0.227477
C5    C     C_R   0.458473 0.727785 0.395236 0.227392
C6    C     C_R   0.541523 0.272215 0.604772 0.227391
C7    C     C_R   0.538651 0.803476 0.609319 -0.279263
C8    C     C_R   0.461355 0.196524 0.390672 -0.279258
C9    C     C_R   0.461285 0.803506 0.390695 -0.279412
C10   C     C_R   0.538710 0.196493 0.609313 -0.279401
C11   C     C_R   0.499981 0.842464 0.499975 0.052893
C12   C     C_R   0.500019 0.157536 0.500024 0.052886
C13   C     C_R   0.439431 0.962370 0.457663 -0.186522
C14   C     C_R   0.560569 0.037631 0.542335 -0.186523
C15   C     C_R   0.560559 0.962273 0.542305 -0.186579
C16   C     C_R   0.439441 0.037728 0.457693 -0.186580
C17   C     C_R   0.500010 0.076726 0.500028 0.141055
C18   C     C_R   0.499990 0.923275 0.499970 0.141057
C19   C     C_R   0.499607 0.499999 0.218727 0.934986
C20   C     C_R   0.500393 0.500001 0.781272 0.934987
C21   C     C_1   0.499852 0.499999 0.065399 -0.207469
C22   C     C_1   0.500148 0.500001 0.934601 -0.207468
C23   C     C_R   0.744928 0.434773 0.482138 -0.198651
C24   C     C_R   0.255077 0.565227 0.517940 -0.198627
C25   C     C_R   0.254810 0.435224 0.516120 -0.199928
C26   C     C_R   0.745186 0.564778 0.483840 -0.199914
C27   C     C_R   0.816539 0.434547 0.480698 -0.180701
C28   C     C_R   0.183466 0.565455 0.519392 -0.180707
C29   C     C_R   0.183192 0.435345 0.517702 -0.178398
C30   C     C_R   0.816805 0.564659 0.482276 -0.178404
C31   C     C_R   0.852704 0.499501 0.483068 0.119482
C32   C     C_R   0.147297 0.500503 0.516975 0.119473
C33   C     C_R   0.709006 0.499851 0.488086 -0.030187
C34   C     C_R   0.290994 0.500150 0.511925 -0.030190
C35   C     C_R   0.963475 0.544175 0.395564 -0.188566
C36   C     C_R   0.036528 0.455833 0.604490 -0.188567
C37   C     C_R   0.035301 0.544855 0.405053 -0.186276
C38   C     C_R   0.964702 0.455155 0.595003 -0.186280
C39   C     C_R   0.071966 0.500703 0.509566 0.107246
C40   C     C_R   0.928037 0.499305 0.490486 0.107254
H1    H     H_    0.717868 0.384134 0.479334 0.163136
H2    H     H_    0.282140 0.615864 0.520787 0.163127
H3    H     H_    0.281648 0.384447 0.516813 0.163102
H4    H     H_    0.718345 0.615555 0.483093 0.163092
H5    H     H_    0.843731 0.383821 0.478043 0.130813
H6    H     H_    0.156277 0.616181 0.522096 0.130817
H7    H     H_    0.155759 0.384716 0.516019 0.130439
H8    H     H_    0.844234 0.615290 0.483921 0.130432
H9    H     H_    0.935582 0.577993 0.313404 0.132521
H10   H     H_    0.064422 0.422014 0.686644 0.132527
H11   H     H_    0.062263 0.578962 0.329562 0.132892
H12   H     H_    0.937741 0.421048 0.670495 0.132887
H13   H     H_    0.567305 0.832240 0.698557 0.138798
H14   H     H_    0.432704 0.167760 0.301428 0.138800
H15   H     H_    0.432556 0.832278 0.301516 0.138795
H16   H     H_    0.567433 0.167721 0.698498 0.138796
H17   H     H_    0.391407 0.934697 0.426805 0.126115
H18   H     H_    0.608593 0.065304 0.573194 0.126118
H19   H     H_    0.608576 0.934521 0.573149 0.126146
H20   H     H_    0.391425 0.065479 0.426848 0.126148
N1    N     N_R   0.500000 0.689440 0.500000 -0.124267
N2    N     N_R   0.500000 0.310560 0.500000 -0.124269
O1    O     O_R   0.398180 0.560840 0.499960 -0.635100
O2    O     O_R   0.601820 0.439160 0.500040 -0.635103
O3    O     O_R   0.601820 0.560840 0.500040 -0.635049
O4    O     O_R   0.398180 0.439160 0.499960 -0.635050
O5    O     O_R   0.500000 0.560800 0.285330 -0.636892
O6    O     O_R   0.500000 0.439200 0.714670 -0.636892
O7    O     O_R   0.500000 0.560800 0.714670 -0.636954
O8    O     O_R   0.500000 0.439200 0.285330 -0.636953
Zn1   Zn    Zn3+2 0.500000 0.581210 0.500000 0.914240
Zn2   Zn    Zn3+2 0.500000 0.418790 0.500000 0.914241
C41   C     C_3   0.590385 0.692117 0.721829 -0.387171
C42   C     C_3   0.665340 0.719464 0.717310 -0.401479
C43   C     C_3   0.715332 0.674426 0.818062 -0.877139
H21   H     H_    0.701209 0.677667 0.936843 0.263844
H22   H     H_    0.713965 0.617494 0.781705 0.264506
H23   H     H_    0.768961 0.694896 0.811074 0.250509
H24   H     H_    0.681663 0.717862 0.600096 0.224395
H25   H     H_    0.669160 0.775795 0.757009 0.218778
H26   H     H_    0.571539 0.702303 0.835254 0.183636
H27   H     H_    0.592134 0.634325 0.706187 0.267463
C44   C     C_3   0.409621 0.307883 0.278159 -0.387162
C45   C     C_3   0.334667 0.280530 0.282654 -0.401489
C46   C     C_3   0.284677 0.325567 0.181894 -0.877169
H28   H     H_    0.286044 0.382499 0.218245 0.264500
H29   H     H_    0.298802 0.322324 0.063116 0.263852
H30   H     H_    0.231048 0.305098 0.188879 0.250513
H31   H     H_    0.330852 0.224200 0.242947 0.218782
H32   H     H_    0.318337 0.282128 0.399863 0.224392
H33   H     H_    0.407867 0.365674 0.293813 0.267460
H34   H     H_    0.428474 0.297703 0.164737 0.183643
C47   C     C_3   0.409401 0.692213 0.278578 -0.387250
C48   C     C_3   0.334428 0.719458 0.284202 -0.400179
C49   C     C_3   0.284266 0.674466 0.183888 -0.878439
H35   H     H_    0.298023 0.677864 0.064882 0.264516
H36   H     H_    0.285878 0.617496 0.219966 0.264465
H37   H     H_    0.230631 0.694845 0.191739 0.249074
H38   H     H_    0.318444 0.717701 0.401663 0.224341
H39   H     H_    0.330388 0.775835 0.244836 0.218618
H40   H     H_    0.427924 0.702575 0.164943 0.183366
H41   H     H_    0.407846 0.634397 0.293887 0.267500
C50   C     C_3   0.590589 0.307788 0.721442 -0.387249
C51   C     C_3   0.665560 0.280532 0.715868 -0.400220
C52   C     C_3   0.715716 0.325524 0.816195 -0.878442
H42   H     H_    0.714119 0.382491 0.780091 0.264458
H43   H     H_    0.701941 0.322143 0.935191 0.264526
H44   H     H_    0.769350 0.305133 0.808392 0.249076
H45   H     H_    0.669589 0.224157 0.755255 0.218628
H46   H     H_    0.681559 0.282278 0.598418 0.224343
H47   H     H_    0.592154 0.365602 0.706111 0.267502
H48   H     H_    0.572051 0.297438 0.835068 0.183381

loop_
_geom_bond_atom_site_label_1
_geom_bond_atom_site_label_2
_ccdc_geom_bond_type
C15   C18   A    
C51   H46   S    
C11   C18   S    
C47   C48   S    
C24   H2    S    
C41   C42   S    
C49   H35   S    
C4    C8    A    
C2    O3    A    
C25   H3    S    
C49   H37   S    
C26   H4    S    
C46   H28   S    
C7    C11   A    
C44   H34   S    
C52   H43   S    
C28   H6    S    
C13   C18   A    
C29   H7    S    
C30   H8    S    
C35   C37   A    
C29   C32   A    
C3    C7    A    
C51   H45   S    
C37   H11   S    
C38   H12   S    
C4    N2    A    
C31   C40   S    
C50   H47   S    
C16   H20   S    
C32   C39   S    
O7    Zn1   S    
O4    Zn2   S    
C16   C17   A    
C23   C33   A    
C12   C17   S    
C35   H9    S    
C19   O5    A    
C9    H15   S    
C23   C27   A    
C10   H16   S    
O6    Zn2   S    
C25   C34   A    
N1    Zn1   S    
C46   H29   S    
C42   H25   S    
C21   C22   T    
C14   C17   A    
C45   H32   S    
C1    O1    A    
C41   H26   S    
C51   C52   S    
C2    O2    A    
C1    C34   S    
C3    N1    A    
C25   C29   A    
C14   H18   S    
C52   H44   S    
C42   C43   S    
C27   C31   A    
C28   C32   A    
C45   C46   S    
C47   H40   S    
O3    Zn1   S    
C24   C34   A    
C50   H48   S    
C43   H21   S    
C5    C9    A    
C9    C11   A    
C26   C33   A    
C44   C45   S    
C48   H39   S    
C8    C12   A    
C1    O4    A    
N2    Zn2   S    
C6    C50   S    
C43   H22   S    
C10   C12   A    
C2    C33   S    
O1    Zn1   S    
C26   C30   A    
C42   H24   S    
C20   O7    A    
C45   H31   S    
C7    H13   S    
C8    H14   S    
C41   H27   S    
C36   H10   S    
C46   H30   S    
C19   C21   S    
C15   H19   S    
C20   O6    A    
C36   C39   A    
C24   C28   A    
C20   C22   S    
C47   H41   S    
C6    C10   A    
C5    C47   S    
C49   H36   S    
C44   H33   S    
C52   H42   S    
C23   H1    S    
C6    N2    A    
C36   C38   A    
C35   C40   A    
C37   C39   A    
C38   C40   A    
C27   H5    S    
C30   C31   A    
C4    C44   S    
C48   H38   S    
O5    Zn1   S    
O2    Zn2   S    
C48   C49   S    
C3    C41   S    
C43   H23   S    
C13   H17   S    
C13   C16   A    
C50   C51   S    
C14   C15   A    
C19   O8    A    
O8    Zn2   S    
C5    N1    A    
