data_mof_unit_1506.cif
_audit_creation_date              2012-12-11T14:21:04-0500
_audit_creation_method            fapswitch 2.2
_symmetry_space_group_name_H-M    P1
_symmetry_Int_Tables_number       1
_space_group_crystal_system       triclinic
_cell_length_a                    21.973779
_cell_length_b                    7.207127
_cell_length_c                    14.933738
_cell_angle_alpha                 90.221697
_cell_angle_beta                  107.134166
_cell_angle_gamma                 90.064298
_cell_volume                      2260.03457947

loop_
_atom_site_label
_atom_site_type_symbol
_atom_type_description
_atom_site_fract_x
_atom_site_fract_y
_atom_site_fract_z
_atom_type_partial_charge
O1    O     O_R   0.584770 0.505770 0.002090 -0.513104
O2    O     O_R   0.415230 0.005770 0.997910 -0.512191
O3    O     O_R   0.467060 0.173340 0.861950 -0.533148
O4    O     O_R   0.532940 0.673340 0.138050 -0.535799
C1    C     C_R   0.455425 0.343781 0.825861 0.738403
C2    C     C_R   0.544686 0.844655 0.174047 0.738098
O5    O     O_R   0.587510 0.175890 0.993210 -0.557574
O6    O     O_R   0.412490 0.675890 0.006790 -0.560178
O7    O     O_R   0.536540 0.008150 0.130100 -0.537631
O8    O     O_R   0.463460 0.508150 0.869900 -0.538344
C3    C     C_R   0.612606 0.345233 0.995995 0.638162
C4    C     C_R   0.387401 0.845116 0.004005 0.635610
O9    O     O_3   0.483140 0.340040 0.044760 -0.370692
O10   O     O_3   0.516860 0.840040 0.955240 -0.368422
V1    V     V_3+5 0.503130 0.064190 0.991700 1.583030
V2    V     V_3+5 0.496870 0.564190 0.008300 1.573278
C5    C     C_2   0.214446 0.730581 0.004666 -0.029500
C6    C     C_2   0.785323 0.230419 0.994683 -0.028397
C7    C     C_2   0.178908 0.886515 0.990954 -0.196312
C8    C     C_2   0.821122 0.386280 0.009105 -0.203234
H1    H     H_    0.193433 0.600897 0.017822 0.166909
H2    H     H_    0.806098 0.100741 0.980878 0.168975
H3    H     H_    0.197533 0.015214 0.972461 0.196773
H4    H     H_    0.802719 0.514985 0.028182 0.197898
C9    C     C_2   0.280764 0.719359 0.997677 -0.224808
C10   C     C_2   0.718999 0.219387 0.001664 -0.216678
C11   C     C_2   0.322069 0.862929 0.012087 0.520047
C12   C     C_2   0.677973 0.363099 0.988032 0.514479
H5    H     H_    0.296513 0.583175 0.982511 0.120373
H6    H     H_    0.702995 0.083182 0.016129 0.122368
C13   C     C_R   0.926407 0.880891 0.724098 -0.303966
C14   C     C_R   0.073877 0.386201 0.275937 -0.305856
C15   C     C_R   0.572151 0.852388 0.275898 -0.123458
C16   C     C_R   0.428190 0.347170 0.723847 -0.119636
C17   C     C_R   0.935843 0.813066 0.570420 -0.231336
C18   C     C_R   0.063531 0.375752 0.432234 -0.231127
C19   C     C_R   0.963929 0.834096 0.666427 0.533495
C20   C     C_R   0.035519 0.379581 0.335650 0.531659
C21   C     C_R   0.860350 0.900255 0.686154 0.573864
C22   C     C_R   0.140365 0.383548 0.312683 0.576906
C23   C     C_R   0.830006 0.854841 0.590858 0.019173
C24   C     C_R   0.169592 0.357856 0.410056 0.018463
C25   C     C_R   0.869496 0.825067 0.532154 -0.035500
C26   C     C_R   0.130026 0.368007 0.469809 -0.035839
C27   C     C_R   0.762321 0.842582 0.551103 -0.147987
C28   C     C_R   0.236596 0.330232 0.450625 -0.146018
C29   C     C_R   0.735601 0.840633 0.451448 -0.009516
C30   C     C_R   0.264070 0.352180 0.549578 -0.008796
C31   C     C_R   0.777289 0.822978 0.395609 -0.097219
C32   C     C_R   0.222709 0.373196 0.605733 -0.097397
C33   C     C_R   0.842637 0.808804 0.435634 -0.091700
C34   C     C_R   0.157060 0.374043 0.566602 -0.091717
C35   C     C_R   0.720749 0.816608 0.606758 0.634794
C36   C     C_R   0.276285 0.267698 0.397249 0.634125
C37   C     C_R   0.655021 0.819229 0.567181 0.579140
C38   C     C_R   0.341910 0.257144 0.436323 0.575701
C39   C     C_R   0.628128 0.837285 0.470471 -0.187443
C40   C     C_R   0.370200 0.296688 0.531136 -0.186235
C41   C     C_R   0.667984 0.846232 0.411097 0.008858
C42   C     C_R   0.331706 0.342489 0.589484 0.009575
C43   C     C_R   0.561483 0.837711 0.432103 -0.057521
C44   C     C_R   0.436575 0.280602 0.569262 -0.057707
C45   C     C_R   0.533495 0.843158 0.335400 0.364368
C46   C     C_R   0.465435 0.302699 0.665126 0.368030
C47   C     C_R   0.638405 0.857858 0.313345 -0.201061
C48   C     C_R   0.362492 0.372045 0.686067 -0.200643
H7    H     H_    0.872571 0.788227 0.390255 0.142754
H8    H     H_    0.127162 0.384185 0.612659 0.141057
H9    H     H_    0.665329 0.870416 0.263903 0.104480
H10   H     H_    0.336773 0.409449 0.734712 0.104812
H11   H     H_    0.965920 0.784832 0.526018 0.171110
H12   H     H_    0.033193 0.379015 0.477804 0.170770
H13   H     H_    0.760845 0.809959 0.320474 0.112492
H14   H     H_    0.239281 0.380963 0.681021 0.110895
H15   H     H_    0.530833 0.830131 0.477082 0.210755
H16   H     H_    0.466139 0.244952 0.525091 0.208342
O11   O     O_R   0.036450 0.233070 0.130130 -0.539682
O12   O     O_R   0.963550 0.733070 0.869870 -0.539169
O13   O     O_R   0.912470 0.560570 0.006790 -0.539493
O14   O     O_R   0.087530 0.060570 0.993210 -0.539072
C49   C     C_R   0.887263 0.391751 0.003493 0.737126
C50   C     C_R   0.112739 0.891877 0.996507 0.736640
O15   O     O_R   0.032920 0.562940 0.138050 -0.536968
O16   O     O_R   0.967080 0.062940 0.861950 -0.535106
O17   O     O_R   0.084790 0.730500 0.002090 -0.539763
O18   O     O_R   0.915210 0.230500 0.997910 -0.539890
C51   C     C_R   0.045044 0.394749 0.174475 0.858782
C52   C     C_R   0.954993 0.893831 0.825541 0.855788
O19   O     O_3   0.016820 0.396170 0.955260 -0.388693
O20   O     O_3   0.983180 0.896170 0.044740 -0.390665
V3    V     V_3+5 0.996880 0.672090 0.008300 1.569609
V4    V     V_3+5 0.003120 0.172090 0.991700 1.570970
F1    F     F_    0.027901 0.813926 0.702827 -0.689373
F2    F     F_    0.971086 0.383574 0.300479 -0.690147
F3    F     F_    0.827878 0.978640 0.741115 -0.616815
F4    F     F_    0.175043 0.427276 0.253945 -0.614706
F5    F     F_    0.742451 0.763537 0.697665 -0.552812
F6    F     F_    0.252008 0.192381 0.310619 -0.554216
F7    F     F_    0.305637 0.032109 0.038232 -0.636938
F8    F     F_    0.694691 0.532304 0.962684 -0.640372
Cl1   Cl    Cl    0.449852 0.836494 0.290648 -0.500407
Cl2   Cl    Cl    0.548339 0.270468 0.710012 -0.514395
F9    F     F_    0.617357 0.795820 0.624006 -0.580131
F10   F     F_    0.377803 0.198697 0.381514 -0.576432

loop_
_geom_bond_atom_site_label_1
_geom_bond_atom_site_label_2
_ccdc_geom_bond_type
C40   C44   A    
O15   C51   A    
O11   V4    S    
O4    V2    S    
C6    C10   S    
C45   Cl1   S    
O2    C4    A    
C16   C48   A    
C2    O7    A    
O17   V3    S    
C15   C47   A    
C29   C31   A    
C43   H15   S    
C46   Cl2   S    
C11   F7    S    
C17   C19   A    
C32   H14   S    
C39   C41   A    
C40   C42   A    
C37   F9    S    
C24   C28   A    
C27   C29   A    
C43   C45   A    
C44   C46   A    
C8    H4    S    
C38   C40   A    
C31   C33   A    
O1    C3    A    
C32   C34   A    
C42   C48   A    
C14   C20   A    
C7    C50   S    
C17   C25   A    
O13   V3    S    
C49   O18   A    
C34   H8    S    
C15   C45   A    
C26   C34   A    
C30   C32   A    
C27   C35   A    
O6    V2    S    
C8    C49   S    
C23   C25   A    
C20   F2    S    
C24   C26   A    
C22   F4    S    
C30   C42   A    
C28   C30   A    
C35   C37   A    
C9    H5    S    
C36   C38   A    
C4    C11   S    
C38   F10   S    
C21   C23   A    
O13   C49   A    
C35   F5    S    
C14   C51   S    
C5    H1    S    
C13   C19   A    
O14   V4    S    
C7    H3    S    
O5    C3    A    
O6    C4    A    
C1    C16   S    
C28   C36   A    
C16   C46   A    
C19   F1    S    
O1    V2    S    
C33   H7    S    
O19   V4    S    
O2    V1    S    
C21   F3    S    
O14   C50   A    
C10   H6    S    
C37   C39   A    
C31   H13   S    
C18   C26   A    
O4    C2    A    
O3    V1    S    
O12   C52   A    
C13   C52   S    
C44   H16   S    
C6    H2    S    
O16   C52   A    
C22   C24   A    
O3    C1    A    
C39   C43   A    
O12   V3    S    
C9    C11   D    
C50   O17   A    
O15   V3    S    
C10   C12   D    
C2    C15   S    
C5    C9    S    
C18   C20   A    
O7    V1    S    
C1    O8    A    
C17   H11   S    
O8    V2    S    
C41   C47   A    
C12   F8    S    
O20   V3    S    
C48   H10   S    
C3    C12   S    
C25   C33   A    
C47   H9    S    
O5    V1    S    
C5    C7    D    
C13   C21   A    
C6    C8    D    
C14   C22   A    
C29   C41   A    
O11   C51   A    
O9    V2    S    
C23   C27   A    
O10   V1    S    
C36   F6    S    
O18   V4    S    
O16   V4    S    
C18   H12   S    
