data_mof_unit_1740.cif
_audit_creation_date              2013-03-05T15:43:42-0500
_audit_creation_method            fapswitch 2.2
_symmetry_space_group_name_H-M    P1
_symmetry_Int_Tables_number       1
_space_group_crystal_system       triclinic
_cell_length_a                    14.982968
_cell_length_b                    10.72015
_cell_length_c                    10.120141
_cell_angle_alpha                 89.74178
_cell_angle_beta                  90.367699
_cell_angle_gamma                 90.645521
_cell_volume                      1625.34103312

loop_
_atom_site_label
_atom_site_type_symbol
_atom_site_description
_atom_site_fract_x
_atom_site_fract_y
_atom_site_fract_z
_atom_type_partial_charge
O1    O     O_R   0.499990 0.319060 0.613040 -0.510978
O2    O     O_R   0.500010 0.319100 0.386900 -0.642508
C1    C     C_R   0.493067 0.263500 0.500337 0.905521
O3    O     O_R   0.367830 0.499950 0.613080 -0.591934
O4    O     O_R   0.367860 0.499990 0.386940 -0.621323
C2    C     C_R   0.327701 0.499966 0.499647 0.892206
Zn1   Zn    Zn3+2 0.499980 0.499970 0.650990 1.148000
Zn2   Zn    Zn3+2 0.500020 0.500030 0.349010 1.086178
O5    O     O_R   0.499990 0.680900 0.613100 -0.570203
O6    O     O_R   0.500010 0.680940 0.386960 -0.582242
O7    O     O_R   0.632140 0.500010 0.613060 -0.610722
O8    O     O_R   0.632170 0.500050 0.386920 -0.533458
C3    C     C_R   0.501584 0.737236 0.498889 0.831883
C4    C     C_R   0.672749 0.500230 0.500500 0.897401
C5    C     C_R   0.814557 0.597435 0.569559 -0.201391
C6    C     C_R   0.768769 0.501675 0.502481 -0.182462
C7    C     C_R   0.813878 0.402539 0.444714 0.404737
C8    C     C_R   0.906333 0.393636 0.464751 -0.075278
C9    C     C_R   0.953939 0.501811 0.509382 0.001770
C10   C     C_R   0.907740 0.608266 0.554081 0.052642
C11   C     C_R   0.953384 0.282046 0.441954 0.430484
C12   C     C_R   0.045401 0.282787 0.448305 -0.140719
C13   C     C_R   0.093271 0.391875 0.477201 -0.035841
C14   C     C_R   0.047614 0.502921 0.508846 0.038934
C15   C     C_R   0.095764 0.614170 0.539544 0.038832
C16   C     C_R   0.049561 0.719999 0.586826 -0.073485
C17   C     C_R   0.955534 0.719843 0.585434 -0.091594
C18   C     C_R   0.186200 0.390750 0.478854 0.359935
C19   C     C_R   0.232487 0.502196 0.499571 -0.160510
C20   C     C_R   0.189064 0.615500 0.519329 -0.184574
H1    H     H_    0.078876 0.195641 0.430509 0.257281
C21   C     C_2   0.470719 0.935045 0.397816 0.341151
C22   C     C_2   0.513226 0.869073 0.492423 0.171750
C23   C     C_2   0.483045 0.067467 0.393523 -0.199857
C24   C     C_2   0.467532 0.135017 0.501013 0.290235
H2    H     H_    0.510867 0.107849 0.303870 0.204019
C25   C     C_2   0.537301 0.586271 0.927437 0.446884
N1    N     N_2   0.500970 0.501330 0.852150 -0.017725
C26   C     C_2   0.552990 0.568399 0.073126 0.423424
N2    N     N_2   0.500990 0.501360 0.147810 -0.219315
C27   C     C_2   0.764782 0.678004 0.662338 0.503433
H3    H     H_    0.701607 0.717774 0.632821 0.120068
O9    O     O_2   0.792723 0.695872 0.774377 -0.438384
Cl1   Cl    Cl    0.598015 0.934083 0.595246 -0.475375
Cl2   Cl    Cl    0.408623 0.076225 0.640435 -0.387102
Cl3   Cl    Cl    0.566914 0.733168 0.863277 -0.380702
Cl4   Cl    Cl    0.514068 0.347072 0.902742 -0.434220
Cl5   Cl    Cl    0.645679 0.645002 0.144757 -0.414710
C28   C     C_2   0.410205 0.480477 0.108087 0.601313
H4    H     H_    0.376332 0.395571 0.139515 0.109394
O10   O     O_2   0.367874 0.560066 0.048561 -0.544631
Cl6   Cl    Cl    0.752858 0.295709 0.343795 -0.435053
Cl7   Cl    Cl    0.903917 0.132560 0.424906 -0.439843
Cl8   Cl    Cl    0.246475 0.251641 0.449501 -0.528094
C29   C     C_2   0.241455 0.733067 0.500305 0.484875
H5    H     H_    0.307038 0.744152 0.544999 0.059252
O11   O     O_2   0.213100 0.815909 0.428816 -0.433510
C30   C     C_2   0.099087 0.824900 0.651041 0.597767
H6    H     H_    0.149340 0.804721 0.725618 0.060889
O12   O     O_2   0.088038 0.932896 0.616191 -0.450302
C31   C     C_2   0.907443 0.839538 0.602174 0.613411
H7    H     H_    0.857017 0.866127 0.530224 0.092696
O13   O     O_2   0.919659 0.904861 0.699321 -0.437453
Cl9   Cl    Cl    0.396287 0.871786 0.278673 -0.420862

loop_
_geom_bond_atom_site_label_1
_geom_bond_atom_site_label_2
_geom_bond_distance
_ccdc_geom_bond_type
O4    Zn2   2.019425 S    
C11   Cl7   1.766694 S    
C29   H5    1.084627 S    
C3    C22   1.423347 S    
C25   N1    1.302204 D    
C10   C17   1.423153 A    
C8    C11   1.415918 A    
Zn2   N2    2.036302 S    
C27   H3    1.082258 S    
C27   O9    1.221316 D    
C23   H2    1.087017 S    
C9    C10   1.418674 A    
C1    C24   1.425338 S    
Zn2   O8    2.014404 S    
C21   C22   1.348594 D    
C31   O13   1.221254 D    
C7    C8    1.402975 A    
C16   C17   1.408761 A    
C25   C26   1.503275 S    
O1    Zn1   1.978744 S    
C11   C12   1.379702 A    
Zn1   O7    2.019422 S    
C16   C30   1.489692 S    
C21   Cl9   1.769317 S    
N1    Cl4   1.741744 S    
C19   C20   1.400099 A    
O3    Zn1   2.014407 S    
O4    C2    1.292995 A    
C7    Cl6   1.779178 S    
O3    C2    1.292463 A    
C18   C19   1.390685 A    
C15   C16   1.422016 A    
Zn1   N1    2.035842 S    
O8    C4    1.296885 A    
C9    C14   1.403491 A    
O2    C1    1.295362 A    
C29   O11   1.221206 D    
C31   H7    1.085445 S    
C23   C24   1.332628 D    
O7    C4    1.294852 A    
C4    C6    1.438597 S    
C30   H6    1.085463 S    
C6    C7    1.398167 A    
C12   H1    1.081663 S    
C13   C14   1.418531 A    
C30   O12   1.221487 D    
C5    C6    1.403463 A    
C24   Cl2   1.778355 S    
C15   C20   1.414007 A    
C2    C19   1.427050 S    
C14   C15   1.421388 A    
C5    C27   1.488150 S    
C5    C10   1.409358 A    
C28   H4    1.084555 S    
C20   C29   1.489684 S    
C26   N2    1.297995 D    
Zn1   O5    1.975441 S    
C18   Cl8   1.779182 S    
C12   C13   1.396073 A    
C8    C9    1.428116 A    
O5    C3    1.301914 A    
C17   C31   1.489540 S    
C28   O10   1.223020 D    
C25   Cl3   1.754156 S    
C13   C18   1.392543 A    
C22   Cl1   1.775386 S    
Zn2   O6    1.978743 S    
O2    Zn2   1.975439 S    
N2    C28   1.431389 S    
C26   Cl5   1.759340 S    
O1    C1    1.292136 A    
O6    C3    1.285834 A    
C21   C23   1.429980 S    
