data_mof_unit_4965.cif
_audit_creation_date              2013-03-05T15:49:18-0500
_audit_creation_method            fapswitch 2.2
_symmetry_space_group_name_H-M    P1
_symmetry_Int_Tables_number       1
_space_group_crystal_system       triclinic
_cell_length_a                    10.63715
_cell_length_b                    12.078437
_cell_length_c                    12.829368
_cell_angle_alpha                 95.083681
_cell_angle_beta                  91.772893
_cell_angle_gamma                 82.850559
_cell_volume                      1628.73915735

loop_
_atom_site_label
_atom_site_type_symbol
_atom_site_description
_atom_site_fract_x
_atom_site_fract_y
_atom_site_fract_z
_atom_type_partial_charge
O1    O     O_R   0.506170 0.421690 0.658830 -0.578159
O2    O     O_R   0.491330 0.609320 0.646410 -0.541776
C1    C     C_R   0.496795 0.523984 0.700750 0.969966
O3    O     O_R   0.690660 0.406170 0.506210 -0.555073
O4    O     O_R   0.675810 0.593790 0.493790 -0.593237
C2    C     C_R   0.740275 0.497394 0.506200 0.924136
Zn1   Zn    Zn3+2 0.509910 0.374720 0.508290 1.116569
Zn2   Zn    Zn3+2 0.490090 0.625280 0.491710 1.137025
O5    O     O_R   0.508670 0.390680 0.353590 -0.587420
O6    O     O_R   0.493830 0.578310 0.341170 -0.616197
O7    O     O_R   0.324190 0.406210 0.506210 -0.618675
O8    O     O_R   0.309340 0.593830 0.493790 -0.532272
C3    C     C_R   0.501236 0.476652 0.299560 0.972015
C4    C     C_R   0.260056 0.503444 0.498846 1.002945
C5    C     C_R   0.896906 0.487377 0.700916 0.101112
C6    C     C_R   0.954557 0.532443 0.792526 0.584758
C7    C     C_R   0.065385 0.583380 0.787090 0.098501
C8    C     C_R   0.122657 0.580721 0.689494 0.472069
C9    C     C_R   0.064973 0.534828 0.596954 -0.137359
C10   C     C_R   0.943577 0.503831 0.601694 -0.178698
C11   C     C_R   0.875112 0.487384 0.506376 -0.119528
C12   C     C_R   0.933032 0.478961 0.408781 0.214230
C13   C     C_R   0.061870 0.486382 0.405826 0.223115
C14   C     C_R   0.126211 0.513979 0.499989 -0.135884
C15   C     C_R   0.497138 0.461630 0.187674 -0.096516
C16   C     C_R   0.492936 0.542319 0.813285 -0.150086
C17   C     C_R   0.568921 0.629338 0.975917 0.279660
C18   C     C_R   0.548219 0.630626 0.868358 0.235715
C19   C     C_R   0.444248 0.461721 0.865974 -0.128310
C20   C     C_R   0.456701 0.462749 0.973661 0.013081
C21   C     C_R   0.526063 0.543800 0.028042 -0.018822
C22   C     C_R   0.547503 0.540181 0.134360 -0.057868
C23   C     C_R   0.427123 0.382817 0.135684 -0.108039
C24   C     C_R   0.405528 0.382447 0.028215 0.336250
H1    H     H_    0.599251 0.601546 0.177883 0.207840
H2    H     H_    0.381004 0.327656 0.179515 0.246121
H3    H     H_    0.400915 0.395583 0.821442 0.207161
N1    N     N_R   0.523130 0.207800 0.519340 -0.219717
N2    N     N_R   0.476870 0.792180 0.480660 -0.212716
C25   C     C_R   0.398826 0.953942 0.389294 -0.174134
C26   C     C_R   0.401369 0.839824 0.404135 0.305648
C27   C     C_R   0.547703 0.857364 0.545789 0.786321
C28   C     C_R   0.539748 0.974769 0.538384 -0.189791
C29   C     C_R   0.468032 0.023101 0.456662 -0.144953
C30   C     C_R   0.465280 0.139895 0.445825 0.362669
C31   C     C_R   0.586252 0.161367 0.602569 0.740480
C32   C     C_R   0.599545 0.045259 0.611325 -0.209774
H4    H     H_    0.338681 0.988234 0.327397 0.247601
H5    H     H_    0.652360 0.011666 0.677396 0.257687
N3    N     N_R   0.860837 0.463736 0.313067 0.211036
O9    O     O_R   0.867180 0.529670 0.239010 -0.255987
O10   O     O_R   0.795560 0.379416 0.296945 -0.339322
N4    N     N_R   0.325767 0.305144 0.977756 0.223229
O11   O     O_R   0.334253 0.203419 0.005582 -0.243248
O12   O     O_R   0.229355 0.341544 0.919931 -0.320013
N5    N     N_R   0.588430 0.719080 0.815632 0.256298
O13   O     O_R   0.708701 0.727854 0.810587 -0.285322
O14   O     O_R   0.505846 0.803918 0.796131 -0.241589
N6    N     N_R   0.404870 0.186095 0.355966 0.212632
O15   O     O_R   0.452660 0.153975 0.264541 -0.335466
O16   O     O_R   0.287855 0.231987 0.361555 -0.342140
F1    F     F_    0.634287 0.227208 0.680317 -0.562581
N7    N     N_R   0.321834 0.774882 0.339101 0.249752
O17   O     O_R   0.341290 0.760355 0.238939 -0.302422
O18   O     O_R   0.211422 0.761345 0.373213 -0.287069
F2    F     F_    0.628856 0.807956 0.615938 -0.594463
N8    N     N_R   0.817082 0.401509 0.709411 0.249967
O19   O     O_R   0.845081 0.306273 0.654415 -0.271579
O20   O     O_R   0.745830 0.404307 0.790384 -0.276899
F3    F     F_    0.905686 0.522009 0.887211 -0.510588
N9    N     N_R   0.124111 0.631056 0.880773 0.267479
O21   O     O_R   0.100132 0.601154 0.972386 -0.187808
O22   O     O_R   0.201836 0.705418 0.875557 -0.249924
F4    F     F_    0.231708 0.626922 0.685070 -0.620081
N10   N     N_R   0.127077 0.465281 0.307948 0.229855
O23   O     O_R   0.201734 0.534680 0.280617 -0.332629
O24   O     O_R   0.105515 0.380660 0.242646 -0.228706
N11   N     N_R   0.633321 0.714975 0.031360 0.221033
O25   O     O_R   0.584135 0.819294 0.033827 -0.243075
O26   O     O_R   0.747581 0.690269 0.068511 -0.228042

loop_
_geom_bond_atom_site_label_1
_geom_bond_atom_site_label_2
_geom_bond_distance
_ccdc_geom_bond_type
N7    O18   1.299970 A    
C9    C10   1.393052 A    
C28   C29   1.403601 A    
C17   N11   1.435603 S    
C18   N5    1.428881 S    
C32   H5    1.083294 S    
N4    O11   1.301302 A    
Zn1   O7    1.964588 S    
C31   F1    1.348135 S    
C20   C21   1.420000 A    
O7    C4    1.292234 A    
N11   O26   1.300960 A    
C5    C6    1.406698 A    
C23   H2    1.079632 S    
N5    O13   1.300853 A    
C25   H4    1.082749 S    
C8    C9    1.419943 A    
C4    C14   1.413965 S    
O5    C3    1.291806 A    
N1    C30   1.376058 A    
C6    C7    1.402289 A    
N3    O10   1.300757 A    
C13   C14   1.404688 A    
Zn2   N2    2.020530 S    
C12   N3    1.438130 S    
C15   C22   1.385371 A    
N6    O15   1.300701 A    
C8    F4    1.353150 S    
C11   C12   1.402576 A    
C3    C15   1.430801 S    
O3    Zn1   2.007094 S    
C23   C24   1.390452 A    
N2    C27   1.370351 A    
N4    O12   1.301501 A    
C5    C10   1.419458 A    
N6    O16   1.299402 A    
C20   C24   1.414986 A    
C17   C21   1.407480 A    
N8    O19   1.301385 A    
C22   H1    1.083208 S    
C6    F3    1.358030 S    
O3    C2    1.279600 A    
N9    O22   1.301415 A    
N11   O25   1.300850 A    
N3    O9    1.301112 A    
C2    C11   1.424238 S    
O1    C1    1.296408 A    
N10   O23   1.300480 A    
C19   C20   1.382916 A    
C21   C22   1.379572 A    
Zn2   O8    2.007091 S    
C5    N8    1.433000 S    
C7    C8    1.405392 A    
N10   O24   1.301482 A    
C16   C19   1.391629 A    
C25   C26   1.404924 A    
O8    C4    1.275931 A    
C7    N9    1.444571 S    
C27   C28   1.421480 A    
C26   N7    1.425720 S    
C29   C30   1.426343 A    
Zn1   O5    2.010455 S    
C31   C32   1.406027 A    
C30   N6    1.425561 S    
O1    Zn1   1.964292 S    
C1    C16   1.442178 S    
O2    Zn2   2.010456 S    
C13   N10   1.440860 S    
O6    C3    1.288879 A    
O4    Zn2   1.964588 S    
C16   C18   1.406971 A    
C9    C14   1.410338 A    
N9    O21   1.301405 A    
O4    C2    1.295590 A    
Zn1   N1    2.020769 S    
N5    O14   1.300798 A    
O2    C1    1.289069 A    
N1    C31   1.368777 A    
N7    O17   1.300906 A    
C25   C29   1.404440 A    
C10   C11   1.415313 A    
N2    C26   1.369785 A    
C24   N4    1.437625 S    
Zn2   O6    1.964293 S    
C19   H3    1.082358 S    
C17   C18   1.391777 A    
C27   F2    1.352827 S    
C12   C13   1.386371 A    
N8    O20   1.300336 A    
C28   C32   1.400706 A    
C15   C23   1.392463 A    
