data_mof_unit_435.cif
_audit_creation_date              2012-12-11T15:48:05-0500
_audit_creation_method            fapswitch 2.2
_symmetry_space_group_name_H-M    P1
_symmetry_Int_Tables_number       1
_space_group_crystal_system       triclinic
_cell_length_a                    6.925869
_cell_length_b                    17.601828
_cell_length_c                    19.45944
_cell_angle_alpha                 108.539315
_cell_angle_beta                  89.763312
_cell_angle_gamma                 90.527232
_cell_volume                      2249.05670507

loop_
_atom_site_label
_atom_site_type_symbol
_atom_type_description
_atom_site_fract_x
_atom_site_fract_y
_atom_site_fract_z
_atom_type_partial_charge
O1    O     O_R   0.494330 0.415710 0.413720 -0.545451
O2    O     O_R   0.819360 0.430070 0.560210 -0.543598
O3    O     O_R   0.994320 0.584290 0.586280 -0.540253
C1    C     C_R   0.650401 0.415247 0.582134 0.717974
O4    O     O_R   0.823740 0.406290 0.412670 -0.543537
O5    O     O_R   0.998730 0.560340 0.437690 -0.533226
C2    C     C_R   0.654586 0.383091 0.384685 0.685919
O6    O     O_R   0.489920 0.439660 0.562310 -0.539552
O7    O     O_3   0.662330 0.550570 0.508380 -0.365170
V1    V     V_3+5 0.935370 0.490620 0.498440 1.421109
O8    O     O_R   0.328720 0.569930 0.439790 -0.547789
C3    C     C_R   0.160450 0.582220 0.415835 0.722768
O9    O     O_R   0.324340 0.593710 0.587330 -0.540751
C4    C     C_R   0.155520 0.616614 0.615363 0.720225
V2    V     V_3+5 0.435940 0.509380 0.501560 1.422642
O10   O     O_3   0.159110 0.449430 0.491620 -0.373793
C5    C     C_R   0.300525 0.737023 0.709151 -0.115095
H1    H     H_    0.432370 0.730077 0.677705 0.144578
C6    C     C_R   0.287017 0.800655 0.774115 -0.144156
H2    H     H_    0.408962 0.841302 0.790468 0.169317
C7    C     C_R   0.118464 0.812463 0.816973 -0.135084
C8    C     C_R   0.962759 0.757518 0.792857 0.382782
C9    C     C_R   0.976473 0.695046 0.727089 -0.180478
H3    H     H_    0.855642 0.653869 0.709950 0.154492
C10   C     C_R   0.144514 0.683995 0.684515 -0.119909
C11   C     C_R   0.007552 0.610512 0.307141 0.113438
C12   C     C_R   0.151514 0.626771 0.362291 -0.100611
C13   C     C_R   0.292658 0.685639 0.366170 -0.170917
C14   C     C_R   0.292256 0.731503 0.318782 -0.059452
C15   C     C_R   0.137697 0.722075 0.269559 -0.006922
C16   C     C_R   0.990262 0.664015 0.265630 0.136547
C17   C     C_R   0.440737 0.788038 0.320906 0.347497
C18   C     C_R   0.435677 0.834611 0.273950 0.333779
C19   C     C_R   0.280683 0.826151 0.225058 -0.057563
C20   C     C_R   0.130228 0.770830 0.223927 0.024838
C21   C     C_R   0.971105 0.764461 0.177177 0.174063
C22   C     C_R   0.820523 0.711305 0.177174 -0.153386
C23   C     C_R   0.828836 0.662358 0.220871 -0.151443
C24   C     C_R   0.271455 0.872062 0.177384 -0.125695
C25   C     C_R   0.112988 0.865600 0.130890 -0.102204
C26   C     C_R   0.962336 0.812287 0.131848 -0.143443
H4    H     H_    0.403651 0.695241 0.407054 0.188152
H5    H     H_    0.385540 0.914199 0.176688 0.176451
H6    H     H_    0.839046 0.807070 0.096402 0.135283
H7    H     H_    0.694145 0.708014 0.143617 0.119017
H8    H     H_    0.701760 0.626579 0.220952 0.112287
C27   C     C_R   0.784229 0.181692 0.866306 -0.221738
C28   C     C_R   0.622182 0.133475 0.868018 -0.080509
C29   C     C_R   0.464969 0.132030 0.821845 -0.209933
C30   C     C_R   0.469016 0.177495 0.774195 0.086437
C31   C     C_R   0.630503 0.226701 0.773666 0.056494
C32   C     C_R   0.788220 0.229108 0.820152 0.093443
C33   C     C_R   0.314317 0.174631 0.727006 -0.171250
C34   C     C_R   0.317997 0.221052 0.680419 -0.167704
C35   C     C_R   0.476523 0.271173 0.680084 0.088193
C36   C     C_R   0.634234 0.273589 0.726574 0.055603
C37   C     C_R   0.795733 0.322786 0.726035 0.091259
C38   C     C_R   0.950403 0.325666 0.773238 -0.180415
C39   C     C_R   0.946715 0.279248 0.819831 -0.187092
C40   C     C_R   0.480564 0.318548 0.633899 -0.207208
C41   C     C_R   0.642641 0.366736 0.632157 -0.080707
C42   C     C_R   0.799819 0.368219 0.678354 -0.205698
H9    H     H_    0.905525 0.183468 0.901854 0.123872
H10   H     H_    0.340070 0.094584 0.822316 0.122983
H11   H     H_    0.189526 0.136861 0.726483 0.140662
H12   H     H_    0.196042 0.218101 0.644929 0.142855
H13   H     H_    0.359297 0.316747 0.598334 0.130153
H14   H     H_    0.924719 0.405658 0.677868 0.124660
H15   H     H_    0.075205 0.363429 0.773754 0.137121
H16   H     H_    0.068667 0.282199 0.855321 0.134116
C43   C     C_R   0.810200 0.272992 0.284316 -0.155142
H17   H     H_    0.949994 0.289691 0.309616 0.123834
C44   C     C_R   0.799431 0.209369 0.219237 -0.135337
H18   H     H_    0.931321 0.178841 0.196561 0.120603
C45   C     C_R   0.621109 0.185295 0.184204 -0.040086
C46   C     C_R   0.453873 0.226729 0.216063 -0.145012
H19   H     H_    0.314071 0.210022 0.190778 0.115919
C47   C     C_R   0.464773 0.290582 0.281001 -0.144982
H20   H     H_    0.332969 0.321251 0.303599 0.116078
C48   C     C_R   0.643133 0.314632 0.316024 -0.041235
O11   O     O_R   0.774940 0.060470 0.937800 -0.543848
O12   O     O_R   0.440880 0.093730 0.087350 -0.548397
O13   O     O_R   0.266130 0.939630 0.062280 -0.542678
C49   C     C_R   0.609935 0.116954 0.115413 0.683386
O14   O     O_R   0.445480 0.069960 0.939820 -0.549021
O15   O     O_R   0.270770 0.915690 0.913690 -0.537958
C50   C     C_R   0.614452 0.084878 0.917972 0.700676
O16   O     O_R   0.770300 0.084410 0.086380 -0.545922
O17   O     O_3   0.602600 0.949510 0.991670 -0.342659
V3    V     V_3+5 0.329470 0.009370 0.001550 1.441325
O18   O     O_R   0.940760 0.906160 0.912560 -0.507489
C51   C     C_R   0.109348 0.881975 0.885257 0.743031
O19   O     O_R   0.936150 0.929930 0.060100 -0.532354
C52   C     C_R   0.104454 0.915041 0.081851 0.721086
V4    V     V_3+5 0.828930 0.990450 0.998310 1.504873
O20   O     O_3   0.105670 0.050490 0.008320 -0.385842
Cl1   Cl    Cl    0.750030 0.760571 0.843764 -0.677384
C53   C     C_3   0.890318 0.532160 0.287693 -0.355731
C54   C     C_3   0.020232 0.458517 0.262005 -0.769901
H21   H     H_    0.122532 0.464640 0.219894 0.224145
H22   H     H_    0.102878 0.449409 0.307359 0.213944
H23   H     H_    0.929993 0.404170 0.237810 0.218422
H24   H     H_    0.798391 0.529618 0.333630 0.198072
H25   H     H_    0.788986 0.525028 0.242572 0.167001
Cl2   Cl    Cl    0.637017 0.801100 0.381865 -0.582705
Cl3   Cl    Cl    0.623831 0.904927 0.278489 -0.587994

loop_
_geom_bond_atom_site_label_1
_geom_bond_atom_site_label_2
_ccdc_geom_bond_type
C35   C36   A    
C25   C26   A    
O19   C52   A    
C44   H18   S    
V4    O20   S    
C1    O6    A    
C37   C42   A    
C33   C34   A    
C11   C12   A    
C22   C23   A    
C15   C20   A    
C7    C8    A    
C13   C14   A    
C6    C7    A    
C46   C47   A    
C31   C36   A    
C14   C17   A    
C27   H9    S    
C15   C16   A    
O11   V4    S    
C47   C48   A    
C45   C49   S    
C53   H24   S    
C36   C37   A    
C19   C20   A    
O8    V2    S    
C27   C28   A    
C40   H13   S    
C9    H3    S    
O1    V2    S    
C33   H11   S    
O7    V1    S    
O16   V4    S    
C11   C16   A    
O19   V4    S    
C29   H10   S    
O9    C4    A    
C44   C45   A    
C21   C26   A    
C43   C48   A    
C5    H1    S    
O14   C50   A    
C30   C33   A    
C3    C12   S    
C31   C32   A    
C46   H19   S    
O15   V3    S    
C24   C25   A    
O4    C2    A    
C47   H20   S    
C24   H5    S    
C38   C39   A    
O13   C52   A    
C1    C41   S    
C19   C24   A    
C40   C41   A    
C20   C21   A    
O17   V4    S    
O2    C1    A    
C45   C46   A    
C14   C15   A    
C32   C39   A    
C54   H21   S    
O14   V3    S    
C30   C31   A    
C28   C50   S    
O11   C50   A    
O3    C4    A    
C11   C53   S    
C28   C29   A    
C54   H22   S    
C53   C54   S    
O6    V2    S    
O12   C49   A    
C17   Cl2   S    
O9    V2    S    
C26   H6    S    
C22   H7    S    
O2    V1    S    
O18   C51   A    
C43   C44   A    
O13   V3    S    
C34   C35   A    
C21   C22   A    
O1    C2    A    
C18   Cl3   S    
C49   O16   A    
C25   C52   S    
O5    V1    S    
O8    C3    A    
C38   H15   S    
V3    O20   S    
C27   C32   A    
C34   H12   S    
O12   V3    S    
C16   C23   A    
C42   H14   S    
C5    C10   A    
C17   C18   A    
C6    H2    S    
O7    V2    S    
C43   H17   S    
O3    V1    S    
V1    O10   S    
O5    C3    A    
C37   C38   A    
C53   H25   S    
C13   H4    S    
C5    C6    A    
C18   C19   A    
C9    C10   A    
C4    C10   S    
C41   C42   A    
C23   H8    S    
C39   H16   S    
O18   V4    S    
O4    V1    S    
C54   H23   S    
C29   C30   A    
C12   C13   A    
C8    Cl1   S    
C8    C9    A    
O15   C51   A    
O17   V3    S    
C35   C40   A    
V2    O10   S    
C2    C48   S    
C7    C51   S    
