data_mof_unit_1138.cif
_audit_creation_date              2013-03-05T16:43:28-0500
_audit_creation_method            fapswitch 2.2
_symmetry_space_group_name_H-M    P1
_symmetry_Int_Tables_number       1
_space_group_crystal_system       triclinic
_cell_length_a                    16.461083
_cell_length_b                    17.042492
_cell_length_c                    17.714155
_cell_angle_alpha                 88.452369
_cell_angle_beta                  90.882613
_cell_angle_gamma                 94.083855
_cell_volume                      4954.61227335

loop_
_atom_site_label
_atom_site_type_symbol
_atom_site_description
_atom_site_fract_x
_atom_site_fract_y
_atom_site_fract_z
_atom_type_partial_charge
O1    O     O_R   0.432070 0.499990 0.608760 -0.595390
O2    O     O_R   0.567930 0.500010 0.391240 -0.590575
O3    O     O_R   0.567880 0.500000 0.608730 -0.577828
O4    O     O_R   0.432120 0.500000 0.391270 -0.541566
C1    C     C_R   0.500532 0.501583 0.644683 0.825036
C2    C     C_R   0.499500 0.500685 0.355267 0.840711
O5    O     O_R   0.424660 0.386070 0.500710 -0.544722
O6    O     O_R   0.575340 0.613930 0.499290 -0.557557
O7    O     O_R   0.560480 0.386080 0.500680 -0.546571
O8    O     O_R   0.439520 0.613920 0.499320 -0.578011
C3    C     C_R   0.489770 0.348819 0.501215 0.857257
C4    C     C_R   0.510254 0.651344 0.500104 0.851837
Cu1   Cu    Cu3+1 0.419580 0.500000 0.500020 0.968700
Cu2   Cu    Cu3+1 0.580420 0.500000 0.499980 0.962796
C5    C     C_R   0.483055 0.262813 0.505193 -0.205901
C6    C     C_R   0.516292 0.737278 0.506486 -0.188789
C7    C     C_R   0.540822 0.223387 0.547458 -0.370406
C8    C     C_R   0.452003 0.773062 0.539562 -0.400304
C9    C     C_R   0.533256 0.141724 0.556467 0.468660
C10   C     C_R   0.455897 0.854125 0.549247 0.468205
C11   C     C_R   0.469430 0.098040 0.517918 0.194222
C12   C     C_R   0.523019 0.901476 0.519932 0.199433
C13   C     C_R   0.411128 0.137786 0.476894 -0.332176
C14   C     C_R   0.587769 0.865600 0.488696 -0.340885
C15   C     C_R   0.417996 0.219761 0.469235 0.413547
C16   C     C_R   0.586301 0.783698 0.483587 0.426968
N1    N     N_2   0.462077 0.014691 0.518242 -0.184325
N2    N     N_2   0.528926 0.984747 0.521120 -0.187720
H1    H     H_    0.399170 0.737802 0.560133 0.185085
H2    H     H_    0.590529 0.256214 0.575829 0.209568
H3    H     H_    0.361438 0.104707 0.448659 0.183036
H4    H     H_    0.639499 0.901726 0.466987 0.179321
C17   C     C_R   0.425086 0.517435 0.153151 0.314476
C18   C     C_R   0.574661 0.531679 0.845811 0.298907
C19   C     C_R   0.427015 0.517487 0.232109 -0.274110
C20   C     C_R   0.573472 0.527985 0.766873 -0.294570
H5    H     H_    0.372422 0.529168 0.261926 0.211808
H6    H     H_    0.629198 0.542227 0.736201 0.183132
C21   C     C_R   0.498279 0.501608 0.272385 -0.163122
C22   C     C_R   0.501138 0.506955 0.727346 -0.151005
C23   C     C_R   0.568360 0.486116 0.233061 -0.281641
C24   C     C_R   0.428273 0.493386 0.766865 -0.294037
H7    H     H_    0.624155 0.474402 0.263241 0.172282
H8    H     H_    0.372337 0.476117 0.736838 0.151622
C25   C     C_R   0.567055 0.484032 0.154393 0.453919
C26   C     C_R   0.427019 0.500886 0.845324 0.444263
C27   C     C_R   0.495958 0.501851 0.114232 -0.115117
C28   C     C_R   0.500772 0.516351 0.884963 -0.110311
C29   C     C_1   0.497747 0.507813 0.033439 0.112467
C30   C     C_1   0.499497 0.512370 0.965830 0.121743
C31   C     C_R   0.172555 0.536916 0.441090 0.221216
C32   C     C_R   0.825702 0.440968 0.538749 0.232995
C33   C     C_R   0.259112 0.542672 0.445953 0.510282
C34   C     C_R   0.740287 0.446694 0.544450 0.521995
N3    N     N_R   0.298780 0.499980 0.500030 -0.236244
N4    N     N_R   0.701220 0.500020 0.499970 -0.242546
C35   C     C_R   0.254955 0.456618 0.553321 -0.150220
C36   C     C_R   0.745330 0.550443 0.452492 -0.182954
H9    H     H_    0.287489 0.421808 0.593935 0.165937
H10   H     H_    0.713384 0.591922 0.418111 0.189399
C37   C     C_R   0.168367 0.456238 0.555799 0.328427
C38   C     C_R   0.831368 0.548947 0.447551 0.330918
C39   C     C_R   0.126627 0.496327 0.498209 -0.123190
C40   C     C_R   0.872626 0.496416 0.494418 -0.138024
C41   C     C_1   0.036845 0.496300 0.497118 0.101236
C42   C     C_1   0.962411 0.496787 0.495389 0.094491
O9    O     O_3   0.304286 0.583308 0.390394 -0.594949
C43   C     C_3   0.298035 0.665191 0.396179 0.078758
H11   H     H_    0.310310 0.684657 0.455048 0.139842
H12   H     H_    0.236602 0.681944 0.378187 0.189613
C44   C     C_3   0.360254 0.708153 0.343616 -0.325272
H13   H     H_    0.422625 0.693120 0.360552 0.225924
H14   H     H_    0.348506 0.688532 0.284847 0.240873
C45   C     C_3   0.355644 0.797192 0.345475 -0.882889
H15   H     H_    0.294799 0.813716 0.325313 0.257969
H16   H     H_    0.402758 0.826438 0.308033 0.262588
H17   H     H_    0.366635 0.818379 0.403678 0.271029
O10   O     O_3   0.694632 0.391868 0.588177 -0.600031
C46   C     C_3   0.710788 0.402436 0.666264 0.121663
H18   H     H_    0.653895 0.419007 0.691808 0.171849
H19   H     H_    0.759312 0.449450 0.679538 0.136710
C47   C     C_3   0.732124 0.324684 0.704160 -0.372303
H20   H     H_    0.689769 0.276362 0.683221 0.213356
H21   H     H_    0.795029 0.311766 0.689813 0.255387
C48   C     C_3   0.726004 0.327233 0.789965 -0.878792
H22   H     H_    0.768162 0.375196 0.812254 0.289025
H23   H     H_    0.742780 0.270337 0.815587 0.250115
H24   H     H_    0.662708 0.336987 0.806423 0.258060
O11   O     O_3   0.122433 0.410618 0.608143 -0.589683
C49   C     C_3   0.153681 0.417326 0.682852 0.068763
H25   H     H_    0.103200 0.433299 0.719083 0.172421
H26   H     H_    0.203445 0.464584 0.690251 0.101980
C50   C     C_3   0.181200 0.337591 0.710908 -0.362729
H27   H     H_    0.128810 0.292810 0.707965 0.236185
H28   H     H_    0.229890 0.318851 0.674093 0.217330
C51   C     C_3   0.213174 0.341015 0.792105 -0.881172
H29   H     H_    0.268113 0.382391 0.795540 0.273320
H30   H     H_    0.230003 0.281724 0.811386 0.261587
H31   H     H_    0.165829 0.360374 0.830099 0.259091
O12   O     O_3   0.876508 0.598580 0.398131 -0.597898
C52   C     C_3   0.851107 0.586738 0.322141 0.075412
H32   H     H_    0.889085 0.629186 0.286579 0.179646
H33   H     H_    0.787075 0.601428 0.312076 0.127094
C53   C     C_3   0.863441 0.502919 0.296079 -0.411649
H34   H     H_    0.924811 0.485869 0.313809 0.216738
H35   H     H_    0.817469 0.460403 0.322773 0.204219
C54   C     C_3   0.854599 0.497324 0.210509 -0.861954
H36   H     H_    0.792888 0.512789 0.191815 0.290082
H37   H     H_    0.863423 0.436264 0.193672 0.249095
H38   H     H_    0.901217 0.537670 0.182043 0.258662
O13   O     O_3   0.392429 0.885992 0.585303 -0.593265
C55   C     C_3   0.414934 0.900670 0.661391 0.083163
H39   H     H_    0.381420 0.951103 0.679530 0.164892
H40   H     H_    0.481031 0.918282 0.669142 0.112200
C56   C     C_3   0.390900 0.829101 0.712594 -0.377090
H41   H     H_    0.324812 0.812285 0.705324 0.230333
H42   H     H_    0.425579 0.778538 0.696901 0.213969
C57   C     C_3   0.409101 0.846882 0.795356 -0.903297
H43   H     H_    0.474873 0.864358 0.803709 0.257237
H44   H     H_    0.393382 0.793556 0.830904 0.265578
H45   H     H_    0.372525 0.895061 0.813762 0.256979
O14   O     O_3   0.590143 0.105652 0.601242 -0.597490
C58   C     C_3   0.555575 0.082021 0.671747 0.075407
H46   H     H_    0.581739 0.026170 0.689998 0.161434
H47   H     H_    0.488066 0.069603 0.669429 0.119814
C59   C     C_3   0.578356 0.143657 0.731106 -0.377221
H48   H     H_    0.645745 0.151117 0.736865 0.229931
H49   H     H_    0.555106 0.200931 0.713012 0.217605
C60   C     C_3   0.542613 0.118954 0.807800 -0.901922
H50   H     H_    0.475054 0.112519 0.803913 0.255088
H51   H     H_    0.560747 0.164570 0.849611 0.260856
H52   H     H_    0.565708 0.062203 0.827717 0.255984
O15   O     O_3   0.360504 0.257671 0.426991 -0.586480
C61   C     C_3   0.385514 0.262636 0.350975 0.063737
H53   H     H_    0.380457 0.203020 0.326264 0.145451
H54   H     H_    0.449613 0.288304 0.346069 0.116741
C62   C     C_3   0.330517 0.315891 0.305963 -0.324353
H55   H     H_    0.265953 0.292709 0.311254 0.224807
H56   H     H_    0.336664 0.375925 0.329307 0.233489
C63   C     C_3   0.352973 0.320681 0.222603 -0.899094
H57   H     H_    0.417758 0.342441 0.215897 0.252931
H58   H     H_    0.314052 0.361870 0.191906 0.278054
H59   H     H_    0.343188 0.261806 0.197240 0.256969
O16   O     O_3   0.649569 0.750170 0.448848 -0.600039
C64   C     C_3   0.720403 0.755800 0.495427 0.044719
H60   H     H_    0.724835 0.698830 0.526722 0.171172
H61   H     H_    0.721295 0.802940 0.538115 0.126075
C65   C     C_3   0.794937 0.771901 0.445565 -0.329952
H62   H     H_    0.793822 0.727782 0.400550 0.245204
H63   H     H_    0.792842 0.831111 0.418011 0.213074
C66   C     C_3   0.873956 0.768660 0.491391 -0.840553
H64   H     H_    0.877426 0.814339 0.535107 0.241042
H65   H     H_    0.926748 0.779627 0.453327 0.267136
H66   H     H_    0.877496 0.709791 0.519242 0.268802
N5    N     N_R   0.350997 0.532881 0.113432 0.101868
O17   O     O_R   0.324759 0.488503 0.058301 -0.369606
O18   O     O_R   0.305323 0.586102 0.137158 -0.402186
N6    N     N_R   0.650952 0.550297 0.884667 0.128271
O19   O     O_R   0.653386 0.587144 0.948137 -0.339710
O20   O     O_R   0.719336 0.536551 0.853313 -0.381936
O21   O     O_3   0.637841 0.470288 0.117263 -0.587720
C67   C     C_3   0.634444 0.391115 0.094409 0.084063
H67   H     H_    0.675547 0.388662 0.045488 0.192397
H68   H     H_    0.572669 0.368970 0.074213 0.118991
C68   C     C_3   0.664354 0.337066 0.158042 -0.393579
H69   H     H_    0.725171 0.360458 0.178601 0.234303
H70   H     H_    0.621382 0.335100 0.205906 0.208205
C69   C     C_3   0.670500 0.253489 0.131004 -0.896538
H71   H     H_    0.609976 0.228545 0.111129 0.256602
H72   H     H_    0.691783 0.215784 0.178354 0.258573
H73   H     H_    0.714671 0.253209 0.084244 0.258685
O22   O     O_3   0.355322 0.485921 0.885077 -0.584647
C70   C     C_3   0.298775 0.542335 0.865603 0.083955
H74   H     H_    0.238735 0.519620 0.888065 0.188042
H75   H     H_    0.289833 0.549946 0.803521 0.102164
C71   C     C_3   0.322571 0.621958 0.901386 -0.331418
H76   H     H_    0.331236 0.613485 0.963262 0.282452
H77   H     H_    0.380869 0.647564 0.877419 0.196808
C72   C     C_3   0.257128 0.679792 0.886753 -0.895675
H78   H     H_    0.249374 0.691187 0.825102 0.249532
H79   H     H_    0.275425 0.736322 0.914091 0.263867
H80   H     H_    0.198153 0.655976 0.910669 0.269030
O23   O     O_3   0.133665 0.574383 0.381915 -0.602528
C73   C     C_3   0.107077 0.519261 0.326806 0.062226
H81   H     H_    0.057456 0.545315 0.293628 0.179061
H82   H     H_    0.080727 0.462433 0.351718 0.117802
C74   C     C_3   0.175753 0.504544 0.272622 -0.327063
H83   H     H_    0.203125 0.561890 0.250547 0.275316
H84   H     H_    0.223721 0.473167 0.303124 0.212428
C75   C     C_3   0.144099 0.454764 0.206676 -0.850832
H85   H     H_    0.117766 0.396578 0.227725 0.237578
H86   H     H_    0.194995 0.445243 0.168384 0.297099
H87   H     H_    0.096811 0.485142 0.174108 0.260403
O24   O     O_3   0.862449 0.381381 0.578017 -0.600160
C76   C     C_3   0.879359 0.321149 0.528022 0.072759
H88   H     H_    0.929295 0.288629 0.554007 0.181597
H89   H     H_    0.902089 0.344331 0.472174 0.121203
C77   C     C_3   0.804770 0.263024 0.516756 -0.343814
H90   H     H_    0.783090 0.239165 0.572381 0.236087
H91   H     H_    0.754777 0.293575 0.488490 0.231530
C78   C     C_3   0.825036 0.194695 0.468160 -0.906789
H92   H     H_    0.845480 0.216840 0.411522 0.250391
H93   H     H_    0.769915 0.153930 0.460993 0.272769
H94   H     H_    0.873763 0.161697 0.495637 0.257877

loop_
_geom_bond_atom_site_label_1
_geom_bond_atom_site_label_2
_geom_bond_distance
_ccdc_geom_bond_type
C36   C38   1.422407 A    
Cu2   N4    1.988477 S    
C39   C41   1.477698 S    
C9    O14   1.384450 S    
C50   H27   1.111713 S    
C76   H89   1.115370 S    
N5    O18   1.300778 A    
C23   H7    1.083720 S    
C78   H92   1.110935 S    
C33   N3    1.372638 A    
O13   C55   1.416375 S    
C65   C66   1.526178 S    
O23   C73   1.415931 S    
Cu1   N3    1.988479 S    
C61   C62   1.528001 S    
C53   H35   1.111624 S    
C64   H60   1.111357 S    
C58   H46   1.110634 S    
C27   C29   1.432640 S    
C48   H22   1.110794 S    
O5    C3    1.283803 A    
C62   H56   1.111238 S    
C68   H69   1.110654 S    
C45   H16   1.110291 S    
O1    C1    1.284598 A    
C19   H5    1.082569 S    
C65   H63   1.111534 S    
C67   H67   1.111099 S    
C31   O23   1.384830 S    
C43   C44   1.528970 S    
C69   H72   1.110423 S    
C58   H47   1.116684 S    
C36   H10   1.080272 S    
C56   H41   1.111517 S    
C67   C68   1.533920 S    
C51   H31   1.110850 S    
C73   H81   1.110194 S    
C24   C26   1.399741 A    
C66   H66   1.110880 S    
O4    Cu1   1.940601 S    
C37   C39   1.409682 A    
C25   O21   1.384200 S    
C57   H43   1.111002 S    
C53   H34   1.109376 S    
C74   C75   1.525684 S    
C38   C40   1.407511 A    
C75   H87   1.110957 S    
C17   C19   1.398572 A    
C3    C5    1.461925 S    
C71   C72   1.525773 S    
C4    C6    1.468121 S    
C32   C34   1.421650 A    
C43   H11   1.114006 S    
C56   H42   1.110672 S    
C45   H17   1.109571 S    
C51   H30   1.110288 S    
C59   H49   1.111086 S    
C54   H36   1.110902 S    
C63   H59   1.110713 S    
C77   H91   1.110533 S    
C77   H90   1.110003 S    
C22   C24   1.399935 A    
C15   O15   1.382806 S    
C67   H68   1.116209 S    
C72   H80   1.110825 S    
C70   H75   1.112622 S    
O24   C76   1.418785 S    
C11   N1    1.416856 S    
C66   H64   1.110785 S    
C68   H70   1.110831 S    
C12   N2    1.416255 S    
Cu1   Cu2   2.647612 S    
C72   H79   1.110299 S    
N6    O20   1.301669 A    
C7    H2    1.082766 S    
C78   H93   1.110629 S    
O2    C2    1.286229 A    
C24   H8    1.082639 S    
C16   O16   1.383235 S    
C55   H40   1.115274 S    
C55   H39   1.110970 S    
C64   H61   1.117252 S    
C37   O11   1.390989 S    
O21   C67   1.416228 S    
C34   N4    1.374506 A    
C25   C27   1.407597 A    
C11   C13   1.397322 A    
C6    C16   1.409147 A    
C50   H28   1.110627 S    
C62   C63   1.526379 S    
C26   C28   1.405187 A    
C45   H15   1.110743 S    
C48   H23   1.110391 S    
O9    C43   1.413148 S    
C52   H32   1.110912 S    
C20   C22   1.401273 A    
C31   C39   1.408948 A    
C63   H57   1.110899 S    
C21   C23   1.401360 A    
C32   C40   1.407446 A    
C46   H19   1.117371 S    
O10   C46   1.418389 S    
C58   C59   1.530044 S    
C61   H54   1.116813 S    
O6    Cu2   1.949093 S    
C59   C60   1.525637 S    
C70   H74   1.110975 S    
C72   H78   1.111056 S    
C31   C33   1.422653 A    
C57   H45   1.110821 S    
C13   H3    1.083496 S    
N6    O19   1.301227 A    
C19   C21   1.402630 A    
O7    Cu2   1.945586 S    
C14   H4    1.083830 S    
C75   H85   1.110878 S    
C44   C45   1.525985 S    
C10   O13   1.383643 S    
C49   H26   1.115923 S    
O6    C4    1.285655 A    
C56   C57   1.525932 S    
C51   H29   1.108415 S    
C77   C78   1.525365 S    
C32   O24   1.384702 S    
C8    H1    1.083396 S    
C65   H62   1.109735 S    
O7    C3    1.285639 A    
C53   C54   1.525433 S    
O3    Cu2   1.940603 S    
O8    C4    1.287210 A    
C38   O12   1.387272 S    
C18   N6    1.442219 S    
O4    C2    1.287096 A    
C71   H76   1.110028 S    
C10   C12   1.417650 A    
C47   H20   1.108434 S    
C52   C53   1.541016 S    
C47   H21   1.108542 S    
N3    C35   1.365672 A    
O15   C61   1.412729 S    
C17   C27   1.409152 A    
C54   H38   1.110833 S    
C12   C14   1.394734 A    
C46   H18   1.104187 S    
O1    Cu1   1.934023 S    
N5    O17   1.301034 A    
C64   C65   1.527453 S    
O22   C70   1.417553 S    
C49   C50   1.530689 S    
C44   H14   1.111935 S    
C60   H50   1.110940 S    
C48   H24   1.111245 S    
O2    Cu2   1.934024 S    
C5    C7    1.399330 A    
C69   H71   1.110957 S    
C75   H86   1.109567 S    
C9    C11   1.420698 A    
C26   O22   1.388119 S    
C6    C8    1.401953 A    
C14   C16   1.399659 A    
O16   C64   1.417126 S    
O3    C1    1.289318 A    
O8    Cu1   1.945582 S    
C46   C47   1.529971 S    
C70   C71   1.536126 S    
C17   N5    1.435609 S    
C35   C37   1.426231 A    
C61   H53   1.114299 S    
C63   H58   1.109775 S    
C78   H94   1.110832 S    
C50   C51   1.525155 S    
C47   C48   1.526848 S    
C62   H55   1.111608 S    
C68   C69   1.525558 S    
C73   H82   1.115273 S    
C73   C74   1.532639 S    
C60   H52   1.110966 S    
C20   H6    1.082634 S    
O14   C58   1.417017 S    
C44   H13   1.110661 S    
C41   C42   1.225792 T    
C49   H25   1.111125 S    
C54   H37   1.110204 S    
C59   H48   1.110951 S    
C28   C30   1.432669 S    
O12   C52   1.418737 S    
C7    C9    1.393494 A    
C18   C20   1.401211 A    
N4    C36   1.365254 A    
C8    C10   1.393536 A    
C66   H65   1.110339 S    
C33   O9    1.383301 S    
C57   H44   1.109061 S    
C74   H84   1.110303 S    
C35   H9    1.080144 S    
C76   H88   1.110934 S    
C76   C77   1.535745 S    
O5    Cu1   1.949093 S    
C13   C15   1.396673 A    
C18   C28   1.414054 A    
C5    C15   1.408295 A    
C52   H33   1.111237 S    
C29   C30   1.198726 T    
C1    C22   1.469454 S    
N1    N2    1.245300 D    
C43   H12   1.109953 S    
C23   C25   1.394732 A    
C2    C21   1.467698 S    
C74   H83   1.110473 S    
C69   H73   1.110886 S    
C60   H51   1.110537 S    
O11   C49   1.416992 S    
C55   C56   1.532802 S    
C40   C42   1.477364 S    
C71   H77   1.111078 S    
C34   O10   1.384429 S    
