data_mof_unit_3256.cif
_audit_creation_date              2012-12-10T17:42:10-0500
_audit_creation_method            fapswitch 2.2
_symmetry_space_group_name_H-M    P1
_symmetry_Int_Tables_number       1
_space_group_crystal_system       triclinic
_cell_length_a                    15.122859
_cell_length_b                    13.883476
_cell_length_c                    10.846318
_cell_angle_alpha                 89.814328
_cell_angle_beta                  82.282659
_cell_angle_gamma                 90.700736
_cell_volume                      2256.4473045

loop_
_atom_site_label
_atom_site_type_symbol
_atom_type_description
_atom_site_fract_x
_atom_site_fract_y
_atom_site_fract_z
_atom_type_partial_charge
C1    C     C_R   0.329020 0.499449 0.506893 0.809370
C2    C     C_3   0.591894 0.502277 0.909411 -0.382719
C3    C     C_R   0.830185 0.530407 0.387709 0.368891
C4    C     C_R   0.770373 0.501915 0.495108 -0.159581
C5    C     C_R   0.804932 0.473041 0.602626 -0.240129
C6    C     C_R   0.897104 0.472515 0.606504 0.069756
C7    C     C_R   0.956287 0.504384 0.502567 0.010882
C8    C     C_R   0.922990 0.535377 0.393719 -0.045217
C9    C     C_R   0.930637 0.440331 0.713348 -0.217162
C10   C     C_R   0.022768 0.437308 0.718266 0.328040
C11   C     C_R   0.083073 0.468256 0.613624 0.001721
C12   C     C_R   0.496064 0.499997 0.260598 0.837184
C13   C     C_R   0.049201 0.503429 0.506340 0.004107
C14   C     C_R   0.108431 0.537052 0.401965 0.065629
C15   C     C_R   0.074936 0.570975 0.295944 0.238338
C16   C     C_R   0.983899 0.569182 0.292222 -0.096126
C17   C     C_R   0.176270 0.465287 0.612033 -0.120312
C18   C     C_R   0.233337 0.498953 0.508428 -0.069248
C19   C     C_R   0.199966 0.535556 0.405463 -0.172120
C20   C     C_R   0.438182 0.792927 0.581589 0.394209
C21   C     C_R   0.437725 0.205104 0.580677 0.396595
C22   C     C_R   0.559631 0.796022 0.417935 0.354030
C23   C     C_R   0.561279 0.206266 0.419551 0.354530
C24   C     C_R   0.562607 0.898289 0.419892 -0.056547
C25   C     C_R   0.563168 0.103949 0.420288 -0.042586
C26   C     C_R   0.671840 0.500582 0.499663 0.871336
C27   C     C_R   0.500809 0.948483 0.503420 0.045316
C28   C     C_R   0.500815 0.051723 0.503273 0.043748
C29   C     C_R   0.437922 0.895751 0.585047 -0.046309
C30   C     C_R   0.437689 0.102356 0.584533 -0.047731
C31   C     C_R   0.625547 0.951937 0.339149 -0.119142
C32   C     C_R   0.625871 0.052177 0.339411 -0.116320
C33   C     C_R   0.375920 0.048464 0.667066 -0.111537
C34   C     C_R   0.376101 0.947681 0.667422 -0.109725
C35   C     C_R   0.496563 0.499783 0.740682 0.785380
C36   C     C_3   0.439553 0.585795 0.083553 -0.401032
C37   C     C_3   0.445899 0.407960 0.083455 -0.397399
C38   C     C_3   0.446305 0.590772 0.940269 0.132503
C39   C     C_3   0.449342 0.405006 0.940491 0.128035
C40   C     C_3   0.590101 0.504908 0.051220 -0.253899
C41   C     C_3   0.493422 0.499790 0.122723 -0.019874
C42   C     C_3   0.495619 0.499419 0.879088 -0.037778
Cu1   Cu    Cu3+1 0.499990 0.597420 0.500010 1.077093
Cu2   Cu    Cu3+1 0.499990 0.402580 0.500010 1.052207
H1    H     H_    0.464201 0.653862 0.121395 0.248364
H2    H     H_    0.477703 0.343226 0.117965 0.249538
H3    H     H_    0.205746 0.438733 0.690715 0.220001
H4    H     H_    0.246804 0.561197 0.327656 0.161940
H5    H     H_    0.962984 0.595397 0.207445 0.248244
H6    H     H_    0.676060 0.917851 0.274510 0.201677
H7    H     H_    0.676417 0.087664 0.274593 0.203426
H8    H     H_    0.326375 0.082925 0.732833 0.203995
H9    H     H_    0.326696 0.911687 0.733497 0.202845
H10   H     H_    0.368295 0.578227 0.124699 0.171015
H11   H     H_    0.375120 0.405960 0.128000 0.167779
H12   H     H_    0.377771 0.592963 0.913921 0.170356
H13   H     H_    0.379997 0.400192 0.917230 0.168521
H14   H     H_    0.622688 0.573556 0.073781 0.270014
H15   H     H_    0.628779 0.442373 0.077398 0.219842
H16   H     H_    0.629246 0.565874 0.865780 0.212284
H17   H     H_    0.629643 0.438681 0.870314 0.204534
H18   H     H_    0.759453 0.450043 0.683621 0.149689
H19   H     H_    0.884433 0.416572 0.792993 0.202904
N1    N     N_R   0.499930 0.743810 0.499950 -0.236508
N2    N     N_R   0.499930 0.256190 0.499950 -0.228354
O1    O     O_R   0.370250 0.582280 0.500040 -0.553378
O2    O     O_R   0.370250 0.417720 0.500040 -0.555045
O3    O     O_R   0.499970 0.582270 0.317700 -0.536419
O4    O     O_R   0.499970 0.417730 0.317700 -0.571049
O5    O     O_R   0.629730 0.582260 0.499980 -0.517208
O6    O     O_R   0.629730 0.417740 0.499980 -0.550196
O7    O     O_R   0.500000 0.582270 0.682320 -0.530982
O8    O     O_R   0.500000 0.417730 0.682320 -0.527254
S1    S     S_3+6 0.059630 0.394582 0.856861 0.050848
O9    O     O_2   0.114624 0.471855 0.908075 -0.211550
O10   O     O_2   0.982074 0.368435 0.953356 -0.220254
O11   O     O_3   0.123235 0.296964 0.825077 -0.483138
H20   H     H_    0.086041 0.252117 0.782442 0.352158
Br1   Br    Br    0.149764 0.619843 0.150812 -0.422217
Br2   Br    Br    0.346578 0.723634 0.688840 -0.439699
Br3   Br    Br    0.346510 0.271889 0.687551 -0.443748
Br4   Br    Br    0.634893 0.732212 0.290068 -0.355774
Br5   Br    Br    0.644164 0.273433 0.299246 -0.492207
Br6   Br    Br    0.505795 0.714531 0.888942 -0.429851
Br7   Br    Br    0.509367 0.284254 0.885010 -0.438270
S2    S     S_3+6 0.793217 0.547178 0.241167 0.022076
O12   O     O_2   0.813981 0.648063 0.194535 -0.226394
O13   O     O_2   0.839717 0.477696 0.148804 -0.249081
O14   O     O_3   0.684413 0.527521 0.252773 -0.550101
H21   H     H_    0.678948 0.457177 0.259246 0.360222

loop_
_geom_bond_atom_site_label_1
_geom_bond_atom_site_label_2
_ccdc_geom_bond_type
C12   O4    A    
Cu1   O7    S    
C27   C29   A    
C11   C13   A    
C24   C27   A    
C6    C9    A    
C36   C41   S    
C7    C8    A    
O11   H20   S    
C33   H8    S    
C12   O3    A    
C1    C18   S    
S1    O10   D    
C22   Br4   S    
C38   C42   S    
C5    C6    A    
S2    O13   D    
C15   C16   A    
C39   H13   S    
Cu2   O6    S    
C18   C19   A    
C35   C42   S    
C19   H4    S    
C35   O8    A    
Cu1   O3    S    
S1    O11   S    
C9    C10   A    
C2    H17   S    
C38   Br6   S    
C25   C32   A    
C8    C16   A    
C40   H15   S    
C13   C14   A    
C3    S2    S    
C26   O6    A    
Cu2   N2    S    
Cu1   N1    S    
C33   C34   A    
C39   C42   S    
C20   C29   A    
C15   Br1   S    
C40   H14   S    
S1    O9    D    
C20   Br2   S    
Cu2   O4    S    
C16   H5    S    
C3    C8    A    
S2    O12   D    
C29   C34   A    
C25   C28   A    
C1    O1    A    
C20   N1    A    
Cu1   Cu2   S    
C32   H7    S    
C12   C41   S    
C31   C32   A    
C17   C18   A    
C36   H1    S    
C23   Br5   S    
C40   C41   S    
C21   Br3   S    
C35   O7    A    
Cu1   O5    S    
C26   O5    A    
C22   C24   A    
C39   Br7   S    
C31   H6    S    
C3    C4    A    
C11   C17   A    
C30   C33   A    
C21   N2    A    
C9    H19   S    
C14   C19   A    
C17   H3    S    
C4    C5    A    
S2    O14   S    
C4    C26   S    
C6    C7    A    
C21   C30   A    
C23   N2    A    
C36   C38   S    
O14   H21   S    
C24   C31   A    
C37   C39   S    
C10   S1    S    
C2    C42   S    
Cu1   O1    S    
C28   C30   A    
C1    O2    A    
C5    H18   S    
C2    H16   S    
C23   C25   A    
C37   C41   S    
Cu2   O8    S    
C36   H10   S    
C10   C11   A    
C22   N1    A    
C37   H11   S    
C2    C40   S    
C7    C13   A    
C38   H12   S    
C34   H9    S    
C27   C28   A    
C14   C15   A    
Cu2   O2    S    
C37   H2    S    
