data_mof_unit_3416.cif
_audit_creation_date              2012-12-10T21:42:37-0500
_audit_creation_method            fapswitch 2.2
_symmetry_space_group_name_H-M    P1
_symmetry_Int_Tables_number       1
_space_group_crystal_system       triclinic
_cell_length_a                    10.6813
_cell_length_b                    16.087207
_cell_length_c                    16.913287
_cell_angle_alpha                 87.928426
_cell_angle_beta                  89.529478
_cell_angle_gamma                 92.783712
_cell_volume                      2900.77754019

loop_
_atom_site_label
_atom_site_type_symbol
_atom_type_description
_atom_site_fract_x
_atom_site_fract_y
_atom_site_fract_z
_atom_type_partial_charge
C1    C     C_R   0.497715 0.489008 0.652827 0.952130
C2    C     C_R   0.452379 0.442529 0.219459 0.401572
C3    C     C_R   0.401887 0.535242 0.858776 -0.300985
C4    C     C_R   0.420570 0.447869 0.140575 -0.257796
C5    C     C_R   0.457750 0.471312 0.902239 0.202240
C6    C     C_R   0.425579 0.524998 0.099365 0.198733
C7    C     C_R   0.523002 0.411751 0.863616 -0.304806
C8    C     C_R   0.448013 0.597927 0.139560 -0.328076
C9    C     C_R   0.534356 0.415051 0.781395 0.390300
C10   C     C_R   0.468627 0.595083 0.221081 0.401408
C11   C     C_R   0.417338 0.761493 0.484102 -0.056074
C12   C     C_R   0.497274 0.510880 0.346773 0.922032
C13   C     C_R   0.580783 0.238671 0.518839 -0.056428
C14   C     C_R   0.423357 0.848733 0.485336 -0.331351
C15   C     C_R   0.575515 0.151464 0.517406 -0.339782
C16   C     C_R   0.739697 0.500155 0.500092 0.900368
C17   C     C_R   0.260229 0.499541 0.501345 0.918260
C18   C     C_R   0.532804 0.891611 0.511717 0.319313
C19   C     C_R   0.469497 0.108573 0.486271 0.307510
C20   C     C_R   0.632926 0.843907 0.538004 0.083303
C21   C     C_R   0.372082 0.156269 0.455804 0.087968
C22   C     C_R   0.621364 0.756312 0.536672 -0.026575
C23   C     C_R   0.127858 0.498222 0.499987 -0.123087
C24   C     C_R   0.382393 0.243830 0.458354 -0.008126
C25   C     C_R   0.788305 0.591759 0.242712 -0.198495
C26   C     C_R   0.191078 0.393647 0.761790 -0.185855
C27   C     C_R   0.836829 0.546948 0.306732 -0.206517
C28   C     C_R   0.145444 0.442089 0.699232 -0.142918
C29   C     C_R   0.874433 0.588173 0.374837 0.115282
C30   C     C_R   0.124979 0.407377 0.625321 0.082646
C31   C     C_R   0.859568 0.674034 0.379388 -0.131883
C32   C     C_R   0.153884 0.324367 0.614075 -0.108930
C33   C     C_R   0.809530 0.719043 0.315576 0.264738
C34   C     C_R   0.871961 0.500503 0.501591 -0.129946
C35   C     C_R   0.202224 0.276130 0.676415 0.250241
C36   C     C_R   0.775878 0.677632 0.246666 -0.012589
C37   C     C_R   0.219878 0.311157 0.750534 -0.147020
C38   C     C_R   0.068944 0.540185 0.437230 0.147646
C39   C     C_R   0.930566 0.457210 0.563732 0.100359
C40   C     C_3   0.545772 0.279564 0.745563 0.110679
C41   C     C_3   0.642148 0.213772 0.734208 -0.334533
C42   C     C_3   0.579314 0.126648 0.731284 -0.973338
C43   C     C_3   0.396429 0.719089 0.262006 0.098534
C44   C     C_3   0.444142 0.809062 0.272210 -0.320092
C45   C     C_R   0.060616 0.455040 0.561969 -0.053640
C46   C     C_3   0.335963 0.867044 0.279221 -0.980243
C47   C     C_3   0.751800 0.885902 0.567058 -0.950412
C48   C     C_3   0.256891 0.114269 0.421734 -0.922640
C49   C     C_3   0.794022 0.810788 0.321413 -0.958930
C50   C     C_3   0.232425 0.187476 0.663717 -0.979536
C51   C     C_3   0.141326 0.579838 0.366549 -0.907142
C52   C     C_3   0.857291 0.414668 0.632785 -0.813911
C53   C     C_3   0.577917 0.335823 0.254631 0.151760
C54   C     C_3   0.598352 0.281504 0.183580 -0.395800
C55   C     C_3   0.725166 0.241864 0.187739 -0.951560
C56   C     C_R   0.939161 0.542710 0.439273 -0.052646
C57   C     C_3   0.413734 0.682550 0.747845 0.114583
C58   C     C_3   0.342365 0.748418 0.702083 -0.316678
C59   C     C_3   0.403252 0.835399 0.710658 -0.962933
C60   C     C_R   0.484694 0.482348 0.738336 -0.224664
C61   C     C_R   0.475741 0.516587 0.261236 -0.274792
C62   C     C_R   0.418488 0.542982 0.777313 0.371726
H1    H     H_    0.738454 0.711474 0.196377 0.133746
H2    H     H_    0.203259 0.419849 0.819364 0.158758
H3    H     H_    0.848211 0.480712 0.302590 0.132662
H4    H     H_    0.121976 0.505675 0.709003 0.165462
H5    H     H_    0.888658 0.705898 0.432068 0.128760
H6    H     H_    0.136637 0.296981 0.557324 0.131306
H7    H     H_    0.398418 0.390797 0.110420 0.172600
H8    H     H_    0.345047 0.579238 0.887785 0.171354
H9    H     H_    0.567679 0.363452 0.897844 0.163142
H10   H     H_    0.454359 0.657153 0.106798 0.160649
H11   H     H_    0.478126 0.277246 0.696045 0.185507
H12   H     H_    0.255420 0.274677 0.799720 0.124178
H13   H     H_    0.494213 0.263571 0.802112 0.116696
H14   H     H_    0.695725 0.227948 0.678457 0.218473
H15   H     H_    0.709354 0.215260 0.784024 0.226337
H16   H     H_    0.530137 0.109752 0.788149 0.263021
H17   H     H_    0.651357 0.080627 0.721002 0.267685
H18   H     H_    0.510607 0.123748 0.682456 0.278182
H19   H     H_    0.337378 0.698633 0.314006 0.152539
H20   H     H_    0.337194 0.717296 0.208072 0.123554
H21   H     H_    0.502374 0.812616 0.326154 0.244905
H22   H     H_    0.503956 0.830033 0.220497 0.214833
H23   H     H_    0.661852 0.271017 0.543200 0.156049
H24   H     H_    0.281485 0.868436 0.223572 0.265327
H25   H     H_    0.373595 0.931103 0.290252 0.273322
H26   H     H_    0.272599 0.845804 0.329084 0.257624
H27   H     H_    0.821190 0.839934 0.585508 0.234701
H28   H     H_    0.794686 0.927175 0.519135 0.255559
H29   H     H_    0.730526 0.923754 0.618679 0.251806
H30   H     H_    0.189312 0.160234 0.400477 0.236753
H31   H     H_    0.283790 0.076713 0.371032 0.253640
H32   H     H_    0.209354 0.072691 0.467725 0.248172
H33   H     H_    0.753150 0.837860 0.266665 0.236616
H34   H     H_    0.333886 0.729405 0.462506 0.147947
H35   H     H_    0.730864 0.822086 0.371933 0.255344
H36   H     H_    0.886660 0.842921 0.331179 0.240579
H37   H     H_    0.266087 0.156710 0.718873 0.242139
H38   H     H_    0.147508 0.151956 0.643689 0.250836
H39   H     H_    0.307037 0.185717 0.617978 0.251937
H40   H     H_    0.102297 0.555636 0.310798 0.244011
H41   H     H_    0.133478 0.648403 0.366033 0.228567
H42   H     H_    0.241686 0.566150 0.365409 0.229581
H43   H     H_    0.891579 0.439306 0.689474 0.238157
H44   H     H_    0.755952 0.425106 0.632178 0.262570
H45   H     H_    0.653363 0.118274 0.541203 0.178150
H46   H     H_    0.869245 0.346490 0.632966 0.233348
H47   H     H_    0.589619 0.297242 0.309685 0.177623
H48   H     H_    0.651932 0.387312 0.255613 0.103220
H49   H     H_    0.522835 0.231536 0.182385 0.237178
H50   H     H_    0.594871 0.320057 0.127916 0.217744
H51   H     H_    0.802147 0.290834 0.188225 0.263716
H52   H     H_    0.737748 0.203490 0.135251 0.268029
H53   H     H_    0.730312 0.201082 0.241926 0.266169
H54   H     H_    0.512953 0.685369 0.726541 0.150128
H55   H     H_    0.411406 0.697291 0.811646 0.121579
H56   H     H_    0.343187 0.882009 0.465335 0.173837
H57   H     H_    0.340028 0.733453 0.638612 0.242625
H58   H     H_    0.244143 0.747523 0.724451 0.215484
H59   H     H_    0.400226 0.853154 0.773473 0.260233
H60   H     H_    0.351810 0.881234 0.674435 0.273983
H61   H     H_    0.502303 0.837441 0.689998 0.271531
H62   H     H_    0.697765 0.719409 0.556640 0.139436
H63   H     H_    0.308033 0.280852 0.435428 0.154023
H64   H     H_    0.760651 0.559961 0.189825 0.142780
N1    N     N_2   0.454733 0.466349 0.985336 -0.172247
N2    N     N_2   0.420110 0.530525 0.016330 -0.167756
N3    N     N_R   0.515300 0.716920 0.509720 -0.099432
N4    N     N_R   0.484700 0.283080 0.490280 -0.111523
N5    N     N_2   0.545927 0.980966 0.513317 -0.176731
N6    N     N_2   0.456597 0.019211 0.484664 -0.178171
O1    O     O_R   0.494530 0.422540 0.612660 -0.607177
O2    O     O_3   0.500354 0.668137 0.258629 -0.616964
O3    O     O_3   0.454103 0.363880 0.255456 -0.621451
O4    O     O_3   0.356355 0.603277 0.734729 -0.633008
O5    O     O_R   0.505470 0.577460 0.387340 -0.569948
O6    O     O_R   0.504350 0.561840 0.618900 -0.601515
O7    O     O_R   0.495650 0.438160 0.381100 -0.592269
O8    O     O_R   0.678330 0.430350 0.496870 -0.632008
O9    O     O_R   0.321670 0.569650 0.503130 -0.624506
O10   O     O_R   0.688150 0.569660 0.503110 -0.633646
O11   O     O_R   0.311850 0.430340 0.496890 -0.637156
O12   O     O_3   0.608132 0.359209 0.744545 -0.644920
Zn1   Zn    Zn3+2 0.493440 0.406980 0.495830 0.949783
Zn2   Zn    Zn3+2 0.506560 0.593020 0.504170 0.961645

loop_
_geom_bond_atom_site_label_1
_geom_bond_atom_site_label_2
_ccdc_geom_bond_type
C11   H34   S    
C59   H59   S    
C37   H12   S    
C42   H18   S    
C23   C45   A    
C27   C29   A    
C41   C42   S    
O10   Zn2   S    
C30   C45   S    
C28   H4    S    
C53   O3    S    
C16   O10   A    
C43   C44   S    
C44   H21   S    
C53   C54   S    
C51   H40   S    
C34   C56   A    
C50   H37   S    
C17   C23   S    
C48   H32   S    
C60   C62   A    
C19   C21   A    
C41   H15   S    
C11   C14   A    
C15   H45   S    
O11   Zn1   S    
C33   C36   A    
C40   H11   S    
C17   O9    A    
C62   O4    S    
C26   H2    S    
C16   C34   S    
C49   H36   S    
C15   C19   A    
C53   H48   S    
C14   H56   S    
C13   N4    A    
C31   C33   A    
C57   O4    S    
C7    H9    S    
C36   H1    S    
C2    C61   A    
C39   C45   A    
C21   C48   S    
C59   H60   S    
C39   C52   S    
C52   H44   S    
C42   H17   S    
N4    Zn1   S    
C47   H27   S    
C18   N5    S    
C16   O8    A    
C1    O1    A    
C11   N3    A    
C4    H7    S    
C9    O12   S    
C44   C46   S    
C57   H54   S    
C46   H26   S    
C59   H61   S    
C8    H10   S    
C48   H31   S    
C34   C39   A    
C32   C35   A    
O5    Zn2   S    
C3    H8    S    
C4    C6    A    
C1    C60   S    
C5    C7    A    
C6    C8    A    
C38   C51   S    
C55   H51   S    
C44   H22   S    
C58   C59   S    
C43   O2    S    
C2    C4    A    
C25   H64   S    
C27   H3    S    
C5    N1    S    
C35   C50   S    
C58   H58   S    
C12   O7    A    
C54   H50   S    
C49   H33   S    
N3    Zn2   S    
O9    Zn2   S    
C40   C41   S    
C55   H52   S    
C20   C22   A    
C52   H43   S    
C42   H16   S    
C40   O12   S    
C22   N3    A    
C24   H63   S    
C43   H19   S    
C47   H28   S    
C10   C61   A    
O1    Zn1   S    
N1    N2    D    
C57   H55   S    
C46   H25   S    
C3    C62   A    
C53   H47   S    
C19   N6    S    
C7    C9    A    
C54   C55   S    
O7    Zn1   S    
C35   C37   A    
C47   H29   S    
C14   C18   A    
C10   O2    S    
C3    C5    A    
O8    Zn1   S    
C26   C37   A    
C22   H62   S    
C29   C56   S    
C25   C27   A    
C23   C38   A    
C26   C28   A    
C2    O3    S    
C40   H13   S    
C32   H6    S    
C17   O11   A    
C9    C60   A    
C13   C15   A    
C51   H42   S    
C6    N2    S    
C29   C31   A    
C41   H14   S    
C30   C32   A    
C12   C61   S    
C57   C58   S    
C55   H53   S    
C51   H41   S    
O6    Zn2   S    
C28   C30   A    
C58   H57   S    
C54   H49   S    
C18   C20   A    
C50   H38   S    
C20   C47   S    
C31   H5    S    
C25   C36   A    
C49   H35   S    
C24   N4    A    
C38   C56   A    
C52   H46   S    
C50   H39   S    
C8    C10   A    
C48   H30   S    
C21   C24   A    
C13   H23   S    
C43   H20   S    
C12   O5    A    
C33   C49   S    
C1    O6    A    
N5    N6    D    
C46   H24   S    
