data_mof_unit_2918.cif
_audit_creation_date              2012-12-10T20:39:56-0500
_audit_creation_method            fapswitch 2.2
_symmetry_space_group_name_H-M    P1
_symmetry_Int_Tables_number       1
_space_group_crystal_system       triclinic
_cell_length_a                    23.335519
_cell_length_b                    10.703
_cell_length_c                    9.879589
_cell_angle_alpha                 89.245561
_cell_angle_beta                  90.888346
_cell_angle_gamma                 90.359184
_cell_volume                      2466.97088744

loop_
_atom_site_label
_atom_site_type_symbol
_atom_type_description
_atom_site_fract_x
_atom_site_fract_y
_atom_site_fract_z
_atom_type_partial_charge
C1    C     C_R   0.500527 0.259905 0.500481 0.886691
C2    C     C_R   0.121428 0.532845 0.618529 0.530082
C3    C     C_R   0.236210 0.601526 0.444479 0.191303
C4    C     C_R   0.389687 0.502081 0.499051 0.962284
C5    C     C_R   0.296878 0.605513 0.443172 0.036016
C6    C     C_R   0.327638 0.501799 0.497238 -0.201648
C7    C     C_R   0.299967 0.396009 0.551741 0.466329
C8    C     C_R   0.240096 0.395486 0.554861 -0.265673
C9    C     C_R   0.208920 0.495352 0.501169 0.203443
C10   C     C_R   0.761210 0.390783 0.561959 -0.135868
C11   C     C_R   0.701417 0.388061 0.558005 0.114677
C12   C     C_R   0.967309 0.393131 0.290811 -0.144586
C13   C     C_R   0.672094 0.492941 0.503637 -0.049289
C14   C     C_R   0.702210 0.596150 0.452424 -0.231259
C15   C     C_R   0.761614 0.597088 0.456724 -0.112603
C16   C     C_R   0.501378 0.739831 0.499205 0.875660
C17   C     C_R   0.790858 0.494639 0.511735 0.282803
C18   C     C_R   0.517744 0.061782 0.619019 0.123699
C19   C     C_R   0.506994 0.128069 0.499281 -0.092756
C20   C     C_R   0.506486 0.065911 0.375027 -0.239688
C21   C     C_R   0.507040 0.937274 0.374173 -0.246360
C22   C     C_R   0.508800 0.871304 0.497353 -0.101420
C23   C     C_R   0.026840 0.390484 0.290309 -0.167848
C24   C     C_R   0.518907 0.934120 0.617919 0.152022
C25   C     C_3   0.489077 0.922145 0.750142 -0.465138
C26   C     C_3   0.487197 0.063357 0.750643 -0.511828
C27   C     C_R   0.452435 0.462661 0.069687 0.032859
C28   C     C_R   0.610307 0.497758 0.500966 0.878985
C29   C     C_R   0.543177 0.556315 0.073908 0.428382
C30   C     C_R   0.544925 0.549592 0.928715 0.402271
C31   C     C_R   0.452340 0.464104 0.927556 0.074901
C32   C     C_3   0.423102 0.340707 0.920616 -0.477561
C33   C     C_3   0.422979 0.338022 0.075295 -0.058463
C34   C     C_R   0.058523 0.437447 0.400332 -0.004529
C35   C     C_R   0.880822 0.538957 0.622352 0.530953
C36   C     C_R   0.878812 0.446008 0.403347 0.512076
C37   C     C_R   0.938475 0.442336 0.401585 0.007442
C38   C     C_R   0.969775 0.489110 0.513487 -0.088938
C39   C     C_R   0.941032 0.538303 0.625854 -0.139892
C40   C     C_3   0.670753 0.270009 0.603338 -0.456889
C41   C     C_3   0.655877 0.188280 0.482242 -0.827079
C42   C     C_3   0.585940 0.744947 0.116891 -0.258182
C43   C     C_3   0.639335 0.520685 0.883768 -0.224417
C44   C     C_3   0.362306 0.342836 0.136101 -0.308070
C45   C     C_R   0.029990 0.486725 0.512435 -0.021754
C46   C     C_3   0.354899 0.243970 0.247192 -0.850034
C47   C     C_3   0.950411 0.761542 0.849584 -0.225870
C48   C     C_3   0.200202 0.709998 0.390409 -0.408202
C49   C     C_3   0.191658 0.703496 0.236967 -0.821460
C50   C     C_3   0.329146 0.721813 0.393776 -0.402253
C51   C     C_3   0.346993 0.804673 0.512050 -0.892761
C52   C     C_3   0.307215 0.181959 0.605654 -0.360544
C53   C     C_R   0.061643 0.533255 0.623379 -0.094563
C54   C     C_R   0.033144 0.580408 0.735287 -0.266233
C55   C     C_R   0.973267 0.585669 0.736686 0.540627
C56   C     C_R   0.118339 0.437788 0.400831 0.510862
H1    H     H_    0.944001 0.356703 0.204092 0.195399
H2    H     H_    0.047896 0.352368 0.203189 0.191388
H3    H     H_    0.380478 0.348178 0.869573 0.237896
H4    H     H_    0.451381 0.269462 0.878187 0.189921
H5    H     H_    0.451328 0.264170 0.119200 0.172193
H6    H     H_    0.057133 0.614115 0.822338 0.203853
H7    H     H_    0.216633 0.318608 0.600226 0.156638
H8    H     H_    0.785079 0.311353 0.601271 0.136132
H9    H     H_    0.625713 0.237376 0.412032 0.258219
H10   H     H_    0.695334 0.164490 0.426881 0.269189
H11   H     H_    0.635441 0.100171 0.517896 0.248148
H12   H     H_    0.679617 0.676220 0.410292 0.157963
H13   H     H_    0.698458 0.215365 0.674677 0.211616
H14   H     H_    0.631247 0.291717 0.659109 0.215685
H15   H     H_    0.603746 0.795267 0.205693 0.175926
H16   H     H_    0.614216 0.765937 0.030138 0.195805
H17   H     H_    0.542238 0.782715 0.095674 0.116657
H18   H     H_    0.673018 0.546813 0.810439 0.195715
H19   H     H_    0.629153 0.419861 0.869217 0.129046
H20   H     H_    0.657789 0.535466 0.986533 0.196801
H21   H     H_    0.361295 0.149134 0.205863 0.247011
H22   H     H_    0.386069 0.259406 0.331327 0.283065
H23   H     H_    0.785016 0.676843 0.417050 0.141896
H24   H     H_    0.310854 0.249425 0.287354 0.254937
H25   H     H_    0.353600 0.436308 0.178665 0.225123
H26   H     H_    0.328651 0.325636 0.057641 0.211339
H27   H     H_    0.925377 0.797139 0.935321 0.198955
H28   H     H_    0.931679 0.802603 0.754733 0.157499
H29   H     H_    0.995460 0.793821 0.864066 0.135333
H30   H     H_    0.233166 0.695605 0.184605 0.253075
H31   H     H_    0.164573 0.621712 0.210269 0.293719
H32   H     H_    0.169681 0.789278 0.199700 0.247602
H33   H     H_    0.219709 0.800905 0.418825 0.209531
H34   H     H_    0.501857 0.115356 0.279203 0.167283
H35   H     H_    0.157297 0.711306 0.437018 0.208537
H36   H     H_    0.308597 0.837066 0.566229 0.261432
H37   H     H_    0.375248 0.752947 0.584347 0.258794
H38   H     H_    0.370778 0.887701 0.473556 0.250485
H39   H     H_    0.367583 0.696253 0.336130 0.218497
H40   H     H_    0.303729 0.778554 0.320673 0.217157
H41   H     H_    0.284796 0.163506 0.507656 0.170698
H42   H     H_    0.277499 0.171562 0.691872 0.182022
H43   H     H_    0.340788 0.109695 0.618906 0.193480
H44   H     H_    0.501770 0.890577 0.278390 0.168360
H45   H     H_    0.445942 0.878012 0.740908 0.203922
H46   H     H_    0.517334 0.881926 0.831006 0.207904
H47   H     H_    0.442878 0.100095 0.739730 0.217547
H48   H     H_    0.514069 0.104475 0.832780 0.195436
N1    N     N_R   0.851707 0.493771 0.512301 -0.360999
N2    N     N_R   0.148094 0.488158 0.507129 -0.337118
N3    N     N_R   0.499610 0.499140 0.142800 -0.173700
N4    N     N_R   0.499610 0.499180 0.857150 -0.162596
O1    O     O_R   0.500010 0.316790 0.614690 -0.612971
O2    O     O_R   0.583850 0.500060 0.614640 -0.583837
O3    O     O_R   0.583840 0.500020 0.385300 -0.554840
O4    O     O_2   0.851237 0.584009 0.727139 -0.503786
O5    O     O_3   0.586078 0.615612 0.147194 -0.574331
O6    O     O_3   0.591145 0.597424 0.858881 -0.586119
O7    O     O_3   0.946616 0.629946 0.850453 -0.555720
O8    O     O_3   0.333949 0.300587 0.607520 -0.614549
O9    O     O_2   0.847871 0.402158 0.297365 -0.548998
O10   O     O_2   0.146724 0.389094 0.296023 -0.574505
O11   O     O_2   0.152849 0.578263 0.722893 -0.564076
O12   O     O_R   0.500000 0.316760 0.385350 -0.639107
O13   O     O_R   0.416160 0.499980 0.614700 -0.585437
O14   O     O_R   0.416150 0.499940 0.385360 -0.639984
O15   O     O_R   0.500000 0.683240 0.614650 -0.601893
O16   O     O_R   0.499990 0.683210 0.385310 -0.610522
Zn1   Zn    Zn3+2 0.500000 0.500020 0.653130 0.988022
Zn2   Zn    Zn3+2 0.500000 0.499980 0.346870 0.971529

loop_
_geom_bond_atom_site_label_1
_geom_bond_atom_site_label_2
_ccdc_geom_bond_type
C23   H2    S    
C34   C56   A    
C31   N4    A    
C49   H31   S    
C19   C20   A    
C18   C26   S    
C25   H45   S    
C51   H38   S    
C7    C8    A    
C41   H11   S    
C53   C54   A    
C27   C33   S    
C47   O7    S    
C12   C23   A    
C29   C30   A    
C40   H14   S    
C3    C9    A    
C47   H29   S    
C36   C37   A    
C16   O15   A    
C44   H26   S    
C43   O6    S    
C38   C39   A    
C51   H36   S    
O12   Zn2   S    
C25   H46   S    
O15   Zn1   S    
C10   C17   A    
C52   H41   S    
C18   C19   A    
C12   C37   A    
C38   C45   A    
C26   H48   S    
C15   H23   S    
C8    C9    A    
C48   H35   S    
C13   C28   S    
C47   H27   S    
N4    Zn1   S    
C1    O1    A    
C43   H18   S    
C45   C53   A    
C21   C22   A    
C49   H32   S    
C44   C46   S    
C52   O8    S    
C28   O3    A    
C43   H19   S    
C39   C55   A    
C1    C19   S    
C40   H13   S    
C27   C31   A    
C24   C25   S    
C4    C6    S    
C44   H25   S    
C46   H22   S    
C21   H44   S    
C41   H9    S    
C54   H6    S    
C28   O2    A    
C9    N2    S    
C20   H34   S    
C2    N2    A    
C1    O12   A    
C7    O8    S    
O14   Zn2   S    
C35   C39   A    
O13   Zn1   S    
C37   C38   A    
C35   N1    A    
C17   N1    S    
C26   H47   S    
C42   O5    S    
C31   C32   S    
C27   N3    A    
C3    C48   S    
C23   C34   A    
O3    Zn2   S    
C42   H16   S    
C50   C51   S    
C4    O14   A    
C34   C45   A    
C47   H28   S    
C36   O9    S    
C56   N2    A    
C41   H10   S    
C51   H37   S    
C12   H1    S    
O1    Zn1   S    
C40   C41   S    
C48   H33   S    
C18   C24   A    
C5    C50   S    
C32   H4    S    
O16   Zn2   S    
O2    Zn1   S    
C30   O6    S    
C43   H20   S    
C15   C17   A    
C29   O5    S    
C54   C55   A    
C48   C49   S    
C42   H17   S    
C16   C22   S    
C30   N4    A    
C36   N1    A    
C33   C44   S    
C56   O10   S    
C49   H30   S    
C10   H8    S    
N3    Zn2   S    
C3    C5    A    
C2    C53   A    
C46   H21   S    
C2    O11   S    
C6    C7    A    
C52   H43   S    
C32   C33   S    
C25   C26   S    
C46   H24   S    
C11   C13   A    
C50   H40   S    
C5    C6    A    
C55   O7    S    
C52   H42   S    
C42   H15   S    
C4    O13   A    
C22   C24   A    
C16   O16   A    
C11   C40   S    
C50   H39   S    
C10   C11   A    
C8    H7    S    
C20   C21   A    
C33   H5    S    
C14   H12   S    
C14   C15   A    
C29   N3    A    
C32   H3    S    
C13   C14   A    
C35   O4    S    
