data_mof_unit_4540.cif
_audit_creation_date              2012-12-10T16:39:31-0500
_audit_creation_method            fapswitch 2.2
_symmetry_space_group_name_H-M    P1
_symmetry_Int_Tables_number       1
_space_group_crystal_system       triclinic
_cell_length_a                    16.784872
_cell_length_b                    16.998053
_cell_length_c                    16.775724
_cell_angle_alpha                 65.743496
_cell_angle_beta                  65.761192
_cell_angle_gamma                 65.664913
_cell_volume                      3804.65139109

loop_
_atom_site_label
_atom_site_type_symbol
_atom_type_description
_atom_site_fract_x
_atom_site_fract_y
_atom_site_fract_z
_atom_type_partial_charge
C1    C     C_R   0.326783 0.947045 0.460755 0.057454
C2    C     C_R   0.672312 0.057583 0.538192 0.057447
C3    C     C_R   0.946609 0.456015 0.328511 0.066541
C4    C     C_R   0.053697 0.543887 0.671391 0.066436
C5    C     C_R   0.436522 0.309539 0.007051 0.053314
C6    C     C_R   0.539897 0.675515 0.051292 0.059965
C7    C     C_R   0.538140 0.058230 0.672023 0.059068
C8    C     C_R   0.460922 0.946370 0.326972 0.059543
C9    C     C_R   0.668861 0.538551 0.066994 0.062525
C10   C     C_R   0.325071 0.453384 0.960128 0.065135
C11   C     C_R   0.996640 0.687420 0.565284 0.052105
C12   C     C_R   0.003709 0.312470 0.434571 0.052072
C13   C     C_R   0.458640 0.976999 0.458606 -0.054020
C14   C     C_R   0.539457 0.030242 0.539319 -0.054551
C15   C     C_R   0.990323 0.453781 0.452477 -0.051165
C16   C     C_R   0.010207 0.546095 0.547279 -0.051270
C17   C     C_R   0.447613 0.448231 0.008087 -0.050964
C18   C     C_R   0.535115 0.537465 0.042117 -0.051540
C19   C     C_R   0.982136 0.175475 0.429911 0.920048
C20   C     C_R   0.017963 0.824489 0.570059 0.921303
C21   C     C_R   0.179376 0.437234 0.964196 0.897748
C22   C     C_R   0.820532 0.561951 0.038097 0.897984
C23   C     C_R   0.437723 0.963200 0.179565 0.900234
C24   C     C_R   0.562037 0.037516 0.820433 0.933671
C25   C     C_R   0.563680 0.821046 0.034021 0.918612
C26   C     C_R   0.430404 0.175448 0.981619 0.922723
C27   C     C_R   0.038237 0.561779 0.820676 0.899265
C28   C     C_R   0.961825 0.438191 0.179321 0.895945
C29   C     C_R   0.820431 0.037377 0.562122 0.918708
C30   C     C_R   0.179579 0.963313 0.437643 0.918105
C31   C     C_R   0.415872 0.955618 0.415873 0.065085
C32   C     C_R   0.582812 0.050083 0.582678 0.067102
C33   C     C_R   0.979456 0.407553 0.405774 0.068988
C34   C     C_R   0.020961 0.592333 0.594053 0.069181
C35   C     C_R   0.403893 0.403882 0.990553 0.065985
C36   C     C_R   0.581146 0.583717 0.054065 0.066660
C37   C     C_R   0.278787 0.942410 0.409649 -0.113599
C38   C     C_R   0.721049 0.059749 0.590001 -0.113894
C39   C     C_R   0.946022 0.406286 0.277816 -0.121028
C40   C     C_R   0.054136 0.593650 0.722153 -0.122397
C41   C     C_R   0.394825 0.268412 0.981226 -0.100400
C42   C     C_R   0.592018 0.723260 0.053867 -0.111400
C43   C     C_R   0.589928 0.060048 0.720974 -0.122052
C44   C     C_R   0.409777 0.942088 0.278818 -0.110954
C45   C     C_R   0.720650 0.591023 0.061206 -0.117597
C46   C     C_R   0.277340 0.405185 0.952081 -0.116577
C47   C     C_R   0.020277 0.730720 0.606339 -0.105925
C48   C     C_R   0.979928 0.269210 0.393592 -0.105518
C49   C     C_R   0.444570 0.060956 0.709603 -0.243775
C50   C     C_R   0.554214 0.944868 0.289079 -0.252899
C51   C     C_R   0.949850 0.734860 0.497519 -0.245043
C52   C     C_R   0.050546 0.265006 0.502304 -0.245082
C53   C     C_R   0.700374 0.443186 0.085891 -0.245904
C54   C     C_R   0.294855 0.548228 0.942674 -0.240323
C55   C     C_R   0.288589 0.946551 0.553830 -0.251398
C56   C     C_R   0.710222 0.059309 0.444809 -0.252543
C57   C     C_R   0.508521 0.260772 0.048997 -0.243714
C58   C     C_R   0.448941 0.715443 0.044314 -0.242108
C59   C     C_R   0.916107 0.551324 0.304724 -0.244196
C60   C     C_R   0.084232 0.448571 0.695166 -0.244563
C61   C     C_R   0.322806 0.934271 0.322735 -0.312672
C62   C     C_R   0.677375 0.066779 0.677406 -0.306964
C63   C     C_R   0.951112 0.316781 0.316842 -0.305636
C64   C     C_R   0.049022 0.683168 0.683131 -0.305098
C65   C     C_R   0.317914 0.316937 0.952878 -0.315027
C66   C     C_R   0.679036 0.679478 0.062056 -0.312968
C67   C     C_R   0.671222 0.032466 0.404603 0.111623
C68   C     C_R   0.326864 0.974987 0.593276 0.107976
C69   C     C_R   0.078152 0.402353 0.645855 0.112962
C70   C     C_R   0.922339 0.597529 0.353932 0.112827
C71   C     C_R   0.410594 0.674786 0.018033 0.101288
C72   C     C_R   0.555949 0.305041 0.060139 0.101797
C73   C     C_R   0.593986 0.972784 0.327539 0.111930
C74   C     C_R   0.404069 0.034671 0.670365 0.112896
C75   C     C_R   0.333572 0.590986 0.966601 0.110139
C76   C     C_R   0.651653 0.396239 0.079928 0.110723
C77   C     C_R   0.061352 0.310392 0.548953 0.106230
C78   C     C_R   0.939167 0.689476 0.450798 0.105944
C79   C     C_R   0.717857 0.018236 0.318243 -0.221214
C80   C     C_R   0.279912 0.989914 0.679328 -0.220603
C81   C     C_R   0.110462 0.307794 0.668234 -0.204429
C82   C     C_R   0.890069 0.692084 0.331518 -0.204776
C83   C     C_R   0.330234 0.723252 0.991436 -0.199535
C84   C     C_R   0.633247 0.256435 0.092232 -0.197106
C85   C     C_R   0.680563 0.986360 0.281051 -0.223610
C86   C     C_R   0.317198 0.021794 0.716523 -0.209358
C87   C     C_R   0.293878 0.682502 0.962704 -0.199619
C88   C     C_R   0.681704 0.301758 0.100312 -0.203268
C89   C     C_R   0.102813 0.262285 0.619768 -0.200646
C90   C     C_R   0.897732 0.737591 0.379967 -0.201120
C91   C     C_R   0.545787 0.989493 0.412609 0.034271
C92   C     C_R   0.452120 0.018228 0.585120 0.032262
C93   C     C_R   0.029645 0.405148 0.525179 0.032808
C94   C     C_R   0.970916 0.594725 0.474552 0.032807
C95   C     C_R   0.411629 0.541253 0.997274 0.029859
C96   C     C_R   0.571405 0.444496 0.052809 0.031694
C97   C     C_R   0.585617 0.017053 0.452378 0.034323
C98   C     C_R   0.412299 0.990665 0.545345 0.034360
C99   C     C_R   0.452943 0.584644 0.018366 0.033587
C100  C     C_R   0.525480 0.399289 0.039521 0.033716
C101  C     C_R   0.039066 0.451240 0.572964 0.029409
C102  C     C_R   0.961487 0.548636 0.426778 0.029499
H1    H     H_    0.401251 0.083384 0.769272 0.172290
H2    H     H_    0.598236 0.921516 0.230110 0.174736
H3    H     H_    0.918730 0.807002 0.481524 0.178406
H4    H     H_    0.081551 0.192843 0.518356 0.177979
H5    H     H_    0.760789 0.404080 0.108575 0.165113
H6    H     H_    0.241441 0.590346 0.910052 0.166514
H7    H     H_    0.229600 0.923493 0.598071 0.177595
H8    H     H_    0.769883 0.081502 0.401272 0.176337
H9    H     H_    0.528123 0.188306 0.076176 0.183136
H10   H     H_    0.403910 0.777071 0.060382 0.181660
H11   H     H_    0.884279 0.590038 0.250185 0.158110
H12   H     H_    0.115942 0.409867 0.749793 0.157812
O1    O     O_R   0.982940 0.138950 0.510160 -0.639709
O2    O     O_R   0.017060 0.861050 0.489840 -0.640150
O3    O     O_R   0.138950 0.510160 0.982940 -0.632012
O4    O     O_R   0.861050 0.489840 0.017060 -0.627883
O5    O     O_R   0.510160 0.982940 0.138950 -0.654031
O6    O     O_R   0.489840 0.017060 0.861050 -0.636528
O7    O     O_R   0.489840 0.861050 0.017060 -0.644120
O8    O     O_R   0.510160 0.138950 0.982940 -0.644748
O9    O     O_R   0.017060 0.489840 0.861050 -0.623746
O10   O     O_R   0.982940 0.510160 0.138950 -0.624567
O11   O     O_R   0.861050 0.017060 0.489840 -0.652585
O12   O     O_R   0.138950 0.982940 0.510160 -0.653417
O13   O     O_R   0.867700 0.025880 0.612340 -0.621641
O14   O     O_R   0.132300 0.974120 0.387660 -0.622432
O15   O     O_R   0.025880 0.612340 0.867700 -0.626494
O16   O     O_R   0.974120 0.387660 0.132300 -0.628402
O17   O     O_R   0.612340 0.867700 0.025880 -0.630126
O18   O     O_R   0.387660 0.132300 0.974120 -0.636228
O19   O     O_R   0.387660 0.974120 0.132300 -0.630804
O20   O     O_R   0.612340 0.025880 0.867700 -0.617530
O21   O     O_R   0.132300 0.387660 0.974120 -0.626738
O22   O     O_R   0.867700 0.612340 0.025880 -0.628031
O23   O     O_R   0.974120 0.132300 0.387660 -0.635537
O24   O     O_R   0.025880 0.867700 0.612340 -0.634309
Zn1   Zn    Zn3+2 0.004880 0.004880 0.583590 0.925294
Zn2   Zn    Zn3+2 0.995120 0.995120 0.416410 0.922838
Zn3   Zn    Zn3+2 0.004880 0.583590 0.004880 0.935689
Zn4   Zn    Zn3+2 0.995120 0.416410 0.995120 0.937872
Zn5   Zn    Zn3+2 0.583590 0.004880 0.004880 0.924415
Zn6   Zn    Zn3+2 0.416410 0.995120 0.995120 0.921453
H13   H     H_    0.285252 0.931249 0.285135 0.192867
H14   H     H_    0.715494 0.067943 0.715583 0.194520
H15   H     H_    0.939736 0.281976 0.282626 0.190941
H16   H     H_    0.060289 0.718008 0.717392 0.191445
H17   H     H_    0.284809 0.283529 0.938216 0.189274
H18   H     H_    0.718160 0.717518 0.060780 0.192299
H19   H     H_    0.279290 0.033807 0.782572 0.131070
H20   H     H_    0.718421 0.974467 0.214946 0.130533
H21   H     H_    0.872441 0.810630 0.361054 0.146376
H22   H     H_    0.128089 0.189248 0.638685 0.146374
H23   H     H_    0.742445 0.262867 0.122785 0.135691
H24   H     H_    0.233095 0.721702 0.940336 0.134431
H25   H     H_    0.213428 0.978977 0.716874 0.131706
H26   H     H_    0.784286 0.029287 0.280648 0.131279
H27   H     H_    0.657540 0.183463 0.109025 0.142011
H28   H     H_    0.297149 0.793422 0.990172 0.134505
H29   H     H_    0.859018 0.730941 0.276360 0.137799
H30   H     H_    0.141499 0.268930 0.723402 0.137565

loop_
_geom_bond_atom_site_label_1
_geom_bond_atom_site_label_2
_ccdc_geom_bond_type
O18   Zn6   S    
C83   C87   A    
C30   O12   A    
C9    C45   A    
C29   O11   A    
C18   C96   A    
C81   H30   S    
C6    C58   A    
C60   H12   S    
O6    Zn6   S    
C12   C48   A    
C79   H26   S    
C55   C68   A    
C89   H22   S    
C75   C95   A    
C5    C57   A    
C78   C90   A    
C50   H2    S    
C77   C89   A    
C58   H10   S    
C17   C35   A    
C26   C41   S    
C66   H18   S    
C15   C33   A    
C23   O5    A    
C95   C99   A    
C58   C71   A    
O15   Zn3   S    
C3    C33   A    
C10   C54   A    
C74   C92   A    
C96   C100  A    
C1    C31   A    
O5    Zn5   S    
C2    C32   A    
C20   O24   A    
C13   C98   A    
C61   H13   S    
C80   C86   A    
C16   C34   A    
O20   Zn5   S    
C11   C47   A    
C30   O14   A    
C83   H28   S    
C4    C40   A    
C29   C38   S    
C10   C46   A    
C9    C36   A    
C21   O3    A    
C10   C35   A    
C17   C95   A    
C7    C43   A    
C76   C88   A    
C1    C37   A    
C81   C89   A    
C52   H4    S    
C56   H8    S    
C55   H7    S    
C65   H17   S    
O7    Zn6   S    
O13   Zn1   S    
O8    Zn5   S    
C70   C82   A    
O17   Zn5   S    
C63   H15   S    
C12   C52   A    
C84   H27   S    
C14   C92   A    
C71   C83   A    
O21   Zn4   S    
O11   Zn2   S    
O23   Zn2   S    
C4    C34   A    
O12   Zn1   S    
C24   O6    A    
C23   O19   A    
C92   C98   A    
C88   H23   S    
C84   C88   A    
C67   C79   A    
C73   C91   A    
C46   C65   A    
C50   C73   A    
C93   C101  A    
C47   C64   A    
C20   O2    A    
C27   O9    A    
C19   C48   S    
C48   C63   A    
C41   C65   A    
C28   C39   S    
C71   C99   A    
C91   C97   A    
C23   C44   S    
C30   C37   S    
C22   O22   A    
O3    Zn3   S    
C49   H1    S    
O22   Zn3   S    
C2    C38   A    
C19   O1    A    
C27   C40   S    
C19   O23   A    
C73   C85   A    
C4    C60   A    
C70   C102  A    
C74   C86   A    
C90   H21   S    
C53   H5    S    
C7    C49   A    
C72   C84   A    
C69   C81   A    
C75   C87   A    
O1    Zn1   S    
C29   O13   A    
C62   H14   S    
C27   O15   A    
O10   Zn3   S    
C53   C76   A    
C9    C53   A    
C18   C99   A    
C68   C80   A    
C25   O17   A    
C8    C50   A    
C79   C85   A    
C26   O18   A    
C14   C97   A    
C21   C46   S    
C72   C100  A    
C24   O20   A    
C22   O4    A    
C5    C41   A    
O19   Zn6   S    
C7    C32   A    
C87   H24   S    
C8    C31   A    
C13   C31   A    
C11   C34   A    
C15   C102  A    
C8    C44   A    
C14   C32   A    
C59   H11   S    
O4    Zn4   S    
C40   C64   A    
C25   C42   S    
C15   C93   A    
C37   C61   A    
C28   O10   A    
C82   H29   S    
C69   C101  A    
C44   C61   A    
C56   C67   A    
C39   C63   A    
C16   C94   A    
C82   C90   A    
C54   H6    S    
O14   Zn2   S    
C51   C78   A    
C2    C56   A    
C86   H19   S    
C76   C96   A    
C80   H25   S    
C57   H9    S    
C25   O7    A    
C60   C69   A    
C78   C94   A    
C5    C35   A    
O9    Zn4   S    
C77   C93   A    
C6    C36   A    
C28   O16   A    
C57   C72   A    
C1    C55   A    
O16   Zn4   S    
C17   C100  A    
C68   C98   A    
C51   H3    S    
C85   H20   S    
C20   C47   S    
C11   C51   A    
O24   Zn1   S    
C67   C97   A    
C59   C70   A    
C3    C39   A    
C54   C75   A    
C16   C101  A    
C13   C91   A    
C22   C45   S    
C94   C102  A    
C6    C42   A    
C45   C66   A    
C42   C66   A    
C24   C43   S    
C49   C74   A    
C26   O8    A    
O2    Zn2   S    
C12   C33   A    
C18   C36   A    
C21   O21   A    
C64   H16   S    
C52   C77   A    
C43   C62   A    
C38   C62   A    
C3    C59   A    
