data_mof_unit_4351.cif
_audit_creation_date              2012-12-11T15:37:22-0500
_audit_creation_method            fapswitch 2.2
_symmetry_space_group_name_H-M    P1
_symmetry_Int_Tables_number       1
_space_group_crystal_system       triclinic
_cell_length_a                    17.553218
_cell_length_b                    24.549451
_cell_length_c                    14.811707
_cell_angle_alpha                 90.000053
_cell_angle_beta                  125.543799
_cell_angle_gamma                 89.999979
_cell_volume                      5193.4108194

loop_
_atom_site_label
_atom_site_type_symbol
_atom_type_description
_atom_site_fract_x
_atom_site_fract_y
_atom_site_fract_z
_atom_type_partial_charge
C1    C     C_R   0.845952 0.650321 0.910160 -0.118887
C2    C     C_R   0.188656 0.374291 0.089603 -0.125623
C3    C     C_R   0.188655 0.625710 0.089604 -0.125610
C4    C     C_R   0.845953 0.349679 0.910160 -0.118886
C5    C     C_R   0.345951 0.150321 0.910159 -0.118888
C6    C     C_R   0.688656 0.874291 0.089604 -0.125628
C7    C     C_R   0.688652 0.125714 0.089604 -0.125564
C8    C     C_R   0.345953 0.849679 0.910160 -0.118883
C9    C     C_3   0.405224 0.500000 0.456326 0.187819
C10   C     C_3   0.574975 0.500000 0.633328 0.221865
C11   C     C_3   0.905229 0.000003 0.456320 0.187827
C12   C     C_3   0.074976 0.000002 0.633331 0.221867
C13   C     C_R   0.725778 0.275530 0.941363 0.062733
C14   C     C_R   0.330885 0.681444 0.053317 0.058755
C15   C     C_R   0.330884 0.318555 0.053317 0.058755
C16   C     C_R   0.725779 0.724474 0.941361 0.062734
C17   C     C_R   0.225779 0.775527 0.941363 0.062734
C18   C     C_R   0.830882 0.181446 0.053316 0.058754
C19   C     C_R   0.830886 0.818556 0.053318 0.058755
C20   C     C_R   0.225776 0.224472 0.941361 0.062735
C21   C     C_R   0.180856 0.728328 0.933284 -0.251041
C22   C     C_R   0.876542 0.228837 0.059112 -0.252340
C23   C     C_R   0.876544 0.771164 0.059114 -0.252335
C24   C     C_R   0.180854 0.271672 0.933282 -0.251040
C25   C     C_R   0.680854 0.228331 0.933284 -0.251044
C26   C     C_R   0.376544 0.728835 0.059114 -0.252336
C27   C     C_R   0.376542 0.271163 0.059113 -0.252335
C28   C     C_R   0.680856 0.771673 0.933283 -0.251041
C29   C     C_R   0.232640 0.681646 0.989183 0.059110
C30   C     C_R   0.823810 0.275274 0.003046 0.057744
C31   C     C_R   0.823810 0.724728 0.003046 0.057743
C32   C     C_R   0.232639 0.318354 0.989182 0.059109
C33   C     C_R   0.732637 0.181648 0.989182 0.059112
C34   C     C_R   0.323811 0.775272 0.003047 0.057744
C35   C     C_R   0.323807 0.224726 0.003045 0.057738
C36   C     C_R   0.732641 0.818355 0.989183 0.059109
C37   C     C_R   0.887847 0.450698 0.459380 -0.169463
C38   C     C_R   0.891250 0.549277 0.368406 -0.164434
C39   C     C_R   0.891250 0.450723 0.368405 -0.164434
C40   C     C_R   0.887847 0.549302 0.459381 -0.169463
C41   C     C_R   0.387845 0.950699 0.459380 -0.169464
C42   C     C_R   0.391255 0.049278 0.368411 -0.164439
C43   C     C_R   0.391253 0.950724 0.368409 -0.164433
C44   C     C_R   0.387847 0.049303 0.459382 -0.169461
C45   C     C_R   0.904776 0.500000 0.331739 0.142014
C46   C     C_R   0.897061 0.500000 0.512690 0.134567
C47   C     C_R   0.404783 0.000001 0.331746 0.142014
C48   C     C_R   0.397059 0.000001 0.512690 0.134567
C49   C     C_R   0.937661 0.352044 0.095214 -0.155413
C50   C     C_R   0.093128 0.623251 0.903232 -0.134281
C51   C     C_R   0.093128 0.376749 0.903231 -0.134281
C52   C     C_R   0.937661 0.647956 0.095214 -0.155414
C53   C     C_R   0.437661 0.852044 0.095214 -0.155409
C54   C     C_R   0.593126 0.123254 0.903232 -0.134282
C55   C     C_R   0.593128 0.876749 0.903232 -0.134280
C56   C     C_R   0.437657 0.147954 0.095213 -0.155443
C57   C     C_R   0.981781 0.545829 0.250287 -0.130480
C58   C     C_R   0.949203 0.454482 0.693859 -0.135343
C59   C     C_R   0.949203 0.545517 0.693859 -0.135342
C60   C     C_R   0.981781 0.454171 0.250287 -0.130486
C61   C     C_R   0.481792 0.045830 0.250298 -0.130465
C62   C     C_R   0.449201 0.954482 0.693858 -0.135346
C63   C     C_R   0.449203 0.045518 0.693859 -0.135341
C64   C     C_R   0.481784 0.954171 0.250291 -0.130491
C65   C     C_R   0.731337 0.454611 0.743324 0.201228
C66   C     C_R   0.260409 0.545206 0.299649 0.176714
C67   C     C_R   0.260408 0.454795 0.299651 0.176717
C68   C     C_R   0.731337 0.545389 0.743323 0.201228
C69   C     C_R   0.231337 0.954612 0.743328 0.201220
C70   C     C_R   0.760409 0.045207 0.299643 0.176697
C71   C     C_R   0.760410 0.954796 0.299650 0.176712
C72   C     C_R   0.231339 0.045389 0.743328 0.201228
C73   C     C_R   0.869599 0.676779 0.004103 0.058862
C74   C     C_R   0.180989 0.361759 0.993726 0.062551
C75   C     C_R   0.180989 0.638241 0.993726 0.062544
C76   C     C_R   0.869600 0.323221 0.004103 0.058859
C77   C     C_R   0.369595 0.176778 0.004102 0.058894
C78   C     C_R   0.680990 0.861760 0.993726 0.062552
C79   C     C_R   0.680986 0.138245 0.993726 0.062525
C80   C     C_R   0.369600 0.823220 0.004103 0.058854
C81   C     C_R   0.950693 0.500000 0.275197 0.043965
C82   C     C_R   0.931783 0.500000 0.629384 0.057757
C83   C     C_R   0.450701 0.000001 0.275207 0.043961
C84   C     C_R   0.431781 0.000000 0.629384 0.057760
C85   C     C_R   0.674660 0.500000 0.717362 -0.169606
C86   C     C_R   0.313003 0.500000 0.355176 -0.154686
C87   C     C_R   0.174661 0.000002 0.717367 -0.169598
C88   C     C_R   0.813006 0.000003 0.355172 -0.154656
C89   C     C_3   0.503299 0.455249 0.604569 -0.187811
C90   C     C_3   0.476552 0.544715 0.485099 -0.181989
C91   C     C_3   0.476549 0.455284 0.485102 -0.181992
C92   C     C_3   0.503301 0.544753 0.604566 -0.187802
C93   C     C_3   0.003294 0.955255 0.604574 -0.187833
C94   C     C_3   0.976562 0.044713 0.485090 -0.181971
C95   C     C_3   0.976551 0.955282 0.485109 -0.182016
C96   C     C_3   0.003304 0.044759 0.604554 -0.187765
C97   C     C_3   0.429965 0.500002 0.573417 -0.121627
C98   C     C_3   0.548400 0.499999 0.514855 -0.081377
C99   C     C_3   0.929963 0.000012 0.573408 -0.121612
C100  C     C_3   0.048407 0.999992 0.514860 -0.081371
H1    H     H_    0.806641 0.667394 0.827810 0.135408
H2    H     H_    0.245834 0.364070 0.173383 0.132971
H3    H     H_    0.245833 0.635931 0.173383 0.132965
H4    H     H_    0.806642 0.332606 0.827809 0.135409
H5    H     H_    0.306643 0.167394 0.827810 0.135400
H6    H     H_    0.745835 0.864071 0.173383 0.132972
H7    H     H_    0.745826 0.135940 0.173382 0.132938
H8    H     H_    0.306642 0.832605 0.827810 0.135409
H9    H     H_    0.978879 0.338116 0.180284 0.102146
H10   H     H_    0.063001 0.631289 0.816929 0.102772
H11   H     H_    0.063001 0.368711 0.816929 0.102770
H12   H     H_    0.978878 0.661884 0.180284 0.102140
H13   H     H_    0.478879 0.838116 0.180284 0.102148
H14   H     H_    0.562999 0.131291 0.816929 0.102774
H15   H     H_    0.563002 0.868712 0.816929 0.102772
H16   H     H_    0.478870 0.161883 0.180283 0.102112
H17   H     H_    0.972713 0.587713 0.263254 0.098326
H18   H     H_    0.931910 0.412844 0.665740 0.082892
H19   H     H_    0.931910 0.587156 0.665741 0.082893
H20   H     H_    0.972712 0.412287 0.263252 0.098324
H21   H     H_    0.472730 0.087714 0.263271 0.098329
H22   H     H_    0.431907 0.912844 0.665739 0.082893
H23   H     H_    0.431911 0.087156 0.665742 0.082885
H24   H     H_    0.472713 0.912288 0.263254 0.098325
H25   H     H_    0.378092 0.500003 0.593492 0.120489
H26   H     H_    0.598356 0.499997 0.491798 0.113857
H27   H     H_    0.878086 0.000021 0.593475 0.120487
H28   H     H_    0.098366 0.999984 0.491807 0.113850
H29   H     H_    0.511566 0.419521 0.655320 0.121593
H30   H     H_    0.466075 0.580922 0.434105 0.121506
H31   H     H_    0.466071 0.419075 0.434111 0.121513
H32   H     H_    0.511568 0.580483 0.655315 0.121591
H33   H     H_    0.011558 0.919531 0.655330 0.121602
H34   H     H_    0.966095 0.080915 0.434091 0.121482
H35   H     H_    0.966072 0.919070 0.434126 0.121518
H36   H     H_    0.011565 0.080492 0.655292 0.121575
H37   H     H_    0.105224 0.728940 0.888678 0.135250
H38   H     H_    0.952320 0.229743 0.106436 0.136508
H39   H     H_    0.952322 0.770257 0.106439 0.136507
H40   H     H_    0.105222 0.271061 0.888675 0.135249
H41   H     H_    0.605222 0.228943 0.888678 0.135251
H42   H     H_    0.452322 0.729742 0.106438 0.136507
H43   H     H_    0.452320 0.270255 0.106437 0.136507
H44   H     H_    0.605224 0.771062 0.888676 0.135250
H45   H     H_    0.887790 0.411788 0.493381 0.111311
H46   H     H_    0.893451 0.588141 0.335765 0.110788
H47   H     H_    0.893450 0.411859 0.335765 0.110787
H48   H     H_    0.887791 0.588212 0.493382 0.111313
H49   H     H_    0.387786 0.911789 0.493380 0.111312
H50   H     H_    0.393457 0.088142 0.335772 0.110789
H51   H     H_    0.393454 0.911860 0.335769 0.110788
H52   H     H_    0.387789 0.088213 0.493383 0.111313
N1    N     N_R   0.892620 0.603790 0.941800 -0.040962
N2    N     N_R   0.107380 0.396210 0.058200 -0.044453
N3    N     N_R   0.107380 0.603790 0.058200 -0.044451
N4    N     N_R   0.892620 0.396210 0.941800 -0.040962
N5    N     N_R   0.392620 0.103790 0.941800 -0.040960
N6    N     N_R   0.607380 0.896210 0.058200 -0.044454
N7    N     N_R   0.607380 0.103790 0.058200 -0.044453
N8    N     N_R   0.392620 0.896210 0.941800 -0.040963
N9    N     N_R   0.952210 0.397600 0.057910 -0.039566
N10   N     N_R   0.047790 0.602400 0.942090 -0.042944
N11   N     N_R   0.047790 0.397600 0.942090 -0.042943
N12   N     N_R   0.952210 0.602400 0.057910 -0.039569
N13   N     N_R   0.452210 0.897600 0.057910 -0.039565
N14   N     N_R   0.547790 0.102400 0.942090 -0.042945
N15   N     N_R   0.547790 0.897600 0.942090 -0.042943
N16   N     N_R   0.452210 0.102400 0.057910 -0.039592
N17   N     N_R   0.026300 0.529110 0.206760 -0.036978
N18   N     N_R   0.973700 0.470890 0.793240 -0.037194
N19   N     N_R   0.973700 0.529110 0.793240 -0.037194
N20   N     N_R   0.026300 0.470890 0.206760 -0.036977
N21   N     N_R   0.526300 0.029110 0.206760 -0.036984
N22   N     N_R   0.473700 0.970890 0.793240 -0.037195
N23   N     N_R   0.473700 0.029110 0.793240 -0.037195
N24   N     N_R   0.526300 0.970890 0.206760 -0.036975
N25   N     N_R   0.818530 0.472270 0.792960 -0.067019
N26   N     N_R   0.181470 0.527730 0.207040 -0.060730
N27   N     N_R   0.181470 0.472270 0.207040 -0.060727
N28   N     N_R   0.818530 0.527730 0.792960 -0.067018
N29   N     N_R   0.318530 0.972270 0.792960 -0.067020
N30   N     N_R   0.681470 0.027730 0.207040 -0.060747
N31   N     N_R   0.681470 0.972270 0.207040 -0.060726
N32   N     N_R   0.318530 0.027730 0.792960 -0.067022
Ni1   Ni    Ni4+2 0.934150 0.565840 0.869060 0.207495
Ni2   Ni    Ni4+2 0.065850 0.434160 0.130940 0.209309
Ni3   Ni    Ni4+2 0.065850 0.565840 0.130940 0.209312
Ni4   Ni    Ni4+2 0.934150 0.434160 0.869060 0.207495
Ni5   Ni    Ni4+2 0.434150 0.065840 0.869060 0.207495
Ni6   Ni    Ni4+2 0.565850 0.934160 0.130940 0.209304
Ni7   Ni    Ni4+2 0.565850 0.065840 0.130940 0.209319
Ni8   Ni    Ni4+2 0.434150 0.934160 0.869060 0.207494
N33   N     N_2   0.701848 0.401860 0.695250 -0.116182
H53   H     H_    0.634955 0.390201 0.664635 0.174185
C101  C     C_3   0.731646 0.385551 0.626499 -0.969704
H54   H     H_    0.704064 0.344291 0.592105 0.248247
H55   H     H_    0.809109 0.383645 0.676804 0.254224
H56   H     H_    0.704927 0.414618 0.556682 0.257678
N34   N     N_2   0.273396 0.597988 0.347534 -0.122520
H57   H     H_    0.332950 0.602463 0.426788 0.174724
C102  C     C_3   0.193391 0.622336 0.336358 -0.953376
H58   H     H_    0.214203 0.661771 0.381496 0.243272
H59   H     H_    0.167116 0.595213 0.372632 0.256775
H60   H     H_    0.137699 0.631209 0.248534 0.262806
N35   N     N_2   0.273396 0.402014 0.347541 -0.122519
H61   H     H_    0.332940 0.397544 0.426804 0.174733
C103  C     C_3   0.193387 0.377659 0.336342 -0.953415
H62   H     H_    0.214201 0.338227 0.381488 0.243276
H63   H     H_    0.137711 0.368780 0.248516 0.262812
H64   H     H_    0.167090 0.404780 0.372591 0.256784
N36   N     N_2   0.701849 0.598140 0.695248 -0.116184
H65   H     H_    0.634957 0.609800 0.664632 0.174184
C104  C     C_3   0.731650 0.614448 0.626500 -0.969706
H66   H     H_    0.704066 0.655708 0.592101 0.248248
H67   H     H_    0.704935 0.585380 0.556686 0.257680
H68   H     H_    0.809113 0.616355 0.676807 0.254225
N37   N     N_2   0.201844 0.901861 0.695256 -0.116180
H69   H     H_    0.134951 0.890204 0.664643 0.174188
C105  C     C_3   0.231637 0.885551 0.626499 -0.969692
H70   H     H_    0.204054 0.844290 0.592106 0.248247
H71   H     H_    0.309100 0.883646 0.676799 0.254222
H72   H     H_    0.204914 0.914617 0.556680 0.257672
N38   N     N_2   0.773394 0.097993 0.347510 -0.122529
H73   H     H_    0.832994 0.102493 0.426736 0.174651
C106  C     C_3   0.693404 0.122313 0.336422 -0.953006
H74   H     H_    0.714219 0.161767 0.381502 0.243237
H75   H     H_    0.667229 0.095182 0.372824 0.256700
H76   H     H_    0.637617 0.131146 0.248581 0.262728
N39   N     N_2   0.773398 0.902016 0.347545 -0.122520
H77   H     H_    0.832939 0.897549 0.426812 0.174735
C107  C     C_3   0.693388 0.877659 0.336340 -0.953415
H78   H     H_    0.714203 0.838228 0.381488 0.243277
H79   H     H_    0.637716 0.868779 0.248513 0.262813
H80   H     H_    0.667086 0.904780 0.372584 0.256784
N40   N     N_2   0.201851 0.098141 0.695258 -0.116183
H81   H     H_    0.134969 0.109808 0.664672 0.174173
C108  C     C_3   0.231626 0.114445 0.626481 -0.969681
H82   H     H_    0.204048 0.155706 0.592092 0.248242
H83   H     H_    0.204886 0.085378 0.556659 0.257677
H84   H     H_    0.309089 0.116345 0.676764 0.254224
C109  C     C_1   0.670138 0.324377 0.891763 0.030343
N41   N     N_1   0.625721 0.363450 0.852599 -0.101810
C110  C     C_1   0.385047 0.633720 0.113614 0.028825
N42   N     N_1   0.428345 0.595480 0.162019 -0.084033
C111  C     C_1   0.385047 0.366278 0.113615 0.028825
N43   N     N_1   0.428347 0.404518 0.162022 -0.084033
C112  C     C_1   0.670136 0.675627 0.891760 0.030342
N44   N     N_1   0.625718 0.636554 0.852595 -0.101809
C113  C     C_1   0.170137 0.824374 0.891763 0.030346
N45   N     N_1   0.125720 0.863447 0.852598 -0.101812
C114  C     C_1   0.885042 0.133721 0.113612 0.028818
N46   N     N_1   0.928340 0.095480 0.162015 -0.084036
C115  C     C_1   0.885048 0.866279 0.113616 0.028827
N47   N     N_1   0.928347 0.904520 0.162022 -0.084032
C116  C     C_1   0.170133 0.175625 0.891762 0.030330
N48   N     N_1   0.125714 0.136553 0.852598 -0.101812

loop_
_geom_bond_atom_site_label_1
_geom_bond_atom_site_label_2
_ccdc_geom_bond_type
C16   C28   A    
C10   C85   S    
C19   C115  S    
C50   N10   A    
C102  H59   S    
C102  H58   S    
C19   C23   A    
N38   H73   S    
C51   C74   A    
C55   N15   A    
N12   Ni3   S    
C70   C88   A    
C9    C91   S    
N26   N27   A    
C114  N46   T    
C96   H36   S    
N27   Ni2   S    
C5    H5    S    
C104  H66   S    
C24   H40   S    
C16   C31   A    
C40   C46   A    
N15   Ni8   S    
C66   N26   A    
C113  N45   T    
C44   H52   S    
N25   Ni4   S    
C55   H15   S    
C69   N37   S    
C23   H39   S    
C92   H32   S    
C68   N28   A    
C93   H33   S    
C19   C36   A    
N6    Ni6   S    
C32   C74   S    
C115  N47   T    
N29   Ni8   S    
C6    C78   A    
C91   H31   S    
N18   N19   A    
C52   H12   S    
C3    H3    S    
C110  N42   T    
C62   N22   A    
C96   C99   S    
C4    H4    S    
C50   H10   S    
C106  H76   S    
C89   H29   S    
N2    Ni2   S    
C11   C99   S    
C109  N41   T    
C10   C98   S    
C58   H18   S    
N22   N23   A    
C38   H46   S    
C38   C45   A    
C21   H37   S    
C34   C80   S    
C46   C82   S    
C20   C35   A    
C90   C92   S    
C26   C34   A    
C13   C109  S    
C15   C111  S    
C10   C89   S    
N20   Ni2   S    
N33   C101  S    
C67   N35   S    
C92   C97   S    
C103  H64   S    
C27   H43   S    
N40   H81   S    
C59   C82   A    
C51   N11   A    
C28   H44   S    
C41   H49   S    
C47   C83   S    
C64   N24   A    
N5    Ni5   S    
C3    C75   A    
C93   C99   S    
C57   N17   A    
C66   N34   S    
C2    C74   A    
C39   C45   A    
C101  H56   S    
C58   N18   A    
N35   C103  S    
C10   C92   S    
N34   H57   S    
C2    N2    A    
C100  H28   S    
C111  N43   T    
C68   C85   A    
C41   C43   A    
C13   C25   A    
C62   C84   A    
C42   C44   A    
C54   N14   A    
C59   N19   A    
C8    H8    S    
N5    N16   A    
C3    N3    A    
C69   N29   A    
C6    N6    A    
C53   H13   S    
N6    N15   A    
N13   Ni6   S    
C65   N33   S    
N4    Ni4   S    
N3    N10   A    
C6    H6    S    
C106  H75   S    
C45   C81   S    
C4    C76   A    
N19   Ni1   S    
N1    N12   A    
C103  H62   S    
C60   N20   A    
C39   H47   S    
C20   C24   A    
N2    N11   A    
C15   C32   A    
C53   C80   A    
C61   N21   A    
C72   N32   A    
C97   H25   S    
C52   C73   A    
C61   C83   A    
N24   Ni6   S    
C105  H70   S    
N9    Ni2   S    
C55   C78   A    
C40   H48   S    
C95   C100  S    
C33   C79   S    
C99   H27   S    
C56   H16   S    
C27   C35   A    
N37   H69   S    
C64   H24   S    
C21   C29   A    
C35   C77   S    
C17   C21   A    
C56   C77   A    
C48   C84   S    
C89   C97   S    
N11   Ni4   S    
C23   C31   A    
C94   C96   S    
C104  H67   S    
C24   C32   A    
C64   C83   A    
N23   Ni5   S    
N39   H77   S    
C22   C30   A    
N7    Ni7   S    
C9    C86   S    
C105  H71   S    
C30   C76   S    
C60   C81   A    
C13   C30   A    
C15   C27   A    
N36   H65   S    
C94   C100  S    
C11   C88   S    
N25   N28   A    
C56   N16   A    
C25   C33   A    
C95   H35   S    
C106  H74   S    
C71   N39   S    
C49   C76   A    
C107  H79   S    
N8    N13   A    
C14   C26   A    
C1    N1    A    
C71   C88   A    
N16   Ni7   S    
N17   Ni3   S    
C52   N12   A    
C9    C97   S    
N26   Ni3   S    
C11   C94   S    
C53   N13   A    
C4    N4    A    
N4    N9    A    
C5    N5    A    
C108  H83   S    
N40   C108  S    
N39   C107  S    
C102  H60   S    
C7    H7    S    
C12   C93   S    
C89   C91   S    
C17   C34   A    
C14   C29   A    
C5    C77   A    
C116  N48   T    
C8    N8    A    
N31   Ni6   S    
C1    H1    S    
C62   H22   S    
C72   C87   A    
C43   H51   S    
C20   C116  S    
C57   H17   S    
C54   C79   A    
N29   N32   A    
C11   C95   S    
N35   H61   S    
C67   C86   A    
C59   H19   S    
C16   C112  S    
C12   C87   S    
N36   C104  S    
C72   N40   S    
C18   C22   A    
C49   N9    A    
C25   H41   S    
C61   H21   S    
C103  H63   S    
C69   C87   A    
C9    C90   S    
C66   C86   A    
N10   Ni1   S    
C63   H23   S    
C112  N44   T    
N38   C106  S    
N21   N24   A    
C63   N23   A    
C104  H68   S    
C29   C75   S    
C14   C110  S    
N37   C105  S    
C70   N38   S    
C22   H38   S    
C26   H42   S    
C51   H11   S    
C36   C78   S    
N7    N14   A    
C63   C84   A    
N14   Ni5   S    
C1    C73   A    
C98   H26   S    
C58   C82   A    
C49   H9    S    
C37   C39   A    
C65   C85   A    
N3    Ni3   S    
C50   C75   A    
C105  H72   S    
C38   C40   A    
N1    Ni1   S    
C54   H14   S    
C17   C113  S    
C94   H34   S    
C41   C48   A    
N21   Ni7   S    
C60   H20   S    
C107  H80   S    
C57   C81   A    
C42   C47   A    
C91   C98   S    
C42   H50   S    
C18   C33   A    
N34   C102  S    
C12   C100  S    
C31   C73   S    
N28   Ni1   S    
N8    Ni8   S    
C101  H54   S    
C90   H30   S    
C44   C48   A    
C70   N30   A    
C65   N25   A    
C7    N7    A    
C7    C79   A    
C28   C36   A    
C93   C95   S    
N33   H53   S    
N30   Ni7   S    
C108  H84   S    
N18   Ni4   S    
C107  H78   S    
C8    C80   A    
C2    H2    S    
N32   Ni5   S    
C12   C96   S    
C67   N27   A    
N17   N20   A    
C18   C114  S    
C37   H45   S    
C37   C46   A    
C108  H82   S    
C68   N36   S    
C43   C47   A    
C90   C98   S    
N30   N31   A    
N22   Ni8   S    
C101  H55   S    
C71   N31   A    
