data_mof_unit_2862.cif
_audit_creation_date              2012-12-10T20:31:51-0500
_audit_creation_method            fapswitch 2.2
_symmetry_space_group_name_H-M    P1
_symmetry_Int_Tables_number       1
_space_group_crystal_system       triclinic
_cell_length_a                    9.919918
_cell_length_b                    10.742778
_cell_length_c                    15.470533
_cell_angle_alpha                 89.488992
_cell_angle_beta                  67.390779
_cell_angle_gamma                 90.013009
_cell_volume                      1521.8813064

loop_
_atom_site_label
_atom_site_type_symbol
_atom_type_description
_atom_site_fract_x
_atom_site_fract_y
_atom_site_fract_z
_atom_type_partial_charge
C1    C     C_R   0.501063 0.739632 0.499187 0.926499
C2    C     C_R   0.404749 0.506879 0.915779 0.107847
C3    C     C_R   0.281313 0.429337 0.963306 0.019341
C4    C     C_R   0.509714 0.529913 0.955696 0.083221
C5    C     C_R   0.496964 0.465300 0.038873 -0.024788
C6    C     C_R   0.388028 0.370833 0.075227 -0.054581
C7    C     C_R   0.275184 0.362976 0.042808 -0.236994
C8    C     C_R   0.631334 0.610743 0.912934 -0.246674
C9    C     C_R   0.740211 0.622286 0.948071 -0.201374
C10   C     C_R   0.721178 0.569079 0.034104 0.219785
C11   C     C_R   0.593877 0.498152 0.082735 0.087926
C12   C     C_R   0.407594 0.502465 0.676035 0.897160
C13   C     C_R   0.820430 0.595440 0.076363 -0.194667
C14   C     C_R   0.785269 0.564476 0.170346 -0.225569
C15   C     C_R   0.556247 0.477048 0.178085 -0.269196
C16   C     C_R   0.395734 0.936625 0.482270 -0.106040
C17   C     C_R   0.500120 0.871532 0.503752 -0.248668
C18   C     C_R   0.596460 0.935742 0.535703 0.355181
C19   C     C_R   0.575637 0.063658 0.552585 0.345541
C20   C     C_R   0.492449 0.128846 0.511271 -0.249755
C21   C     C_R   0.399116 0.063414 0.480551 -0.098013
C22   C     C_3   0.359942 0.072262 0.396024 0.390683
C23   C     C_R   0.497994 0.260536 0.503333 0.954339
C24   C     C_3   0.346952 0.929184 0.401426 -0.267492
C25   C     C_R   0.884345 0.458885 0.576349 0.296768
C26   C     C_R   0.975416 0.529320 0.420987 -0.158781
C27   C     C_R   0.118817 0.529664 0.421038 -0.108856
C28   C     C_R   0.025954 0.463309 0.576756 0.083644
C29   C     C_3   0.976099 0.518970 0.671530 -0.351666
C30   C     C_3   0.821311 0.507715 0.674609 -0.327762
C31   C     C_R   0.591652 0.502564 0.324033 0.842124
C32   C     C_R   0.345762 0.499282 0.778141 -0.059983
C33   C     C_R   0.648995 0.511047 0.222283 -0.048654
C34   C     C_R   0.177998 0.405487 0.922351 -0.010809
C35   C     C_R   0.216338 0.435185 0.827649 -0.156424
C36   C     C_R   0.427471 0.547916 0.825044 -0.200986
H1    H     H_    0.192835 0.291753 0.072453 0.173603
H2    H     H_    0.920658 0.646137 0.038500 0.147768
H3    H     H_    0.251515 0.116871 0.414149 0.114608
H4    H     H_    0.231703 0.896976 0.427298 0.131499
H5    H     H_    0.959835 0.553813 0.357524 0.146768
H6    H     H_    0.209584 0.555796 0.357627 0.169077
H7    H     H_    0.000445 0.458081 0.721886 0.180411
H8    H     H_    0.448358 0.442958 0.220582 0.171783
H9    H     H_    0.762544 0.597339 0.680662 0.152430
H10   H     H_    0.858592 0.591224 0.203872 0.153612
H11   H     H_    0.833890 0.681291 0.911413 0.182097
H12   H     H_    0.150395 0.401503 0.791195 0.178375
H13   H     H_    0.518803 0.605233 0.784269 0.128873
H14   H     H_    0.647291 0.666152 0.851512 0.143581
N1    N     N_R   0.856900 0.500860 0.500610 -0.114448
N2    N     N_R   0.142540 0.500820 0.500610 -0.113678
O1    O     O_R   0.385310 0.683210 0.499990 -0.615047
O2    O     O_R   0.614650 0.683240 0.500000 -0.589440
O3    O     O_R   0.319830 0.499970 0.632240 -0.609315
O4    O     O_R   0.549170 0.500000 0.632250 -0.571999
O5    O     O_R   0.385350 0.316760 0.500000 -0.615907
O6    O     O_R   0.614690 0.316790 0.500010 -0.564410
O7    O     O_R   0.450830 0.500000 0.367750 -0.612703
O8    O     O_R   0.680170 0.500030 0.367760 -0.644305
Zn1   Zn    Zn3+2 0.346870 0.499980 0.499990 0.967097
Zn2   Zn    Zn3+2 0.653130 0.500020 0.500010 0.985981
O9    O     O_3   0.705524 0.873045 0.553780 -0.633416
C37   C     C_3   0.845590 0.909249 0.488253 0.123452
H15   H     H_    0.927790 0.869806 0.513270 0.149461
H16   H     H_    0.861285 0.012024 0.485209 0.160067
C38   C     C_3   0.876683 0.858598 0.389605 -0.453112
H17   H     H_    0.853913 0.757530 0.393365 0.258878
H18   H     H_    0.804768 0.904910 0.359477 0.197489
C39   C     C_3   0.035086 0.879168 0.323587 -0.870254
H19   H     H_    0.069653 0.976848 0.326624 0.282690
H20   H     H_    0.047368 0.858926 0.250677 0.275745
H21   H     H_    0.106574 0.814482 0.342610 0.272966
O10   O     O_3   0.639450 0.125153 0.605703 -0.607599
C40   C     C_3   0.579002 0.080207 0.699627 0.171021
H22   H     H_    0.650186 0.112749 0.735377 0.199934
H23   H     H_    0.579941 0.976970 0.705167 0.136757
C41   C     C_3   0.422777 0.128349 0.751835 -0.370050
H24   H     H_    0.417417 0.229111 0.737251 0.260467
H25   H     H_    0.346777 0.078724 0.726581 0.203099
C42   C     C_3   0.372435 0.107587 0.857304 -0.874426
H26   H     H_    0.379620 0.007390 0.873310 0.259089
H27   H     H_    0.257205 0.137582 0.892439 0.273196
H28   H     H_    0.440938 0.162900 0.885365 0.277231
O11   O     O_3   0.465737 0.129479 0.313761 -0.604959
C43   C     C_3   0.612053 0.086951 0.285189 0.102599
H29   H     H_    0.637036 0.027394 0.222651 0.174202
H30   H     H_    0.634077 0.032354 0.339169 0.105674
C44   C     C_3   0.716586 0.197953 0.256520 -0.376268
H31   H     H_    0.707324 0.246107 0.195260 0.226135
H32   H     H_    0.686781 0.263720 0.315417 0.235619
C45   C     C_3   0.874702 0.158436 0.231432 -0.897690
H33   H     H_    0.887848 0.116346 0.293464 0.273440
H34   H     H_    0.947040 0.241393 0.209139 0.268315
H35   H     H_    0.908201 0.090458 0.173335 0.266886
C46   C     C_2   0.443606 0.855684 0.318171 0.481338
H36   H     H_    0.545477 0.815909 0.315848 0.010125
O12   O     O_2   0.408656 0.841800 0.251375 -0.557119
C47   C     C_2   0.024535 0.652013 0.670653 0.513527
H37   H     H_    0.013316 0.718612 0.620627 0.046900
O13   O     O_2   0.076479 0.685961 0.726378 -0.585942
C48   C     C_2   0.737467 0.409396 0.744387 0.422538
H38   H     H_    0.751751 0.398588 0.810136 0.104149
O14   O     O_2   0.650844 0.342335 0.728837 -0.561298
C49   C     C_2   0.034712 0.344095 0.974809 0.355007
H39   H     H_    0.991736 0.337206 0.050513 0.077605
O15   O     O_2   0.960449 0.303388 0.934101 -0.588975
C50   C     C_2   0.402459 0.266184 0.134857 0.426245
H40   H     H_    0.507938 0.244842 0.136989 0.098608
O16   O     O_2   0.297528 0.201758 0.181116 -0.547985

loop_
_geom_bond_atom_site_label_1
_geom_bond_atom_site_label_2
_ccdc_geom_bond_type
O6    Zn2   S    
C23   O6    A    
C16   C21   A    
C30   H9    S    
C19   C20   A    
C27   H6    S    
C4    C8    A    
C14   C33   A    
C42   H26   S    
C14   H10   S    
O11   C43   S    
C25   C28   A    
C49   O15   D    
C37   C38   S    
C26   C27   A    
C32   C36   A    
C28   C29   S    
C15   H8    S    
C5    C11   A    
C3    C7    A    
N2    Zn1   S    
C24   C46   S    
C5    C6    A    
C41   H25   S    
C18   O9    S    
C50   H40   S    
O8    Zn2   S    
C34   C35   A    
C22   O11   S    
C31   O7    A    
C1    O1    A    
C11   C15   A    
C8    C9    A    
C46   O12   D    
C31   C33   S    
C39   H19   S    
C44   H32   S    
C9    C10   A    
C16   C24   S    
C21   C22   S    
C29   H7    S    
N1    Zn2   S    
O1    Zn1   S    
C35   H12   S    
C42   H27   S    
O7    Zn1   S    
O10   C40   S    
C29   C47   S    
C43   H30   S    
C38   H17   S    
C32   C35   A    
C41   H24   S    
C18   C19   A    
O2    Zn2   S    
C3    C34   A    
C43   C44   S    
C45   H35   S    
C38   H18   S    
C37   H16   S    
C31   O8    A    
C2    C4    A    
C40   H22   S    
C25   N1    A    
C29   C30   S    
C47   H37   S    
C20   C23   S    
C46   H36   S    
C30   C48   S    
C39   H21   S    
C45   H34   S    
C17   C18   A    
C7    H1    S    
C44   C45   S    
C48   O14   D    
C40   H23   S    
C13   H2    S    
C12   O4    A    
C1    O2    A    
C47   O13   D    
C9    H11   S    
O4    Zn2   S    
C8    H14   S    
C42   H28   S    
C27   N2    A    
C2    C36   A    
C25   C30   S    
C23   O5    A    
C43   H29   S    
C34   C49   S    
C19   O10   S    
C4    C5    A    
C10   C13   A    
O5    Zn1   S    
C6    C7    A    
C49   H39   S    
C1    C17   S    
C38   C39   S    
C37   H15   S    
C2    C3    A    
C26   N1    A    
C28   N2    A    
C41   C42   S    
C16   C17   A    
C22   H3    S    
O3    Zn1   S    
C45   H33   S    
C24   H4    S    
C50   O16   D    
C22   C24   S    
C48   H38   S    
C40   C41   S    
C12   O3    A    
C10   C11   A    
O9    C37   S    
C20   C21   A    
C6    C50   S    
C39   H20   S    
C44   H31   S    
C13   C14   A    
C15   C33   A    
C12   C32   S    
C36   H13   S    
C26   H5    S    
