data_mof_unit_2265.cif
_audit_creation_date              2013-03-05T16:48:11-0500
_audit_creation_method            fapswitch 2.2
_symmetry_space_group_name_H-M    P1
_symmetry_Int_Tables_number       1
_space_group_crystal_system       triclinic
_cell_length_a                    10.845918
_cell_length_b                    12.271336
_cell_length_c                    13.363806
_cell_angle_alpha                 116.301523
_cell_angle_beta                  78.855813
_cell_angle_gamma                 100.735374
_cell_volume                      1554.16762684

loop_
_atom_site_label
_atom_site_type_symbol
_atom_site_description
_atom_site_fract_x
_atom_site_fract_y
_atom_site_fract_z
_atom_type_partial_charge
O1    O     O_R   0.536940 0.972510 0.318130 -0.586693
O2    O     O_R   0.487330 0.806530 0.359650 -0.617272
C1    C     C_R   0.516274 0.853790 0.287133 0.770825
O3    O     O_R   0.705160 0.082990 0.479250 -0.575577
O4    O     O_R   0.655550 0.917010 0.520760 -0.599437
C2    C     C_R   0.736509 0.001920 0.505044 0.779372
Cu1   Cu    Cu3+1 0.529370 0.098270 0.475420 0.985739
Cu2   Cu    Cu3+1 0.470630 0.901730 0.524580 0.923572
O5    O     O_R   0.512670 0.193470 0.640350 -0.516828
O6    O     O_R   0.463060 0.027490 0.681870 -0.602093
O7    O     O_R   0.344450 0.082990 0.479240 -0.586248
O8    O     O_R   0.294840 0.917010 0.520750 -0.595961
C3    C     C_R   0.495096 0.145257 0.711574 0.821422
C4    C     C_R   0.262787 0.000583 0.499161 0.792684
H1    H     H_    0.597056 0.700176 0.780151 0.190605
C5    C     C_R   0.658999 0.875033 0.775177 -0.145670
H2    H     H_    0.593083 0.922610 0.847132 0.123991
C6    C     C_R   0.741164 0.938835 0.719635 -0.083884
H3    H     H_    0.737846 0.036037 0.749111 0.113201
C7    C     C_R   0.825924 0.876681 0.625309 0.121860
C8    C     C_R   0.830323 0.751075 0.590344 -0.171369
H4    H     H_    0.895644 0.701706 0.518433 0.132079
C9    C     C_R   0.748450 0.687943 0.646546 -0.116735
H5    H     H_    0.751063 0.590904 0.618344 0.178352
C10   C     C_R   0.661804 0.749571 0.737942 -0.114324
C11   C     C_R   0.041591 0.943346 0.558301 -0.236322
H6    H     H_    0.074318 0.897127 0.599433 0.155550
C12   C     C_R   0.128785 0.003742 0.501851 -0.083877
C13   C     C_R   0.085280 0.066673 0.451768 -0.010567
C14   C     C_R   0.956500 0.066767 0.458251 -0.216641
H7    H     H_    0.924363 0.111972 0.415798 0.165304
C15   C     C_R   0.869361 0.004095 0.511469 -0.079360
C16   C     C_R   0.911938 0.942523 0.564044 -0.000497
C17   C     C_R   0.168690 0.248738 0.413391 -0.155853
H8    H     H_    0.132950 0.307927 0.498504 0.131334
C18   C     C_R   0.206495 0.296760 0.333708 -0.148962
H9    H     H_    0.203103 0.392947 0.357952 0.132261
C19   C     C_R   0.240916 0.219063 0.221380 -0.143696
H10   H     H_    0.259440 0.254251 0.158207 0.134775
C20   C     C_R   0.247597 0.095293 0.189973 -0.143072
H11   H     H_    0.275794 0.035807 0.102959 0.125529
C21   C     C_R   0.210156 0.046886 0.269536 -0.114158
H12   H     H_    0.206286 0.949178 0.242681 0.110181
C22   C     C_R   0.165918 0.122664 0.380751 0.139234
C23   C     C_R   0.489116 0.257932 0.022327 -0.215516
H13   H     H_    0.469369 0.082984 0.884937 0.168932
H14   H     H_    0.411665 0.421640 0.224969 0.150126
H15   H     H_    0.466042 0.219029 0.083047 0.151837
C24   C     C_R   0.513788 0.228293 0.828925 -0.150232
C25   C     C_R   0.619560 0.820539 0.096734 -0.192990
C26   C     C_R   0.681871 0.746672 0.994560 -0.191755
C27   C     C_R   0.665500 0.620628 0.957978 -0.108387
C28   C     C_R   0.578909 0.564478 0.019367 0.102198
C29   C     C_R   0.522703 0.639697 0.128124 0.084196
C30   C     C_R   0.549817 0.434999 0.978113 -0.042394
C31   C     C_R   0.502897 0.384280 0.056661 0.128054
C32   C     C_R   0.455783 0.459229 0.165514 -0.222093
C33   C     C_R   0.449493 0.581250 0.194265 -0.208814
C34   C     C_R   0.552520 0.355795 0.862231 0.293451
C35   C     C_R   0.492175 0.180288 0.909038 -0.271177
C36   C     C_R   0.545483 0.769777 0.167667 -0.103138
H16   H     H_    0.638940 0.918703 0.124270 0.155740
H17   H     H_    0.725542 0.568771 0.883645 0.180024
H18   H     H_    0.747340 0.787834 0.945374 0.150774
H19   H     H_    0.386269 0.625999 0.268861 0.182397
C37   C     C_R   0.700698 0.347682 0.332166 -0.305097
H20   H     H_    0.725871 0.170549 0.314565 0.118379
H21   H     H_    0.739672 0.549384 0.301036 0.154645
H22   H     H_    0.779018 0.347987 0.268115 0.140017
N1    N     N_R   0.573890 0.246290 0.438210 -0.181438
C38   C     C_R   0.328792 0.758712 0.642723 0.066084
C39   C     C_R   0.290792 0.660130 0.671026 -0.267214
C40   C     C_R   0.353816 0.555903 0.615747 -0.155089
C41   C     C_R   0.456810 0.549430 0.531472 -0.011755
C42   C     C_R   0.491977 0.652589 0.505133 0.287174
C43   C     C_R   0.526965 0.445621 0.473210 -0.047184
C44   C     C_R   0.629455 0.446872 0.389676 0.153249
C45   C     C_R   0.661334 0.547594 0.364700 -0.279653
C46   C     C_R   0.594709 0.648185 0.421528 -0.164985
C47   C     C_R   0.501390 0.340327 0.494696 0.127373
C48   C     C_R   0.671305 0.247584 0.358177 0.076158
N2    N     N_R   0.426890 0.754320 0.561170 -0.206303
H23   H     H_    0.425045 0.330818 0.556079 0.139330
H24   H     H_    0.279179 0.839148 0.685680 0.127888
H25   H     H_    0.320018 0.482174 0.640732 0.158133
H26   H     H_    0.212082 0.664382 0.735806 0.149352
H27   H     H_    0.628399 0.720616 0.396803 0.211425
N3    N     N_R   0.574552 0.406376 0.781000 0.101829
O9    O     O_R   0.677106 0.389384 0.709264 -0.399163
O10   O     O_R   0.492467 0.470428 0.779456 -0.417158

loop_
_geom_bond_atom_site_label_1
_geom_bond_atom_site_label_2
_geom_bond_distance
_ccdc_geom_bond_type
C2    C15   1.454554 S    
C30   C31   1.415161 A    
C23   C35   1.383859 A    
C30   C34   1.415261 A    
C40   C41   1.410667 A    
Cu1   N1    2.039760 S    
C46   H27   1.060796 S    
Cu1   Cu2   2.706331 S    
C44   C45   1.385791 A    
Cu1   O7    1.972082 S    
C11   H6    1.084676 S    
C24   C35   1.399511 A    
C41   C43   1.435649 A    
Cu2   N2    2.027519 S    
O4    C2    1.297149 A    
C18   H9    1.082688 S    
C17   H8    1.083465 S    
C47   H23   1.076302 S    
C19   H10   1.079216 S    
O7    C4    1.300660 A    
H1    C10   1.081681 S    
C37   H22   1.083908 S    
C1    C36   1.476367 S    
C31   C32   1.387525 A    
C6    H3    1.083214 S    
N1    C48   1.353683 A    
O5    C3    1.295857 A    
C34   N3    1.436108 S    
C11   C16   1.391788 A    
C23   C31   1.395172 A    
C5    H2    1.081146 S    
C9    H5    1.082395 S    
C14   C15   1.394478 A    
C6    C7    1.406098 A    
C38   N2    1.357857 A    
C20   C21   1.396872 A    
C8    H4    1.083169 S    
C21   C22   1.403439 A    
O3    Cu1   1.962736 S    
C28   C30   1.425571 A    
H21   C45   1.084619 S    
C41   C42   1.426527 A    
N1    C47   1.362507 A    
C26   C27   1.387097 A    
C17   C22   1.405136 A    
C43   C44   1.418177 A    
O3    C2    1.303599 A    
C45   C46   1.382766 A    
C28   C29   1.419254 A    
C27   H17   1.076990 S    
O1    C1    1.312896 A    
C13   C14   1.382791 A    
H14   C32   1.081038 S    
C33   H19   1.075387 S    
Cu2   O8    1.962735 S    
C25   C26   1.384719 A    
C7    C8    1.406024 A    
C40   H25   1.077637 S    
C3    C24   1.472626 S    
C7    C16   1.484458 S    
C5    C6    1.399092 A    
C20   H11   1.082610 S    
N3    O10   1.301149 A    
H20   C48   1.081859 S    
C8    C9    1.397978 A    
C13   C22   1.473388 S    
C25   H16   1.083244 S    
C21   H12   1.083472 S    
C27   C28   1.411335 A    
C38   H24   1.081522 S    
C29   C33   1.415800 A    
C23   H15   1.081330 S    
C5    C10   1.396971 A    
Cu1   O5    1.974400 S    
C37   C44   1.400391 A    
C12   C13   1.408125 A    
H13   C35   1.081960 S    
O1    Cu1   1.978006 S    
O2    Cu2   1.974402 S    
C26   H18   1.082408 S    
C43   C47   1.411860 A    
O8    C4    1.299863 A    
C39   C40   1.393560 A    
O6    C3    1.313258 A    
O4    Cu2   1.972083 S    
C39   H26   1.082515 S    
C42   N2    1.383132 A    
C29   C36   1.429806 A    
C11   C12   1.404034 A    
C24   C34   1.425781 A    
C15   C16   1.415497 A    
C18   C19   1.396229 A    
O2    C1    1.298720 A    
C38   C39   1.391354 A    
C37   C48   1.385974 A    
C19   C20   1.397339 A    
C32   C33   1.382913 A    
C14   H7    1.085571 S    
C17   C18   1.395209 A    
C9    C10   1.396214 A    
N3    O9    1.302605 A    
Cu2   O6    1.978004 S    
C25   C36   1.405184 A    
C4    C12   1.454188 S    
C42   C46   1.407278 A    
