data_mof_unit_817.cif
_audit_creation_date              2013-03-05T15:51:08-0500
_audit_creation_method            fapswitch 2.2
_symmetry_space_group_name_H-M    P1
_symmetry_Int_Tables_number       1
_space_group_crystal_system       triclinic
_cell_length_a                    10.565025
_cell_length_b                    12.192304
_cell_length_c                    12.833717
_cell_angle_alpha                 95.307436
_cell_angle_beta                  92.950625
_cell_angle_gamma                 86.216699
_cell_volume                      1640.74851643

loop_
_atom_site_label
_atom_site_type_symbol
_atom_site_description
_atom_site_fract_x
_atom_site_fract_y
_atom_site_fract_z
_atom_type_partial_charge
O1    O     O_R   0.506270 0.421700 0.658830 -0.678929
O2    O     O_R   0.493730 0.578300 0.341170 -0.634665
O3    O     O_R   0.491200 0.609310 0.646410 -0.590137
O4    O     O_R   0.508800 0.390690 0.353590 -0.596212
C1    C     C_R   0.497775 0.523749 0.700334 0.897875
C2    C     C_R   0.500216 0.476085 0.299655 0.898709
O5    O     O_R   0.693580 0.406210 0.506230 -0.599691
O6    O     O_R   0.306420 0.593790 0.493770 -0.623135
O7    O     O_R   0.678510 0.593830 0.493810 -0.658222
O8    O     O_R   0.321490 0.406170 0.506190 -0.659554
C3    C     C_R   0.741332 0.499319 0.496671 0.921458
C4    C     C_R   0.258697 0.500765 0.503578 0.921557
Zn1   Zn    Zn3+2 0.510060 0.374730 0.508290 0.940242
Zn2   Zn    Zn3+2 0.489940 0.625270 0.491710 0.957850
C5    C     C_3   0.967144 0.396195 0.469351 -0.076194
C6    C     C_3   0.032961 0.604232 0.531182 -0.076343
C7    C     C_3   0.048035 0.431017 0.568551 0.024169
C8    C     C_3   0.952038 0.569435 0.432009 0.013511
C9    C     C_3   0.124495 0.502215 0.505377 -0.073377
C10   C     C_3   0.875538 0.498156 0.495135 -0.073164
C11   C     C_3   0.043028 0.468776 0.406616 0.038059
C12   C     C_3   0.956976 0.531730 0.593971 0.049425
C13   C     C_R   0.500817 0.457483 0.186801 -0.114417
C14   C     C_R   0.496047 0.541932 0.813141 -0.062330
C15   C     C_R   0.575139 0.630003 0.978101 -0.043513
C16   C     C_R   0.411410 0.374424 0.022922 -0.024244
C17   C     C_R   0.566596 0.623805 0.868574 -0.011302
C18   C     C_R   0.427388 0.377071 0.132280 0.027546
C19   C     C_R   0.425773 0.473149 0.865998 -0.021957
C20   C     C_R   0.568639 0.527433 0.133386 0.063658
C21   C     C_R   0.455457 0.462384 0.972174 0.004120
C22   C     C_R   0.532876 0.541273 0.028683 0.057272
N1    N     N_R   0.523490 0.207800 0.519350 -0.157794
N2    N     N_R   0.476510 0.792200 0.480650 -0.179499
C23   C     C_R   0.365281 0.951418 0.410740 0.043245
C24   C     C_R   0.634753 0.047648 0.587655 0.022091
C25   C     C_R   0.378030 0.836928 0.421181 0.100795
C26   C     C_R   0.622376 0.162702 0.578073 0.061735
C27   C     C_R   0.562554 0.859261 0.533229 0.196246
C28   C     C_R   0.436909 0.141212 0.466705 0.177955
C29   C     C_R   0.549451 0.976584 0.530698 0.019503
C30   C     C_R   0.449464 0.023742 0.468501 -0.048755
N3    N     N_3   0.101289 0.359426 0.646580 -0.447951
H1    H     H_    0.025709 0.333412 0.685404 0.253267
H2    H     H_    0.144062 0.289129 0.607115 0.178925
N4    N     N_3   0.899164 0.641261 0.354038 -0.443177
H3    H     H_    0.975095 0.668830 0.316770 0.245229
H4    H     H_    0.854417 0.710611 0.393512 0.192936
C31   C     C_2   0.934745 0.281301 0.430830 0.470753
H5    H     H_    0.981117 0.211423 0.466944 0.084639
O9    O     O_2   0.859431 0.265694 0.356463 -0.556226
C32   C     C_2   0.066189 0.719142 0.568791 0.444670
H6    H     H_    0.023099 0.788669 0.530161 0.092071
O10   O     O_2   0.139122 0.735178 0.644701 -0.557594
N5    N     N_3   0.093359 0.436442 0.304119 -0.451644
H7    H     H_    0.016003 0.422248 0.251647 0.225980
H8    H     H_    0.143685 0.360444 0.309593 0.175439
N6    N     N_3   0.906574 0.563890 0.696535 -0.454633
H9    H     H_    0.983782 0.579717 0.748719 0.224187
H10   H     H_    0.854126 0.638933 0.691027 0.179635
N7    N     N_3   0.679002 0.578012 0.182794 -0.373288
H11   H     H_    0.707764 0.542520 0.251801 0.202287
H12   H     H_    0.754764 0.557001 0.133950 0.171551
N8    N     N_3   0.316082 0.423973 0.814993 -0.438475
H13   H     H_    0.258947 0.485217 0.780347 0.218432
H14   H     H_    0.343705 0.362569 0.757094 0.212764
N9    N     N_3   0.373321 0.296794 0.188542 -0.448030
H15   H     H_    0.275039 0.301530 0.174394 0.231548
H16   H     H_    0.410379 0.218086 0.162115 0.221902
N10   N     N_3   0.627099 0.701164 0.813160 -0.461433
H17   H     H_    0.723771 0.698088 0.835215 0.170437
H18   H     H_    0.587465 0.780519 0.833988 0.203247
C33   C     C_2   0.620335 0.732276 0.036889 0.436869
H19   H     H_    0.695176 0.776053 0.007522 0.052327
O11   O     O_2   0.569799 0.771439 0.116610 -0.532504
C34   C     C_2   0.360689 0.275510 0.962017 0.440749
H20   H     H_    0.406351 0.240976 0.891464 0.060263
O12   O     O_2   0.266968 0.233373 0.988117 -0.566003
N11   N     N_3   0.330043 0.191024 0.412857 -0.497581
H21   H     H_    0.264241 0.221308 0.467787 0.186902
H22   H     H_    0.359064 0.254376 0.372952 0.258766
N12   N     N_3   0.669176 0.810433 0.588607 -0.437408
H23   H     H_    0.639947 0.746999 0.628356 0.252303
H24   H     H_    0.735891 0.779909 0.534499 0.189694
C35   C     C_2   0.715985 0.234461 0.634683 0.422100
H25   H     H_    0.686618 0.309768 0.679570 0.114256
O13   O     O_2   0.829533 0.209378 0.632285 -0.643215
C36   C     C_2   0.282581 0.765829 0.365760 0.504198
H26   H     H_    0.308805 0.685588 0.328673 0.112327
O14   O     O_2   0.170509 0.797271 0.360467 -0.622515
N13   N     N_3   0.270063 0.989409 0.336030 -0.390304
H27   H     H_    0.197985 0.037208 0.374624 0.221764
H28   H     H_    0.311592 0.031845 0.280771 0.220067
N14   N     N_3   0.729975 0.003967 0.659388 -0.428906
H29   H     H_    0.722472 0.047296 0.733250 0.197418
H30   H     H_    0.819942 0.010869 0.631381 0.247402

loop_
_geom_bond_atom_site_label_1
_geom_bond_atom_site_label_2
_geom_bond_distance
_ccdc_geom_bond_type
N5    H7    1.044889 S    
C8    C11   1.529403 S    
C29   C30   1.414782 A    
C25   C36   1.483806 S    
C14   C17   1.403682 A    
O7    Zn2   2.003077 S    
C27   C29   1.431221 A    
C35   H25   1.074298 S    
Zn1   N1    2.048372 S    
O1    C1    1.306685 A    
C9    C11   1.533599 S    
C34   O12   1.220521 D    
N6    H10   1.044121 S    
N2    C25   1.372142 A    
C33   H19   1.084307 S    
O4    Zn1   2.012005 S    
N7    H12   1.046014 S    
C23   C30   1.425758 A    
C14   C19   1.397842 A    
C31   O9    1.220009 D    
C16   C34   1.490073 S    
N10   H17   1.044896 S    
C15   C33   1.489817 S    
N7    H11   1.043908 S    
C17   N10   1.433320 S    
C15   C22   1.419375 A    
C28   C30   1.431820 A    
C19   N8    1.439430 S    
C16   C21   1.420259 A    
C33   O11   1.221495 D    
C24   C29   1.419600 A    
O2    C2    1.308168 A    
C8    N4    1.456112 S    
C32   O10   1.220000 D    
C35   O13   1.219525 D    
C5    C10   1.545850 S    
N4    H4    1.042938 S    
C3    C10   1.418161 S    
N1    C28   1.373038 A    
C26   C35   1.481210 S    
N9    H15   1.043601 S    
C13   C20   1.396454 A    
C18   N9    1.432694 S    
C34   H20   1.085120 S    
O4    C2    1.298375 A    
N13   H27   1.044849 S    
C11   N5    1.454962 S    
N6    H9    1.044864 S    
N2    C27   1.372261 A    
N9    H16   1.045500 S    
N8    H14   1.043258 S    
O5    C3    1.290733 A    
N3    H1    1.044072 S    
C7    N3    1.456063 S    
C12   N6    1.455675 S    
N13   H28   1.045469 S    
N3    H2    1.042808 S    
C21   C22   1.426111 A    
C5    C11   1.538158 S    
O6    C4    1.290292 A    
C28   N11   1.424077 S    
C13   C18   1.403640 A    
N14   H30   1.044536 S    
O7    C3    1.293856 A    
O3    Zn2   2.012007 S    
O8    C4    1.294330 A    
C36   O14   1.220731 D    
N12   H23   1.036564 S    
N12   H24   1.041858 S    
N5    H8    1.043736 S    
O6    Zn2   2.003169 S    
O1    Zn1   1.965298 S    
C32   H6    1.084066 S    
N11   H22   1.036091 S    
C5    C7    1.538600 S    
N4    H3    1.044086 S    
C6    C12   1.538579 S    
C23   C25   1.411584 A    
C6    C32   1.497135 S    
C27   N12   1.426816 S    
C10   C12   1.534553 S    
O3    C1    1.300392 A    
O8    Zn1   2.003077 S    
Zn2   N2    2.048372 S    
C15   C17   1.399233 A    
C16   C18   1.402566 A    
C7    C12   1.530382 S    
N8    H13   1.045927 S    
C24   C26   1.416362 A    
C19   C21   1.398565 A    
C20   C22   1.399320 A    
C1    C14   1.445064 S    
C6    C9    1.545962 S    
C2    C13   1.445389 S    
C4    C9    1.418143 S    
C7    C9    1.534144 S    
C8    C10   1.534657 S    
C5    C31   1.497202 S    
N14   H29   1.045696 S    
O2    Zn2   1.965295 S    
N11   H21   1.041649 S    
C24   N14   1.438005 S    
O5    Zn1   2.003167 S    
C36   H26   1.073349 S    
C6    C8    1.538440 S    
C31   H5    1.084114 S    
C20   N7    1.445102 S    
N1    C26   1.371700 A    
N10   H18   1.045514 S    
C23   N13   1.437786 S    
