data_mof_unit_2915.cif
_audit_creation_date              2012-12-10T17:15:08-0500
_audit_creation_method            fapswitch 2.2
_symmetry_space_group_name_H-M    P1
_symmetry_Int_Tables_number       1
_space_group_crystal_system       triclinic
_cell_length_a                    10.095623
_cell_length_b                    10.841723
_cell_length_c                    12.861619
_cell_angle_alpha                 91.861883
_cell_angle_beta                  90.525888
_cell_angle_gamma                 94.876153
_cell_volume                      1401.81867474

loop_
_atom_site_label
_atom_site_type_symbol
_atom_type_description
_atom_site_fract_x
_atom_site_fract_y
_atom_site_fract_z
_atom_type_partial_charge
C1    C     C_R   0.444621 0.267599 0.495567 0.956682
C2    C     C_R   0.667677 0.571669 0.037918 -0.227718
C3    C     C_R   0.335162 0.439137 0.854695 0.466223
C4    C     C_R   0.664773 0.561110 0.145350 0.465986
C5    C     C_R   0.559676 0.542389 0.871266 -0.273888
C6    C     C_R   0.440372 0.457636 0.128736 -0.273352
C7    C     C_R   0.557067 0.528886 0.977245 0.093295
C8    C     C_R   0.442974 0.471184 0.022767 0.093534
C9    C     C_2   0.411764 0.136214 0.501480 -0.302802
C10   C     C_2   0.583643 0.864361 0.522812 -0.324640
C11   C     C_2   0.506906 0.066570 0.530890 -0.136784
C12   C     C_R   0.554431 0.732507 0.509424 0.966341
C13   C     C_2   0.482052 0.934824 0.527908 -0.149633
C14   C     C_2   0.070015 0.484950 0.503296 -0.046266
C15   C     C_2   0.929988 0.515059 0.496716 -0.045158
C16   C     C_R   0.471762 0.499931 0.698585 0.927500
C17   C     C_R   0.528239 0.500098 0.301424 0.935317
C18   C     C_R   0.548559 0.504058 0.190682 -0.202480
C19   C     C_R   0.451443 0.496033 0.809333 -0.200356
C20   C     C_R   0.332322 0.428493 0.962115 -0.228326
H1    H     H_    0.352137 0.412748 0.163641 0.185316
H2    H     H_    0.095878 0.407165 0.547808 0.216717
H3    H     H_    0.865109 0.375499 0.583469 0.181294
H4    H     H_    0.134886 0.624500 0.416532 0.182459
H5    H     H_    0.988795 0.734436 0.187106 0.383459
H6    H     H_    0.010924 0.266154 0.812896 0.382924
H7    H     H_    0.647930 0.587228 0.836351 0.185469
H8    H     H_    0.244696 0.385466 0.998744 0.208397
H9    H     H_    0.755286 0.614760 0.001309 0.208121
H10   H     H_    0.379126 0.895812 0.523295 0.195186
H11   H     H_    0.606933 0.105932 0.551179 0.190178
H12   H     H_    0.686316 0.903846 0.527214 0.166145
H13   H     H_    0.312044 0.096365 0.481096 0.160339
H14   H     H_    0.904127 0.592852 0.452213 0.216470
N1    N     N_2   0.162330 0.550370 0.457540 -0.196558
N2    N     N_2   0.837670 0.449630 0.542460 -0.196083
O1    O     O_R   0.567930 0.307680 0.508550 -0.628021
O2    O     O_2   0.877105 0.518813 0.258467 -0.320120
O3    O     O_3   0.910022 0.709805 0.142267 -0.548966
O4    O     O_2   0.123129 0.482033 0.741441 -0.320319
O5    O     O_2   0.235596 0.296273 0.693271 -0.337410
O6    O     O_3   0.089276 0.291425 0.857972 -0.549258
O7    O     O_R   0.432070 0.692320 0.491450 -0.627245
O8    O     O_R   0.351090 0.340020 0.481290 -0.594882
O9    O     O_R   0.648910 0.659980 0.518710 -0.594546
O10   O     O_R   0.590490 0.486480 0.665020 -0.625030
O11   O     O_R   0.409510 0.513520 0.334980 -0.621931
O12   O     O_R   0.373660 0.518820 0.637760 -0.549744
O13   O     O_R   0.626340 0.481180 0.362240 -0.546694
O14   O     O_2   0.763761 0.703949 0.307015 -0.335973
S1    S     S_3+6 0.805878 0.623821 0.217841 0.005148
S2    S     S_3+6 0.193828 0.376819 0.782284 0.004325
Zn1   Zn    Zn3+2 0.644780 0.478400 0.518200 1.013624
Zn2   Zn    Zn3+2 0.355220 0.521600 0.481800 1.013734

loop_
_geom_bond_atom_site_label_1
_geom_bond_atom_site_label_2
_ccdc_geom_bond_type
O3    S1    S    
C3    S2    S    
C3    C19   A    
C5    C19   A    
N2    Zn1   S    
C10   H12   S    
C9    C11   D    
C13   H10   S    
C15   H14   S    
C2    C4    A    
C2    C7    A    
O5    S2    D    
C1    O1    A    
C4    C18   A    
C16   O12   A    
O14   S1    D    
O1    Zn1   S    
C3    C20   A    
C5    H7    S    
H5    O3    S    
N1    Zn2   S    
O12   Zn2   S    
C11   C13   S    
C14   H2    S    
C8    C20   A    
C10   C12   S    
C9    H13   S    
C2    H9    S    
O13   Zn1   S    
O10   Zn1   S    
C17   C18   S    
C12   O7    A    
O11   Zn2   S    
C16   C19   S    
C6    C18   A    
O7    Zn2   S    
H4    N1    S    
C4    S1    S    
C11   H11   S    
C20   H8    S    
O8    Zn2   S    
C15   N2    D    
C7    C8    A    
C1    C9    S    
H6    O6    S    
H3    N2    S    
C16   O10   A    
C14   N1    D    
C5    C7    A    
C14   C15   S    
C6    C8    A    
O2    S1    D    
C1    O8    A    
O4    S2    D    
C6    H1    S    
O9    Zn1   S    
C17   O13   A    
C17   O11   A    
O6    S2    S    
C12   O9    A    
C10   C13   D    
