data_mof_unit_3964.cif
_audit_creation_date              2012-12-10T16:47:56-0500
_audit_creation_method            fapswitch 2.2
_symmetry_space_group_name_H-M    P1
_symmetry_Int_Tables_number       1
_space_group_crystal_system       triclinic
_cell_length_a                    7.799217
_cell_length_b                    8.567671
_cell_length_c                    10.647999
_cell_angle_alpha                 91.186624
_cell_angle_beta                  86.43108
_cell_angle_gamma                 93.321827
_cell_volume                      708.833811895

loop_
_atom_site_label
_atom_site_type_symbol
_atom_type_description
_atom_site_fract_x
_atom_site_fract_y
_atom_site_fract_z
_atom_type_partial_charge
C1    C     C_R   0.545433 0.794534 0.498124 0.957164
C2    C     C_2   0.569369 0.957978 0.500076 -0.377097
C3    C     C_2   0.358308 0.657093 0.093283 0.915697
C4    C     C_3   0.951486 0.281123 0.304413 0.203540
C5    C     C_3   0.039248 0.134763 0.340290 -0.429407
C6    C     C_3   0.971349 0.989796 0.269052 -0.899677
C7    C     C_2   0.430587 0.042141 0.505866 -0.376635
C8    C     C_R   0.502541 0.497016 0.737459 0.926216
C9    C     C_R   0.454636 0.205520 0.503806 0.939248
C10   C     C_R   0.499648 0.514441 0.262769 0.840076
C11   C     C_2   0.647882 0.547386 0.060839 -0.215080
C12   C     C_2   0.503593 0.567117 0.134383 -0.196923
C13   C     C_2   0.647666 0.549642 0.925304 -0.111008
C14   C     C_2   0.509127 0.490306 0.869976 -0.281880
H1    H     H_    0.763494 0.506276 0.097978 0.192801
H2    H     H_    0.179868 0.151292 0.316989 0.244754
H3    H     H_    0.017005 0.116379 0.443148 0.221266
H4    H     H_    0.829503 0.973217 0.284582 0.260584
H5    H     H_    0.030833 0.884830 0.302564 0.298201
H6    H     H_    0.004779 0.001343 0.166603 0.266583
H7    H     H_    0.763402 0.592062 0.871473 0.166524
H8    H     H_    0.395985 0.440965 0.922974 0.139592
H9    H     H_    0.700553 0.008642 0.496940 0.180977
H10   H     H_    0.299239 0.991531 0.510608 0.180472
H11   H     H_    0.987528 0.595718 0.609107 0.140815
H12   H     H_    0.283389 0.830670 0.987438 0.334811
H13   H     H_    0.966034 0.292434 0.200481 0.138217
H14   H     H_    0.812950 0.267306 0.328082 0.174021
N1    N     N_2   0.950320 0.457950 0.466680 0.101059
N2    N     N_2   0.049680 0.542050 0.533320 -0.080928
O1    O     O_R   0.389250 0.738570 0.508180 -0.613351
O2    O     O_R   0.391516 0.778469 0.007696 -0.794049
O3    O     O_3   0.033219 0.415739 0.357114 -0.487637
O4    O     O_R   0.678390 0.711630 0.486820 -0.631930
O5    O     O_R   0.355470 0.513470 0.691600 -0.621048
O6    O     O_R   0.644610 0.486520 0.670240 -0.644701
O7    O     O_R   0.321610 0.288370 0.513180 -0.614125
O8    O     O_R   0.610750 0.261430 0.491820 -0.646228
O9    O     O_R   0.355390 0.513480 0.329760 -0.521733
O10   O     O_R   0.644530 0.486530 0.308400 -0.640414
O11   O     O_2   0.210890 0.626420 0.135176 -0.611813
Zn1   Zn    Zn3+2 0.306940 0.517990 0.514260 1.012125
Zn2   Zn    Zn3+2 0.693060 0.482010 0.485740 0.960921

loop_
_geom_bond_atom_site_label_1
_geom_bond_atom_site_label_2
_ccdc_geom_bond_type
C11   C12   D    
H12   O2    S    
N1    N2    D    
O1    Zn1   S    
C6    H6    S    
C2    C7    D    
C14   H8    S    
C9    O7    A    
C13   H7    S    
O8    Zn2   S    
C13   C14   D    
N1    Zn2   S    
C6    H5    S    
C11   C13   S    
C5    C6    S    
C10   C12   S    
C9    O8    A    
C4    H14   S    
C1    O4    A    
O7    Zn1   S    
O9    Zn1   S    
C3    O11   D    
C3    O2    S    
C6    H4    S    
C5    H3    S    
C7    H10   S    
N1    O3    S    
C1    O1    A    
C4    H13   S    
C10   O10   A    
C1    C2    S    
C8    O6    A    
C2    H9    S    
C7    C9    S    
O5    Zn1   S    
C4    O3    S    
H11   N2    S    
O6    Zn2   S    
C8    C14   S    
C3    C12   S    
C11   H1    S    
C10   O9    A    
O10   Zn2   S    
N2    Zn1   S    
O4    Zn2   S    
C4    C5    S    
C5    H2    S    
C8    O5    A    
