data_mof_unit_1046.cif
_audit_creation_date              2012-12-11T16:33:26-0500
_audit_creation_method            fapswitch 2.2
_symmetry_space_group_name_H-M    P1
_symmetry_Int_Tables_number       1
_space_group_crystal_system       triclinic
_cell_length_a                    6.945315
_cell_length_b                    18.097151
_cell_length_c                    20.35661
_cell_angle_alpha                 68.59513
_cell_angle_beta                  90.888671
_cell_angle_gamma                 90.92075
_cell_volume                      2381.71324166

loop_
_atom_site_label
_atom_site_type_symbol
_atom_type_description
_atom_site_fract_x
_atom_site_fract_y
_atom_site_fract_z
_atom_type_partial_charge
O1    O     O_R   0.488960 0.443750 0.941980 -0.559141
O2    O     O_R   0.823890 0.406510 0.087590 -0.556604
O3    O     O_R   0.999680 0.556250 0.058020 -0.535919
C1    C     C_R   0.655964 0.384209 0.115632 0.653817
O4    O     O_R   0.818360 0.434410 0.944340 -0.511044
O5    O     O_R   0.994110 0.584350 0.913750 -0.511014
C2    C     C_R   0.648560 0.420140 0.924020 0.727410
O6    O     O_R   0.494530 0.415650 0.086250 -0.539198
O7    O     O_3   0.662590 0.549160 0.990130 -0.355208
V1    V     V_3+5 0.935320 0.490880 0.001830 1.543804
O8    O     O_R   0.324180 0.593490 0.912410 -0.545573
C3    C     C_R   0.154735 0.618233 0.886071 0.831515
O9    O     O_R   0.329720 0.565590 0.055660 -0.507161
C4    C     C_R   0.163398 0.575939 0.079191 0.796511
V2    V     V_3+5 0.435990 0.509120 0.998170 1.541669
O10   O     O_3   0.158850 0.450840 0.009870 -0.381844
C5    C     C_3   0.062435 0.702509 0.313390 -0.063726
C6    C     C_3   0.251695 0.686414 0.281740 -0.202692
H1    H     H_    0.349402 0.635715 0.307053 0.129330
C7    C     C_1   0.159533 0.621299 0.125101 -0.035686
C8    C     C_1   0.106119 0.877604 0.375642 -0.070696
C9    C     C_3   0.959642 0.721431 0.241592 -0.055285
C10   C     C_3   0.147174 0.706353 0.209673 0.093136
C11   C     C_3   0.013990 0.810472 0.220351 -0.164222
C12   C     C_3   0.118071 0.790906 0.292473 0.091356
C13   C     C_3   0.203863 0.795092 0.187885 -0.148632
C14   C     C_3   0.305201 0.775550 0.260416 0.025055
C15   C     C_1   0.155956 0.659511 0.163280 0.074919
C16   C     C_1   0.109701 0.838754 0.338035 0.095525
H2    H     H_    0.264705 0.833031 0.136257 0.161022
H3    H     H_    0.916259 0.861162 0.195117 0.143890
H4    H     H_    0.500499 0.547219 0.712430 0.144697
C17   C     C_R   0.007720 0.778130 0.870534 0.348292
C18   C     C_R   0.900097 0.845328 0.862398 -0.083504
C19   C     C_R   0.858484 0.899567 0.796017 -0.197289
C20   C     C_R   0.930779 0.888890 0.737128 -0.164226
C21   C     C_R   0.033150 0.819414 0.742603 0.028621
C22   C     C_R   0.060804 0.759494 0.810763 -0.004655
C23   C     C_R   0.116818 0.811830 0.682039 -0.145679
C24   C     C_R   0.215622 0.740313 0.688878 -0.032803
C25   C     C_R   0.216004 0.675278 0.755216 0.020366
C26   C     C_R   0.143748 0.685461 0.816631 -0.148968
C27   C     C_R   0.310116 0.729265 0.631283 0.376357
C28   C     C_R   0.438502 0.666016 0.643733 -0.055348
C29   C     C_R   0.424700 0.601288 0.706588 -0.305163
C30   C     C_R   0.294039 0.601569 0.757622 -0.023868
H5    H     H_    0.857554 0.858115 0.908091 0.171084
H6    H     H_    0.779855 0.952813 0.790274 0.140977
H7    H     H_    0.906473 0.937257 0.687870 0.129625
H8    H     H_    0.397759 0.357641 0.417035 0.120194
C31   C     C_R   0.722075 0.097139 0.256509 -0.232308
C32   C     C_R   0.774537 0.084747 0.195627 -0.164871
C33   C     C_R   0.783889 0.148231 0.131573 0.450625
C34   C     C_R   0.742071 0.224640 0.128210 -0.188760
C35   C     C_R   0.691026 0.239469 0.189414 0.021541
C36   C     C_R   0.679388 0.174088 0.254838 0.074511
C37   C     C_R   0.650425 0.317704 0.185770 -0.162796
C38   C     C_R   0.599629 0.330708 0.248697 -0.007682
C39   C     C_R   0.571782 0.263355 0.312621 0.073091
C40   C     C_R   0.619296 0.185779 0.316496 -0.155999
C41   C     C_R   0.574080 0.408372 0.251142 -0.028253
C42   C     C_R   0.493289 0.416240 0.310966 -0.116400
C43   C     C_R   0.454983 0.350244 0.370666 -0.167277
C44   C     C_R   0.499861 0.275119 0.372623 -0.142128
H9    H     H_    0.713180 0.045397 0.304594 0.130743
H10   H     H_    0.806198 0.025302 0.198295 0.143939
H11   H     H_    0.749720 0.271796 0.076987 0.133021
H12   H     H_    0.469418 0.474374 0.313092 0.136124
H13   H     H_    0.476101 0.226450 0.421995 0.110707
O11   O     O_R   0.770540 0.084530 0.414050 -0.545547
O12   O     O_R   0.445710 0.065660 0.555720 -0.544943
O13   O     O_R   0.270420 0.915650 0.586190 -0.527775
C45   C     C_R   0.615399 0.079884 0.576274 0.700297
O14   O     O_R   0.441140 0.093540 0.412470 -0.548165
O15   O     O_R   0.265820 0.943740 0.441930 -0.514726
C46   C     C_R   0.609615 0.116904 0.385198 0.669638
O16   O     O_R   0.775150 0.056440 0.558310 -0.547420
O17   O     O_3   0.602370 0.950960 0.510050 -0.339805
V3    V     V_3+5 0.329450 0.009140 0.498150 1.483360
O18   O     O_R   0.935790 0.934280 0.444060 -0.524555
C47   C     C_R   0.102217 0.923517 0.421021 0.798891
O19   O     O_R   0.940370 0.906390 0.587310 -0.534577
C48   C     C_R   0.109464 0.881663 0.613872 0.783248
V4    V     V_3+5 0.828810 0.990710 0.501460 1.515555
O20   O     O_3   0.105780 0.049100 0.489960 -0.388241
C49   C     C_3   0.743650 0.315069 0.721969 0.031453
C50   C     C_3   0.563749 0.296408 0.685018 -0.201493
H14   H     H_    0.507956 0.333778 0.632091 0.116112
H15   H     H_    0.303110 0.291614 0.760773 0.130670
C51   C     C_1   0.625612 0.125760 0.621639 -0.193179
C52   C     C_1   0.638393 0.374703 0.878322 -0.121127
C53   C     C_3   0.813508 0.228895 0.742713 -0.210386
C54   C     C_3   0.632038 0.210030 0.706916 0.154604
C55   C     C_3   0.701316 0.205928 0.812977 -0.122081
C56   C     C_3   0.633132 0.292355 0.791455 0.145991
C57   C     C_3   0.520097 0.186353 0.776515 -0.117889
C58   C     C_3   0.452090 0.273332 0.755421 -0.158713
C59   C     C_1   0.629958 0.163829 0.659960 -0.052271
C60   C     C_1   0.634258 0.337410 0.839381 0.039047
H16   H     H_    0.427353 0.132683 0.798895 0.127352
H17   H     H_    0.757495 0.168699 0.865882 0.169049
H18   H     H_    0.962682 0.210907 0.737223 0.119228
Cl1   Cl    Cl    0.225436 0.773122 0.544128 -0.580813
C61   C     C_2   0.572599 0.661140 0.589396 0.560226
H19   H     H_    0.638717 0.604959 0.595683 0.043040
O21   O     O_2   0.616753 0.719920 0.538617 -0.452079
C62   C     C_2   0.220329 0.522455 0.803040 0.438711
H20   H     H_    0.314250 0.471587 0.818852 0.032123
O22   O     O_2   0.049723 0.511945 0.817368 -0.509704
Cl2   Cl    Cl    0.847077 0.132083 0.054772 -0.663410
C63   C     C_2   0.982327 0.648836 0.382542 0.482687
H21   H     H_    0.948843 0.587434 0.390559 -0.016194
O23   O     O_2   0.954265 0.673549 0.429848 -0.461610
C64   C     C_2   0.652833 0.482232 0.197931 0.338619
H22   H     H_    0.786481 0.481244 0.171734 0.044573
O24   O     O_2   0.573541 0.545748 0.185150 -0.525535
C65   C     C_2   0.870242 0.386457 0.688903 0.348609
H23   H     H_    0.943709 0.394263 0.640168 0.042838
O25   O     O_2   0.891236 0.435955 0.716163 -0.507010
C66   C     C_2   0.497729 0.807906 0.271026 0.380614
H24   H     H_    0.568176 0.853071 0.227081 0.041590
O26   O     O_2   0.573993 0.784875 0.329306 -0.496834
C67   C     C_2   0.766839 0.689857 0.230094 0.429732
H25   H     H_    0.698239 0.642354 0.272755 0.033243
O27   O     O_2   0.688603 0.716052 0.172227 -0.496208
Cl3   Cl    Cl    0.104882 0.732764 0.955299 -0.690661

loop_
_geom_bond_atom_site_label_1
_geom_bond_atom_site_label_2
_ccdc_geom_bond_type
C33   Cl2   S    
C50   H14   S    
C25   C26   A    
H4    C29   S    
C19   C20   A    
C1    O6    A    
O12   V3    S    
C64   H22   S    
C28   C61   S    
C67   H25   S    
C29   C30   A    
C28   C29   A    
C39   C44   A    
C21   C22   A    
O14   C46   A    
C20   C21   A    
C11   C13   S    
C45   C51   S    
C22   C26   A    
O13   V3    S    
C65   O25   D    
O5    C3    A    
C56   C60   S    
C67   O27   D    
V2    O10   S    
C50   C54   S    
C6    H1    S    
C18   C19   A    
C31   H9    S    
C10   C13   S    
C53   C54   S    
C3    C26   S    
O8    V2    S    
C24   C27   A    
C63   H21   S    
C55   H17   S    
C1    C37   S    
C25   C30   A    
O1    V2    S    
O11   V4    S    
O7    V1    S    
C53   H18   S    
C38   C41   A    
C66   H24   S    
C39   C40   A    
O1    C2    A    
O9    C4    A    
C30   C62   S    
H8    C43   S    
C62   O22   D    
C55   C56   S    
C19   H6    S    
C5    C63   S    
C61   O21   D    
C61   H19   S    
C66   O26   D    
C5    C6    S    
C12   C16   S    
C31   C32   A    
C4    C7    S    
C9    C67   S    
C11   C12   S    
C23   C24   A    
O12   C45   A    
O17   V3    S    
O15   C47   A    
C34   H11   S    
C7    C15   T    
O16   V4    S    
C38   C39   A    
C14   C66   S    
C8    C16   T    
C40   C46   S    
C6    C10   S    
H15   C58   S    
O2    C1    A    
C27   C28   A    
C42   C43   A    
C62   H20   S    
C2    C52   S    
C57   C58   S    
C35   C36   A    
C53   C55   S    
C17   C18   A    
C13   C14   S    
C63   O23   D    
C10   C15   S    
V4    O20   S    
C55   C57   S    
O3    C4    A    
C24   C25   A    
C8    C47   S    
C13   H2    S    
C54   C57   S    
O19   V4    S    
O14   V3    S    
C35   C37   A    
O11   C46   A    
C9    C11   S    
C12   C14   S    
O2    V1    S    
V3    O20   S    
C32   H10   S    
C32   C33   A    
O4    C2    A    
C34   C35   A    
C49   C50   S    
C6    C14   S    
C31   C36   A    
O18   C47   A    
O5    V1    S    
C64   O24   D    
O8    C3    A    
C56   C58   S    
C33   C34   A    
O6    V2    S    
C44   H13   S    
C5    C9    S    
C42   H12   S    
C5    C12   S    
O9    V2    S    
O7    V2    S    
C11   H3    S    
C23   C48   S    
O4    V1    S    
C21   C23   A    
O3    V1    S    
C49   C53   S    
C65   H23   S    
O18   V4    S    
C37   C38   A    
C57   H16   S    
C17   Cl3   S    
C49   C65   S    
C41   C42   A    
C27   Cl1   S    
O13   C48   A    
C49   C56   S    
C43   C44   A    
O17   V4    S    
C36   C40   A    
O19   C48   A    
C41   C64   S    
C45   O16   A    
C9    C10   S    
C17   C22   A    
V1    O10   S    
C18   H5    S    
C52   C60   T    
O15   V3    S    
C54   C59   S    
C51   C59   T    
C20   H7    S    
C50   C58   S    
