data_mof_unit_2930.cif
_audit_creation_date              2012-12-10T20:55:42-0500
_audit_creation_method            fapswitch 2.2
_symmetry_space_group_name_H-M    P1
_symmetry_Int_Tables_number       1
_space_group_crystal_system       triclinic
_cell_length_a                    15.910982
_cell_length_b                    15.01719
_cell_length_c                    10.449008
_cell_angle_alpha                 88.53559
_cell_angle_beta                  88.504991
_cell_angle_gamma                 92.093369
_cell_volume                      2493.27380026

loop_
_atom_site_label
_atom_site_type_symbol
_atom_type_description
_atom_site_fract_x
_atom_site_fract_y
_atom_site_fract_z
_atom_type_partial_charge
C1    C     C_1   0.250676 0.493965 0.500672 -0.220867
C2    C     C_1   0.749324 0.506035 0.499327 -0.220867
C3    C     C_R   0.466916 0.494189 0.879716 -0.209311
C4    C     C_R   0.533084 0.505811 0.120284 -0.209311
C5    C     C_R   0.498714 0.904948 0.495225 0.008279
C6    C     C_R   0.501286 0.095052 0.504776 0.008279
C7    C     C_R   0.433141 0.952670 0.436740 0.083596
C8    C     C_R   0.566859 0.047329 0.563261 0.083596
C9    C     C_R   0.565833 0.952039 0.554839 0.054635
C10   C     C_R   0.434167 0.047961 0.445161 0.054635
C11   C     C_R   0.964578 0.583377 0.461786 0.057136
C12   C     C_R   0.035422 0.416623 0.538214 0.057136
C13   C     C_R   0.052853 0.574583 0.460442 0.046522
C14   C     C_R   0.947147 0.425417 0.539558 0.046520
C15   C     C_R   0.338844 0.498340 0.499794 0.928265
C16   C     C_R   0.661156 0.501660 0.500206 0.928265
C17   C     C_R   0.515324 0.501940 0.258958 0.899788
C18   C     C_R   0.484676 0.498060 0.741042 0.899787
C19   C     C_R   0.913192 0.507536 0.500391 0.054327
C20   C     C_R   0.086808 0.492464 0.499609 0.054327
C21   C     C_1   0.498857 0.807059 0.497997 0.051345
C22   C     C_1   0.501142 0.192941 0.502003 0.051345
C23   C     C_1   0.824121 0.509518 0.498633 -0.040917
C24   C     C_1   0.175878 0.490481 0.501367 -0.040918
C25   C     C_R   0.540211 0.671823 0.089841 -0.023985
C26   C     C_R   0.459789 0.328177 0.910159 -0.023985
C27   C     C_R   0.423627 0.651098 0.895215 -0.013900
C28   C     C_R   0.576373 0.348902 0.104785 -0.013900
C29   C     C_R   0.505262 0.747611 0.032564 -0.065155
C30   C     C_R   0.494738 0.252389 0.967437 -0.065154
C31   C     C_R   0.443258 0.736745 0.940174 -0.054712
C32   C     C_R   0.556742 0.263255 0.059826 -0.054712
C33   C     C_R   0.466767 0.576511 0.942207 0.007516
C34   C     C_R   0.533233 0.423489 0.057793 0.007516
C35   C     C_R   0.514152 0.585023 0.052147 0.014310
C36   C     C_R   0.485848 0.414977 0.947853 0.014310
N1    N     N_1   0.500000 0.270550 0.500000 -0.103378
N2    N     N_1   0.500000 0.729450 0.500000 -0.103379
O1    O     O_R   0.378020 0.573650 0.500040 -0.616411
O2    O     O_R   0.621980 0.426350 0.499960 -0.616411
O3    O     O_R   0.621980 0.573650 0.499960 -0.607286
O4    O     O_R   0.378020 0.426350 0.500040 -0.607286
O5    O     O_R   0.499990 0.573670 0.316780 -0.610260
O6    O     O_R   0.500010 0.426330 0.683220 -0.610260
O7    O     O_R   0.500010 0.573670 0.683220 -0.602986
O8    O     O_R   0.499990 0.426330 0.316780 -0.602986
Zn1   Zn    Zn3+2 0.500000 0.598370 0.500000 0.967707
Zn2   Zn    Zn3+2 0.500000 0.401630 0.500000 0.967707
C37   C     C_3   0.113383 0.652876 0.416977 -0.417720
C38   C     C_3   0.158314 0.696022 0.530681 -0.277943
C39   C     C_3   0.139133 0.794238 0.545383 -0.902136
H1    H     H_    0.152327 0.832323 0.454231 0.253561
H2    H     H_    0.072454 0.801393 0.575512 0.256785
H3    H     H_    0.179434 0.823163 0.620159 0.261937
H4    H     H_    0.141066 0.659986 0.622445 0.238160
H5    H     H_    0.227363 0.691409 0.515467 0.233210
H6    H     H_    0.161420 0.627697 0.349120 0.184489
H7    H     H_    0.084011 0.704254 0.357081 0.195531
C40   C     C_3   0.886617 0.347123 0.583023 -0.417720
C41   C     C_3   0.841687 0.303978 0.469318 -0.277944
C42   C     C_3   0.860866 0.205761 0.454620 -0.902139
H8    H     H_    0.927545 0.198604 0.424494 0.256785
H9    H     H_    0.847669 0.167677 0.545772 0.253562
H10   H     H_    0.820565 0.176836 0.379843 0.261938
H11   H     H_    0.772637 0.308592 0.484530 0.233212
H12   H     H_    0.858936 0.340012 0.377554 0.238159
H13   H     H_    0.915989 0.295746 0.642919 0.195532
H14   H     H_    0.838579 0.372303 0.650880 0.184490
C43   C     C_3   0.931760 0.674786 0.420032 -0.427053
C44   C     C_3   0.838596 0.695831 0.435615 -0.323941
C45   C     C_3   0.824928 0.793702 0.401208 -0.880510
H15   H     H_    0.855637 0.837713 0.471455 0.252771
H16   H     H_    0.850882 0.810857 0.303582 0.266696
H17   H     H_    0.756721 0.805900 0.402319 0.261344
H18   H     H_    0.801511 0.655111 0.368710 0.254300
H19   H     H_    0.816318 0.682890 0.536298 0.232751
H20   H     H_    0.965740 0.725783 0.475923 0.225592
H21   H     H_    0.948944 0.685875 0.316868 0.198367
C46   C     C_3   0.068240 0.325214 0.579968 -0.427053
C47   C     C_3   0.161404 0.304169 0.564385 -0.323941
C48   C     C_3   0.175071 0.206298 0.598792 -0.880510
H22   H     H_    0.149117 0.189143 0.696419 0.266696
H23   H     H_    0.144363 0.162287 0.528545 0.252771
H24   H     H_    0.243279 0.194100 0.597681 0.261344
H25   H     H_    0.183682 0.317110 0.463702 0.232751
H26   H     H_    0.198489 0.344888 0.631290 0.254300
H27   H     H_    0.051056 0.314124 0.683132 0.198367
H28   H     H_    0.034260 0.274217 0.524077 0.225592
C49   C     C_1   0.597827 0.186240 0.112302 0.148467
N3    N     N_1   0.630456 0.124831 0.154376 -0.196233
C50   C     C_1   0.402172 0.813760 0.887699 0.148468
N4    N     N_1   0.369544 0.875169 0.845625 -0.196233
C51   C     C_1   0.468030 0.163524 0.929933 0.147709
N5    N     N_1   0.446871 0.092687 0.899938 -0.187600
C52   C     C_1   0.531969 0.836476 0.070067 0.147709
N6    N     N_1   0.553129 0.907313 0.100063 -0.187599
C53   C     C_3   0.361997 0.101715 0.392396 -0.440580
C54   C     C_3   0.383448 0.140904 0.257881 -0.313069
C55   C     C_3   0.311808 0.195868 0.208040 -0.854272
H29   H     H_    0.253461 0.153440 0.201993 0.256511
H30   H     H_    0.299906 0.252042 0.272473 0.264371
H31   H     H_    0.328876 0.223678 0.111010 0.255238
H32   H     H_    0.440984 0.184756 0.260171 0.235697
H33   H     H_    0.395779 0.086653 0.190433 0.230431
H34   H     H_    0.301770 0.062366 0.391662 0.194898
H35   H     H_    0.347973 0.156730 0.457425 0.211046
C56   C     C_3   0.638002 0.898285 0.607604 -0.440580
C57   C     C_3   0.616551 0.859096 0.742120 -0.313068
C58   C     C_3   0.688192 0.804133 0.791962 -0.854272
H36   H     H_    0.700095 0.747960 0.727528 0.264371
H37   H     H_    0.746538 0.846562 0.798010 0.256511
H38   H     H_    0.671124 0.776323 0.888991 0.255238
H39   H     H_    0.604218 0.913347 0.809567 0.230431
H40   H     H_    0.559016 0.815243 0.739829 0.235697
H41   H     H_    0.652027 0.843270 0.542575 0.211045
H42   H     H_    0.698230 0.937635 0.608339 0.194898
C59   C     C_3   0.640251 0.092315 0.634895 -0.438013
C60   C     C_3   0.634888 0.189407 0.677170 -0.311074
C61   C     C_3   0.701223 0.212862 0.775172 -0.892332
H43   H     H_    0.691072 0.170782 0.863530 0.271474
H44   H     H_    0.765320 0.202825 0.735075 0.260895
H45   H     H_    0.696488 0.283852 0.800896 0.256675
H46   H     H_    0.646520 0.235283 0.593127 0.237945
H47   H     H_    0.572354 0.200280 0.721942 0.238389
H48   H     H_    0.648191 0.052775 0.724633 0.225868
H49   H     H_    0.698623 0.087766 0.575031 0.198075
C62   C     C_3   0.359748 0.907685 0.365106 -0.438013
C63   C     C_3   0.365111 0.810593 0.322831 -0.311073
C64   C     C_3   0.298776 0.787138 0.224830 -0.892333
H50   H     H_    0.234679 0.797176 0.264927 0.260896
H51   H     H_    0.308927 0.829218 0.136471 0.271474
H52   H     H_    0.303511 0.716148 0.199106 0.256675
H53   H     H_    0.427646 0.799719 0.278058 0.238389
H54   H     H_    0.353480 0.764717 0.406874 0.237944
H55   H     H_    0.301377 0.912234 0.424970 0.198076
H56   H     H_    0.351808 0.947225 0.275367 0.225868
C65   C     C_1   0.609490 0.683769 0.175715 0.188777
N7    N     N_1   0.664777 0.693557 0.244169 -0.223683
C66   C     C_1   0.390510 0.316231 0.824285 0.188777
N8    N     N_1   0.335223 0.306443 0.755831 -0.223683
C67   C     C_1   0.353427 0.638337 0.811139 0.181426
N9    N     N_1   0.296778 0.628292 0.745258 -0.237485
C68   C     C_1   0.646573 0.361663 0.188861 0.181426
N10   N     N_1   0.703222 0.371708 0.254742 -0.237485

loop_
_geom_bond_atom_site_label_1
_geom_bond_atom_site_label_2
_ccdc_geom_bond_type
C7    C10   A    
C51   N5    T    
C10   C53   S    
C43   H20   S    
C52   N6    T    
C63   C64   S    
C46   H27   S    
C48   H22   S    
C27   C33   A    
C14   C40   S    
C11   C19   A    
O1    Zn1   S    
C62   H55   S    
C30   C51   S    
C18   O6    A    
C58   H37   S    
C33   C35   A    
C54   C55   S    
C3    C33   A    
C54   H32   S    
C6    C22   S    
C12   C46   S    
C37   H6    S    
C57   C58   S    
C3    C18   S    
C57   H40   S    
C42   H9    S    
C60   C61   S    
C47   H26   S    
C40   H13   S    
C21   N2    T    
C20   C24   S    
C8    C9    A    
C56   C57   S    
C44   C45   S    
C1    C15   S    
C2    C16   S    
C59   H49   S    
C64   H52   S    
C53   H34   S    
O7    Zn1   S    
C4    C35   A    
C28   C34   A    
C40   C41   S    
C43   H21   S    
C43   C44   S    
C46   H28   S    
C48   H23   S    
C8    C59   S    
C53   C54   S    
O8    Zn2   S    
C61   H44   S    
C25   C29   A    
C4    C34   A    
C27   C31   A    
C39   H1    S    
C28   C32   A    
C17   O8    A    
C26   C66   S    
C58   H36   S    
C58   H38   S    
C50   N4    T    
C29   C52   S    
C19   C23   S    
C60   H47   S    
C22   N1    T    
C38   H5    S    
C37   H7    S    
C41   C42   S    
C39   H2    S    
C57   H39   S    
C42   H10   S    
C25   C65   S    
C17   O5    A    
C5    C9    A    
C47   H25   S    
C63   H54   S    
C40   H14   S    
C32   C49   S    
C66   N8    T    
C56   H41   S    
C12   C20   A    
C38   C39   S    
O3    Zn1   S    
C28   C68   S    
O4    Zn2   S    
C62   H56   S    
N1    Zn2   S    
C15   O1    A    
N2    Zn1   S    
C16   O2    A    
C13   C37   S    
C53   H35   S    
C26   C36   A    
C55   H30   S    
C25   C35   A    
C41   H11   S    
C26   C30   A    
C31   C50   S    
C44   H19   S    
C4    C17   S    
C62   C63   S    
C18   O7    A    
C2    C23   T    
C48   H24   S    
C5    C7    A    
C64   H50   S    
C61   H45   S    
O2    Zn2   S    
C13   C20   A    
C14   C19   A    
C15   O4    A    
C12   C14   A    
C47   C48   S    
C6    C10   A    
C45   H17   S    
C6    C8    A    
C61   H43   S    
C11   C43   S    
C9    C56   S    
C65   N7    T    
C59   C60   S    
C38   H4    S    
C55   H29   S    
C39   H3    S    
C45   H15   S    
C29   C31   A    
C67   N9    T    
C30   C32   A    
C11   C13   A    
C59   H48   S    
C3    C36   A    
C54   H33   S    
C27   C67   S    
C34   C36   A    
C60   H46   S    
C42   H8    S    
C56   H42   S    
C41   H12   S    
C46   C47   S    
O6    Zn2   S    
C55   H31   S    
C5    C21   S    
C1    C24   T    
C37   C38   S    
C45   H16   S    
C44   H18   S    
C7    C62   S    
C49   N3    T    
C63   H53   S    
O5    Zn1   S    
C16   O3    A    
C68   N10   T    
C64   H51   S    
