data_mof_unit_1714.cif
_audit_creation_date              2012-12-10T17:51:26-0500
_audit_creation_method            fapswitch 2.2
_symmetry_space_group_name_H-M    P1
_symmetry_Int_Tables_number       1
_space_group_crystal_system       triclinic
_cell_length_a                    14.771952
_cell_length_b                    14.8031
_cell_length_c                    17.17889
_cell_angle_alpha                 106.970058
_cell_angle_beta                  72.556592
_cell_angle_gamma                 115.151224
_cell_volume                      3184.61209481

loop_
_atom_site_label
_atom_site_type_symbol
_atom_type_description
_atom_site_fract_x
_atom_site_fract_y
_atom_site_fract_z
_atom_type_partial_charge
C1    C     C_R   0.118586 0.687857 0.512560 0.796428
C2    C     C_R   0.881415 0.312018 0.485782 0.800928
C3    C     C_R   0.185159 0.795538 0.518459 -0.050646
C4    C     C_R   0.814679 0.204211 0.473419 -0.053691
C5    C     C_R   0.211931 0.973685 0.566030 -0.202139
C6    C     C_R   0.787972 0.027357 0.415760 -0.200343
C7    C     C_R   0.145944 0.872432 0.556080 -0.195888
C8    C     C_R   0.854099 0.127957 0.432696 -0.198516
C9    C     C_R   0.290123 0.820954 0.487774 -0.273273
C10   C     C_R   0.709073 0.178586 0.498944 -0.253063
C11   C     C_R   0.359069 0.922218 0.500328 0.086503
C12   C     C_R   0.640386 0.078464 0.479368 0.092325
C13   C     C_R   0.317876 0.998922 0.540319 0.162284
C14   C     C_R   0.681827 0.002296 0.437773 0.165949
C15   C     C_R   0.467184 0.948829 0.478110 0.061859
C16   C     C_R   0.532353 0.052291 0.498838 0.057136
C17   C     C_R   0.487398 0.126337 0.536645 -0.223437
C18   C     C_R   0.512317 0.875417 0.437205 -0.245486
C19   C     C_R   0.382512 0.099929 0.556261 -0.227997
C20   C     C_R   0.617305 0.901953 0.417626 -0.238166
C21   C     C_R   0.313356 0.358339 0.342992 -0.289403
C22   C     C_R   0.703498 0.667660 0.643274 -0.290445
C23   C     C_R   0.990933 0.506917 0.653311 0.791511
C24   C     C_R   0.012802 0.499206 0.347189 0.786344
C25   C     C_R   0.222981 0.375776 0.371991 0.072368
C26   C     C_R   0.787804 0.639752 0.618688 0.075986
C27   C     C_R   0.279645 0.482582 0.494506 0.034603
C28   C     C_R   0.714826 0.510601 0.510855 0.071815
C29   C     C_R   0.376377 0.471367 0.467470 -0.008816
C30   C     C_R   0.630199 0.541061 0.527946 -0.003297
C31   C     C_R   0.390383 0.406614 0.389686 0.091636
C32   C     C_R   0.624455 0.618028 0.598749 0.080276
C33   C     C_R   0.459491 0.521860 0.512111 -0.092208
C34   C     C_R   0.550852 0.497323 0.479874 -0.083669
C35   C     C_R   0.562096 0.434493 0.399325 0.462544
C36   C     C_R   0.458229 0.599295 0.585196 0.438821
C37   C     C_R   0.482129 0.392296 0.356106 -0.289179
C38   C     C_R   0.539738 0.645051 0.626138 -0.261031
C39   C     C_R   0.993774 0.526223 0.741094 -0.021587
C40   C     C_R   0.029103 0.511423 0.262067 -0.022147
C41   C     C_R   0.034654 0.474376 0.768577 -0.196896
C42   C     C_R   0.948187 0.504067 0.231449 -0.218941
C43   C     C_R   0.042137 0.497457 0.851506 -0.139547
C44   C     C_R   0.965325 0.521844 0.152234 -0.164660
C45   C     C_R   0.013293 0.576250 0.907551 0.108284
C46   C     C_R   0.065365 0.555269 0.104455 0.096641
C47   C     C_R   0.970789 0.626679 0.879677 -0.159809
C48   C     C_R   0.145595 0.558701 0.134565 -0.159070
C49   C     C_R   0.960696 0.601587 0.797262 -0.203679
C50   C     C_R   0.127565 0.536501 0.212388 -0.203982
C51   C     C_2   0.019043 0.600592 0.996619 0.293351
C52   C     C_2   0.086806 0.580646 0.021256 0.291197
Cu1   Cu    Cu3+1 0.916740 0.524770 0.521640 0.940705
Cu2   Cu    Cu3+1 0.083260 0.475230 0.478360 0.933064
H1    H     H_    0.059408 0.415101 0.726207 0.149386
H2    H     H_    0.871708 0.484661 0.268756 0.173613
H3    H     H_    0.530537 0.206366 0.551820 0.137292
H4    H     H_    0.469277 0.796072 0.418347 0.143245
H5    H     H_    0.491524 0.348952 0.293662 0.141629
H6    H     H_    0.535436 0.702270 0.681900 0.150286
H7    H     H_    0.720337 0.444441 0.466062 0.173568
H8    H     H_    0.256765 0.525050 0.553258 0.201801
H9    H     H_    0.849713 0.678861 0.652046 0.116051
H10   H     H_    0.164932 0.341162 0.334803 0.125658
H11   H     H_    0.323900 0.308939 0.283243 0.135310
H12   H     H_    0.700248 0.728057 0.696706 0.133904
H13   H     H_    0.191431 0.542409 0.234792 0.151331
H14   H     H_    0.929472 0.643051 0.776926 0.139651
H15   H     H_    0.945627 0.685925 0.921266 0.143735
H16   H     H_    0.222882 0.579306 0.098690 0.149024
H17   H     H_    0.899430 0.508832 0.129341 0.188617
H18   H     H_    0.068975 0.452108 0.871547 0.173781
H19   H     H_    0.351701 0.159216 0.585826 0.144119
H20   H     H_    0.648286 0.843154 0.385935 0.149059
H21   H     H_    0.682819 0.239090 0.533539 0.145774
H22   H     H_    0.315820 0.759306 0.456517 0.147469
H23   H     H_    0.935693 0.146188 0.412693 0.154329
H24   H     H_    0.064699 0.854329 0.579243 0.151696
H25   H     H_    0.180307 0.032219 0.596312 0.134853
H26   H     H_    0.819838 0.969302 0.383778 0.137298
N1    N     N_R   0.208390 0.438070 0.445820 -0.197985
N2    N     N_R   0.791610 0.561930 0.554180 -0.194947
O1    O     O_R   0.020090 0.662480 0.528530 -0.587717
O2    O     O_R   0.979910 0.337520 0.471470 -0.582643
O3    O     O_R   0.160710 0.620650 0.491980 -0.591869
O4    O     O_R   0.839290 0.379350 0.508020 -0.595555
O5    O     O_R   0.921540 0.523360 0.633990 -0.585947
O6    O     O_R   0.078460 0.476640 0.366010 -0.593880
O7    O     O_R   0.062170 0.481520 0.597440 -0.585663
O8    O     O_R   0.937830 0.518480 0.402560 -0.571592
O9    O     O_3   0.657415 0.429581 0.358450 -0.639847
C53   C     C_3   0.654536 0.332583 0.310132 0.018308
H27   H     H_    0.734657 0.336744 0.288893 0.167008
H28   H     H_    0.627170 0.315815 0.252106 0.142259
C54   C     C_3   0.596174 0.245195 0.358933 -0.389188
H29   H     H_    0.626893 0.264755 0.415707 0.215691
H30   H     H_    0.513636 0.232677 0.377940 0.219040
C55   C     C_3   0.607197 0.146328 0.306058 -0.869852
H31   H     H_    0.582608 0.128507 0.246454 0.245825
H32   H     H_    0.558364 0.082686 0.339554 0.266394
H33   H     H_    0.687828 0.152726 0.292989 0.254762
O10   O     O_3   0.376066 0.629467 0.621175 -0.642984
C56   C     C_3   0.399400 0.728767 0.610037 0.027147
H34   H     H_    0.347106 0.723095 0.572617 0.171535
H35   H     H_    0.479054 0.766026 0.576354 0.141703
C57   C     C_3   0.379868 0.795617 0.694916 -0.342840
H36   H     H_    0.300438 0.758878 0.728136 0.232837
H37   H     H_    0.433403 0.803543 0.732259 0.217180
C58   C     C_3   0.394306 0.901128 0.687134 -0.895618
H38   H     H_    0.470615 0.937253 0.649084 0.265019
H39   H     H_    0.388246 0.949977 0.749757 0.247803
H40   H     H_    0.333662 0.895579 0.658548 0.268722
O11   O     O_3   0.176721 0.578253 0.966059 -0.637544
C59   C     C_3   0.254901 0.676010 0.976594 0.039150
H41   H     H_    0.327296 0.665169 0.968759 0.168466
H42   H     H_    0.242708 0.723320 0.039894 0.119655
C60   C     C_3   0.268538 0.733713 0.910533 -0.337223
H43   H     H_    0.286485 0.688832 0.847769 0.238449
H44   H     H_    0.196935 0.744696 0.916219 0.204474
C61   C     C_3   0.354313 0.837938 0.920528 -0.950361
H45   H     H_    0.339193 0.882470 0.984046 0.257782
H46   H     H_    0.358963 0.880702 0.875252 0.260690
H47   H     H_    0.428615 0.829442 0.909271 0.256497
O12   O     O_3   0.948042 0.637226 0.054622 -0.640038
C62   C     C_3   0.992129 0.744487 0.077938 0.025347
H48   H     H_    0.935532 0.775553 0.078145 0.170297
H49   H     H_    0.063098 0.781287 0.033853 0.115121
C63   C     C_3   0.013634 0.774464 0.165653 -0.319915
H50   H     H_    0.944125 0.734503 0.208742 0.238635
H51   H     H_    0.076441 0.751842 0.165210 0.210577
C64   C     C_3   0.044940 0.888927 0.197490 -0.935608
H52   H     H_    0.114899 0.930423 0.155674 0.254856
H53   H     H_    0.061142 0.908204 0.260656 0.259634
H54   H     H_    0.982403 0.913767 0.201041 0.253929

loop_
_geom_bond_atom_site_label_1
_geom_bond_atom_site_label_2
_ccdc_geom_bond_type
C15   C18   A    
Cu2   O6    S    
C43   H18   S    
C49   H14   S    
C29   C33   A    
C27   C29   A    
C2    O2    A    
C54   H29   S    
C4    C8    A    
C64   H54   S    
C63   H50   S    
Cu2   O2    S    
C59   H41   S    
C54   C55   S    
C47   C49   A    
Cu1   Cu2   S    
C21   C31   A    
C22   C32   A    
C35   C37   A    
C3    C7    A    
C58   H39   S    
C23   C39   S    
C57   H36   S    
C45   C51   S    
C15   C16   A    
C46   C52   S    
C33   C36   A    
C44   H17   S    
C36   O10   S    
C34   C35   A    
C41   H1    S    
C42   H2    S    
C11   C15   A    
C18   H4    S    
C47   H15   S    
C12   C16   A    
C44   C46   A    
C16   C17   A    
C62   C63   S    
C23   O7    A    
Cu1   O4    S    
C9    H22   S    
C32   C38   A    
C5    H25   S    
C50   H13   S    
C5    C13   A    
C61   H47   S    
C28   H7    S    
C40   C42   A    
C26   N2    A    
C23   O5    A    
C25   N1    A    
C51   O12   S    
C41   C43   A    
C42   C44   A    
C61   H46   S    
C45   C47   A    
C1    O3    A    
C46   C48   A    
C30   C34   A    
C28   N2    A    
C51   C52   D    
C14   C20   A    
C19   H19   S    
Cu2   O7    S    
C39   C41   A    
C58   H40   S    
O9    C53   S    
C5    C7    A    
C13   C19   A    
C6    C8    A    
C52   O11   S    
C53   C54   S    
C31   C37   A    
C63   H51   S    
Cu1   N2    S    
C1    C3    S    
C25   H10   S    
C2    C4    S    
C26   H9    S    
C3    C9    A    
C27   H8    S    
C6    C14   A    
C24   O6    A    
C10   H21   S    
C6    H26   S    
C27   N1    A    
C53   H28   S    
C33   C34   A    
C20   H20   S    
Cu1   O5    S    
C43   C45   A    
C37   H5    S    
C10   C12   A    
C7    H24   S    
C38   H6    S    
C39   C49   A    
C12   C14   A    
C55   H32   S    
C9    C11   A    
C62   H48   S    
C56   H35   S    
C60   C61   S    
C4    C10   A    
C64   H52   S    
C63   C64   S    
C56   H34   S    
C61   H45   S    
O11   C59   S    
C21   C25   A    
C24   C40   S    
C21   H11   S    
C48   H16   S    
C64   H53   S    
C24   O8    A    
Cu2   O3    S    
C59   H42   S    
C54   H30   S    
C22   H12   S    
C1    O1    A    
C55   H33   S    
Cu1   O1    S    
C60   H44   S    
C28   C30   A    
C29   C31   A    
C60   H43   S    
C36   C38   A    
C30   C32   A    
C11   C13   A    
C8    H23   S    
C57   H37   S    
C40   C50   A    
C48   C50   A    
C53   H27   S    
C17   C19   A    
C2    O4    A    
C56   C57   S    
C18   C20   A    
O10   C56   S    
C59   C60   S    
C55   H31   S    
C22   C26   A    
Cu1   O8    S    
C62   H49   S    
C58   H38   S    
Cu2   N1    S    
C17   H3    S    
O12   C62   S    
C57   C58   S    
C35   O9    S    
