data_mof_unit_667.cif
_audit_creation_date              2012-12-10T17:23:09-0500
_audit_creation_method            fapswitch 2.2
_symmetry_space_group_name_H-M    P1
_symmetry_Int_Tables_number       1
_space_group_crystal_system       triclinic
_cell_length_a                    15.848237
_cell_length_b                    10.754616
_cell_length_c                    9.671262
_cell_angle_alpha                 90.39925
_cell_angle_beta                  90.254927
_cell_angle_gamma                 92.5761
_cell_volume                      1646.66182462

loop_
_atom_site_label
_atom_site_type_symbol
_atom_type_description
_atom_site_fract_x
_atom_site_fract_y
_atom_site_fract_z
_atom_type_partial_charge
C1    C     C_R   0.497533 0.263027 0.499523 0.773692
C2    C     C_3   0.083246 0.497959 0.496430 0.111966
C3    C     C_3   0.976113 0.616374 0.493598 -0.033692
C4    C     C_3   0.916508 0.499092 0.495413 0.011266
C5    C     C_3   0.029337 0.553797 0.383086 0.190434
C6    C     C_3   0.970023 0.436894 0.384065 -0.001519
C7    C     C_1   0.174904 0.498075 0.497496 -0.020091
C8    C     C_1   0.824813 0.497664 0.497960 0.067880
C9    C     C_R   0.346330 0.119072 0.410422 -0.179709
C10   C     C_R   0.274504 0.048578 0.368854 -0.111001
C11   C     C_R   0.274540 0.919094 0.369883 -0.103682
C12   C     C_R   0.340157 0.499099 0.499657 0.778783
C13   C     C_R   0.346421 0.859251 0.412399 -0.158130
C14   C     C_R   0.419922 0.928781 0.454536 0.100577
C15   C     C_R   0.419851 0.060316 0.453516 0.095300
C16   C     C_R   0.493107 0.129120 0.498278 -0.081214
C17   C     C_R   0.564464 0.069838 0.542750 -0.175518
C18   C     C_R   0.564787 0.941763 0.541956 -0.135267
C19   C     C_R   0.493406 0.870917 0.499684 -0.058271
C20   C     C_R   0.642065 0.604223 0.141970 0.035927
C21   C     C_R   0.719642 0.588076 0.077833 -0.200551
C22   C     C_R   0.720847 0.582645 0.934426 -0.306987
C23   C     C_R   0.498399 0.737076 0.500156 0.798401
C24   C     C_R   0.644560 0.598207 0.863840 -0.047188
C25   C     C_R   0.569359 0.550413 0.927209 0.178298
C26   C     C_R   0.568484 0.552738 0.075275 0.145329
C27   C     C_R   0.434319 0.450095 0.072747 -0.030954
C28   C     C_R   0.434148 0.450697 0.925408 -0.028709
C29   C     C_R   0.659719 0.498369 0.500094 0.838200
C30   C     C_3   0.970048 0.442349 0.610721 -0.189187
C31   C     C_3   0.024407 0.379766 0.498640 -0.201691
C32   C     C_1   0.250469 0.498495 0.498648 -0.170032
C33   C     C_1   0.749290 0.497113 0.499515 -0.093918
C34   C     C_3   0.030486 0.560361 0.608847 -0.218105
Cu1   Cu    Cu3+1 0.499990 0.499990 0.640660 0.978082
Cu2   Cu    Cu3+1 0.500010 0.500010 0.359340 0.980612
H1    H     H_    0.045366 0.282670 0.501035 0.165986
H2    H     H_    0.218536 0.864804 0.338119 0.145985
H3    H     H_    0.343679 0.758662 0.412740 0.130840
H4    H     H_    0.621789 0.898145 0.571911 0.206079
H5    H     H_    0.380610 0.407991 0.126204 0.140004
H6    H     H_    0.778382 0.611604 0.131793 0.197092
H7    H     H_    0.781048 0.601297 0.884517 0.164171
H8    H     H_    0.380242 0.409178 0.870561 0.141892
H9    H     H_    0.944467 0.396384 0.705043 0.169607
H10   H     H_    0.056353 0.610703 0.701422 0.163646
H11   H     H_    0.620731 0.123189 0.575879 0.152171
H12   H     H_    0.343536 0.219403 0.409405 0.128465
H13   H     H_    0.218473 0.094605 0.336286 0.154322
N1    N     N_R   0.500800 0.501210 0.147910 -0.198663
N2    N     N_R   0.500830 0.501290 0.852040 -0.194793
O1    O     O_R   0.499990 0.319640 0.618810 -0.570122
O2    O     O_R   0.500000 0.319660 0.381240 -0.571691
O3    O     O_R   0.379070 0.499980 0.618770 -0.578118
O4    O     O_R   0.379080 0.500000 0.381190 -0.591458
O5    O     O_R   0.500000 0.680340 0.618760 -0.550867
O6    O     O_R   0.500010 0.680360 0.381190 -0.562880
O7    O     O_R   0.620920 0.500000 0.618810 -0.610090
O8    O     O_R   0.620930 0.500020 0.381230 -0.571773
C35   C     C_2   0.639642 0.721245 0.222288 0.883501
O9    O     O_2   0.588604 0.798720 0.191754 -0.567501
O10   O     O_R   0.700926 0.748477 0.323743 -0.752688
H14   H     H_    0.696055 0.834532 0.365337 0.334704
C36   C     C_2   0.643315 0.717263 0.787887 0.906164
O11   O     O_2   0.589717 0.791392 0.816282 -0.536464
O12   O     O_R   0.707253 0.753063 0.695185 -0.759764
H15   H     H_    0.750462 0.688096 0.680645 0.311541
C37   C     C_2   0.938121 0.365818 0.259113 0.836159
O13   O     O_2   0.988363 0.318418 0.181542 -0.577419
O14   O     O_R   0.851521 0.354748 0.231351 -0.770167
H16   H     H_    0.838067 0.305707 0.143494 0.341521
N3    N     N_2   0.065170 0.613317 0.261367 -0.415572
H17   H     H_    0.114312 0.676182 0.284417 0.257868
C38   C     C_3   0.005324 0.661446 0.164239 -0.628885
H18   H     H_    0.039257 0.693328 0.069842 0.228940
H19   H     H_    0.973486 0.741735 0.209909 0.232590
H20   H     H_    0.957213 0.588437 0.133171 0.230894
C39   C     C_2   0.951933 0.749461 0.492775 0.833763
O15   O     O_2   0.007100 0.832578 0.495651 -0.601448
O16   O     O_R   0.866908 0.777998 0.488141 -0.734709
H21   H     H_    0.858799 0.870960 0.487879 0.347834

loop_
_geom_bond_atom_site_label_1
_geom_bond_atom_site_label_2
_ccdc_geom_bond_type
C30   H9    S    
C2    C7    S    
C4    C8    S    
Cu2   O8    S    
C23   O5    A    
C38   H19   S    
Cu1   O7    S    
C5    N3    S    
C26   N1    A    
C5    C6    S    
C28   N2    A    
C39   O16   S    
C15   C16   A    
C29   C33   S    
C35   O10   S    
C18   C19   A    
C18   H4    S    
C1    O2    A    
Cu2   O2    S    
C37   O13   D    
C29   O8    A    
C16   C17   A    
C38   H20   S    
O14   H16   S    
C34   H10   S    
C20   C35   S    
C9    C10   A    
C27   N1    A    
C2    C34   S    
C6    C37   S    
C6    C31   S    
C24   C36   S    
C21   C22   A    
C12   C32   S    
Cu1   O3    S    
C3    C39   S    
C38   H18   S    
C30   C34   S    
C24   C25   A    
N3    C38   S    
Cu2   O6    S    
C39   O15   D    
N3    H17   S    
C3    C34   S    
C25   C26   A    
C28   H8    S    
C31   H1    S    
C35   O9    D    
Cu1   Cu2   S    
C36   O12   S    
C11   H2    S    
C19   C23   S    
C25   N2    A    
O10   H14   S    
C27   H5    S    
C22   H7    S    
C17   C18   A    
C1    C16   S    
C20   C21   A    
C4    C6    S    
Cu1   N2    S    
C22   C24   A    
C2    C5    S    
C3    C4    S    
Cu1   O1    S    
Cu2   N1    S    
C23   O6    A    
C7    C32   T    
Cu1   O5    S    
C14   C19   A    
C17   H11   S    
O16   H21   S    
C3    C5    S    
C36   O11   D    
C9    C15   A    
Cu2   O4    S    
C11   C13   A    
C30   C31   S    
C20   C26   A    
O12   H15   S    
C8    C33   T    
C1    O1    A    
C4    C30   S    
C13   H3    S    
C12   O4    A    
C10   C11   A    
C21   H6    S    
C29   O7    A    
C9    H12   S    
C37   O14   S    
C27   C28   A    
C14   C15   A    
C2    C31   S    
C13   C14   A    
C10   H13   S    
C12   O3    A    
