data_mof_unit_1167.cif
_audit_creation_date              2013-03-05T15:51:29-0500
_audit_creation_method            fapswitch 2.2
_symmetry_space_group_name_H-M    P1
_symmetry_Int_Tables_number       1
_space_group_crystal_system       triclinic
_cell_length_a                    12.047306
_cell_length_b                    12.896742
_cell_length_c                    16.6006
_cell_angle_alpha                 91.204176
_cell_angle_beta                  80.37815
_cell_angle_gamma                 93.989253
_cell_volume                      2536.6909537

loop_
_atom_site_label
_atom_site_type_symbol
_atom_site_description
_atom_site_fract_x
_atom_site_fract_y
_atom_site_fract_z
_atom_type_partial_charge
O1    O     O_R   0.421320 0.658850 0.503920 -0.602688
O2    O     O_R   0.578680 0.341150 0.496080 -0.611345
O3    O     O_R   0.609840 0.646370 0.494500 -0.551872
O4    O     O_R   0.390160 0.353630 0.505500 -0.556272
C1    C     C_R   0.523179 0.700359 0.496440 0.922065
C2    C     C_R   0.476671 0.299397 0.502911 0.900540
O5    O     O_R   0.394600 0.506990 0.621070 -0.594767
O6    O     O_R   0.605400 0.493010 0.378930 -0.555641
O7    O     O_R   0.583120 0.494520 0.611640 -0.578857
O8    O     O_R   0.416880 0.505480 0.388360 -0.587544
C3    C     C_R   0.482973 0.499395 0.654332 0.887014
C4    C     C_R   0.516220 0.496497 0.345952 0.885258
Zn1   Zn    Zn3+2 0.374120 0.508330 0.506290 1.072609
Zn2   Zn    Zn3+2 0.625880 0.491670 0.493710 1.091811
C5    C     C_R   0.464275 0.472881 0.740073 -0.113323
C6    C     C_R   0.524803 0.465411 0.261410 -0.052845
C7    C     C_R   0.531554 0.519150 0.792934 -0.090882
C8    C     C_R   0.484434 0.526422 0.206206 -0.086426
C9    C     C_R   0.517365 0.485207 0.872913 -0.155752
C10   C     C_R   0.485730 0.490645 0.126881 -0.142381
C11   C     C_R   0.439047 0.401679 0.899746 -0.010453
C12   C     C_R   0.521878 0.391221 0.103328 -0.016607
C13   C     C_R   0.369802 0.355426 0.846588 0.378924
C14   C     C_R   0.562798 0.329020 0.159312 0.380872
C15   C     C_R   0.381699 0.393849 0.767495 -0.268810
C16   C     C_R   0.565753 0.368325 0.238002 -0.203561
C17   C     C_2   0.426391 0.370369 0.985605 0.182127
C18   C     C_2   0.520353 0.357816 0.018316 0.186880
H1    H     H_    0.593449 0.582061 0.772778 0.206654
H2    H     H_    0.452554 0.601378 0.224423 0.164605
H3    H     H_    0.593896 0.320750 0.282707 0.182977
H4    H     H_    0.330414 0.358345 0.725699 0.226926
H5    H     H_    0.456879 0.540140 0.083746 0.162073
H6    H     H_    0.568179 0.523861 0.914109 0.166370
C19   C     C_R   0.461088 0.187409 0.506899 -0.172314
C20   C     C_R   0.538210 0.811954 0.491310 -0.180577
C21   C     C_R   0.648129 0.973135 0.456728 -0.215000
C22   C     C_R   0.350997 0.025580 0.539193 -0.206586
C23   C     C_R   0.641722 0.865035 0.457475 0.331504
C24   C     C_R   0.355749 0.133333 0.535447 0.329232
C25   C     C_R   0.443108 0.866481 0.520142 -0.240041
C26   C     C_R   0.557365 0.133030 0.481080 -0.249793
C27   C     C_R   0.448352 0.972754 0.514846 0.107746
C28   C     C_R   0.551804 0.026495 0.484463 0.117377
H7    H     H_    0.637754 0.173526 0.457915 0.183524
H8    H     H_    0.363548 0.826149 0.546254 0.210132
H9    H     H_    0.726853 0.015241 0.431318 0.176775
H10   H     H_    0.271422 0.983182 0.562125 0.191395
N1    N     N_R   0.206400 0.519440 0.514690 -0.186262
N2    N     N_R   0.793600 0.480560 0.485310 -0.187184
C29   C     C_R   0.965621 0.412802 0.416501 -0.290799
C30   C     C_R   0.034729 0.588250 0.582734 -0.274434
C31   C     C_R   0.846680 0.417400 0.426208 0.616777
C32   C     C_R   0.152026 0.579099 0.575564 0.584843
C33   C     C_R   0.852904 0.536629 0.537431 0.395493
C34   C     C_R   0.147617 0.465156 0.461324 0.385883
C35   C     C_R   0.971576 0.531462 0.530521 -0.106912
C36   C     C_R   0.028576 0.469172 0.468981 -0.105988
H11   H     H_    0.008981 0.366311 0.367900 0.216079
H12   H     H_    0.994187 0.640294 0.628620 0.219431
O9    O     O_3   0.215022 0.636109 0.625605 -0.597523
C37   C     C_3   0.178936 0.606521 0.707719 -0.191966
H13   H     H_    0.169701 0.520412 0.714758 0.178556
H14   H     H_    0.098995 0.641689 0.733757 0.178512
H15   H     H_    0.243921 0.636453 0.744017 0.197914
O10   O     O_3   0.781332 0.365922 0.374132 -0.586243
C38   C     C_3   0.821530 0.269110 0.346156 -0.255571
H16   H     H_    0.848348 0.224571 0.395565 0.155611
H17   H     H_    0.890721 0.279902 0.293108 0.221125
H18   H     H_    0.752007 0.221587 0.324349 0.212606
N3    N     N_R   0.624951 0.332555 0.967894 0.228489
O11   O     O_R   0.721068 0.360559 0.990514 -0.308716
O12   O     O_R   0.624218 0.273628 0.903322 -0.292018
N4    N     N_R   0.317010 0.374234 0.036566 0.228126
O13   O     O_R   0.239641 0.427208 0.013897 -0.325057
O14   O     O_R   0.291302 0.318016 0.102112 -0.275140
N5    N     N_R   0.290874 0.268070 0.870462 0.236123
O15   O     O_R   0.314132 0.197744 0.919054 -0.284135
O16   O     O_R   0.201678 0.251832 0.836042 -0.292996
N6    N     N_R   0.596851 0.225605 0.138757 0.236549
O17   O     O_R   0.545399 0.166422 0.090150 -0.281509
O18   O     O_R   0.670635 0.185824 0.175901 -0.355635
N7    N     N_R   0.254032 0.184867 0.562261 0.243827
O19   O     O_R   0.160056 0.147978 0.540478 -0.313905
O20   O     O_R   0.249593 0.252051 0.621949 -0.380711
N8    N     N_R   0.737906 0.811537 0.419656 0.236227
O21   O     O_R   0.838745 0.846195 0.429774 -0.318209
O22   O     O_R   0.727215 0.742433 0.362712 -0.359923
N9    N     N_R   0.207164 0.405380 0.396768 0.217753
O23   O     O_R   0.223593 0.308908 0.409219 -0.331346
O24   O     O_R   0.221243 0.439081 0.322182 -0.353967
N10   N     N_R   0.794228 0.599656 0.600014 0.213432
O25   O     O_R   0.779310 0.695545 0.584318 -0.342971
O26   O     O_R   0.783675 0.571035 0.675714 -0.405288

loop_
_geom_bond_atom_site_label_1
_geom_bond_atom_site_label_2
_geom_bond_distance
_ccdc_geom_bond_type
C7    H1    1.081705 S    
O7    Zn2   1.939541 S    
N5    O15   1.301341 A    
O5    C3    1.288908 A    
C33   N10   1.427829 S    
N4    O14   1.301849 A    
O1    C1    1.291626 A    
C9    C11   1.409731 A    
C14   C16   1.396373 A    
N8    O22   1.301451 A    
C5    C15   1.400996 A    
N1    C32   1.363246 A    
C1    C20   1.440520 S    
C2    C19   1.444886 S    
O4    Zn1   2.017359 S    
C19   C26   1.398291 A    
C37   H14   1.110597 S    
C30   H12   1.081217 S    
C3    C5    1.447799 S    
C14   N6    1.440041 S    
C4    C6    1.440376 S    
C25   H8    1.085525 S    
C8    H2    1.083511 S    
C21   H9    1.084684 S    
C17   N4    1.445460 S    
C22   H10   1.084778 S    
C15   H4    1.078601 S    
O10   C38   1.411986 S    
C11   C17   1.469962 S    
C16   H3    1.083683 S    
C12   C18   1.469547 S    
C25   C27   1.371634 A    
C24   N7    1.435287 S    
C20   C25   1.396760 A    
O2    C2    1.294995 A    
C26   C28   1.372799 A    
C30   C32   1.411164 A    
C29   H11   1.079650 S    
N5    O16   1.301525 A    
C6    C16   1.401265 A    
N2    C31   1.365357 A    
N4    O13   1.301464 A    
C38   H16   1.114136 S    
O4    C2    1.289370 A    
N3    O12   1.301780 A    
N8    O21   1.301278 A    
C9    H6    1.083563 S    
C38   H17   1.110557 S    
C26   H7    1.082652 S    
C27   C28   1.404427 A    
C37   H13   1.114993 S    
N7    O19   1.301362 A    
O6    C4    1.288564 A    
N10   O26   1.300452 A    
C29   C36   1.407222 A    
C13   N5    1.440209 S    
C31   O10   1.392322 S    
O7    C3    1.297972 A    
O3    Zn2   2.017359 S    
O8    C4    1.294423 A    
Zn1   N1    2.016917 S    
C10   H5    1.083649 S    
N6    O18   1.301377 A    
C34   N9    1.429222 S    
N7    O20   1.299242 A    
C10   C12   1.409392 A    
C33   C35   1.421158 A    
C12   C14   1.410594 A    
C18   N3    1.444909 S    
O1    Zn1   1.983775 S    
C5    C7    1.389801 A    
O6    Zn2   1.962378 S    
C37   H15   1.109466 S    
C20   C23   1.415082 A    
N6    O17   1.301290 A    
O3    C1    1.290275 A    
O8    Zn1   1.939544 S    
C32   O9    1.383507 S    
N1    C34   1.375191 A    
N2    C33   1.374936 A    
C38   H18   1.108511 S    
C21   C28   1.396930 A    
C11   C13   1.408976 A    
C19   C24   1.418152 A    
C22   C27   1.394371 A    
C21   C23   1.391101 A    
C22   C24   1.389132 A    
C35   C36   1.402971 A    
Zn2   N2    2.016914 S    
N10   O25   1.299859 A    
C7    C9    1.386286 A    
C34   C36   1.422904 A    
C8    C10   1.384119 A    
C13   C15   1.394488 A    
O9    C37   1.411886 S    
O2    Zn2   1.983775 S    
C30   C35   1.408110 A    
O5    Zn1   1.962374 S    
N3    O11   1.301442 A    
C6    C8    1.388531 A    
N9    O24   1.301106 A    
C17   C18   1.355414 D    
C23   N8    1.436224 S    
C29   C31   1.420199 A    
N9    O23   1.299463 A    
