data_mof_unit_2908.cif
_audit_creation_date              2012-10-26T19:48:07-0400
_audit_creation_method            fapswitch 2.2
_symmetry_space_group_name_H-M    P1
_symmetry_Int_Tables_number       1
_space_group_crystal_system       triclinic
_cell_length_a                    10.8096
_cell_length_b                    9.756272
_cell_length_c                    10.713809
_cell_angle_alpha                 90.899745
_cell_angle_beta                  84.810238
_cell_angle_gamma                 91.160895
_cell_volume                      1124.92123488

loop_
_atom_site_label
_atom_site_type_symbol
_atom_type_description
_atom_site_fract_x
_atom_site_fract_y
_atom_site_fract_z
_atom_type_partial_charge
C1    C     C_R   0.260218 0.497177 0.502376 0.520262
C2    C     C_3   0.941196 0.537437 0.371844 -0.238805
C3    C     C_3   0.626584 0.089606 0.495469 0.282742
C4    C     C_3   0.628865 0.925872 0.512340 0.271334
C5    C     C_3   0.431284 0.084200 0.621878 -0.000665
C6    C     C_3   0.425113 0.917600 0.616266 0.004853
C7    C     C_3   0.437843 0.077293 0.397433 -0.111568
C8    C     C_3   0.451845 0.915126 0.389859 -0.107177
C9    C     C_R   0.504025 0.499035 0.260284 0.538424
C10   C     C_R   0.739112 0.498925 0.498900 0.539294
C11   C     C_R   0.499755 0.501741 0.740230 0.510873
C12   C     C_3   0.508953 0.497466 0.122802 0.022156
C13   C     C_3   0.419831 0.585504 0.056280 -0.126616
C14   C     C_3   0.481947 0.372028 0.039696 -0.127836
C15   C     C_3   0.392615 0.461220 0.971662 -0.177714
C16   C     C_3   0.502190 0.506089 0.878629 0.024209
C17   C     C_3   0.529711 0.630711 0.963177 0.044025
C18   C     C_3   0.591985 0.418254 0.946136 0.034058
C19   C     C_3   0.619712 0.543349 0.030841 0.053226
C20   C     C_3   0.710820 0.102250 0.273412 0.013340
C21   C     C_3   0.839623 0.135616 0.210030 -0.402523
C22   C     C_3   0.844198 0.920937 0.478361 -0.000039
C23   C     C_3   0.059186 0.563592 0.619210 -0.246872
C24   C     C_3   0.954851 0.888129 0.386872 -0.400960
C25   C     C_3   0.300330 0.149618 0.662914 -0.212502
C26   C     C_3   0.289197 0.250493 0.773316 -0.409191
C27   C     C_3   0.295583 0.849964 0.652314 -0.203373
C28   C     C_3   0.194015 0.880387 0.564137 -0.432270
C29   C     C_3   0.542829 0.778245 0.917751 -0.259954
C30   C     C_3   0.565786 0.881341 0.021615 -0.469472
C31   C     C_3   0.680670 0.323319 0.866965 -0.265440
C32   C     C_3   0.764742 0.244419 0.943463 -0.474506
C33   C     C_3   0.743521 0.586496 0.080525 -0.265348
C34   C     C_3   0.066250 0.338932 0.514278 -0.245113
C35   C     C_3   0.841511 0.630202 0.976819 -0.459798
C36   C     C_3   0.919697 0.577263 0.609206 -0.230541
C37   C     C_3   0.922846 0.341281 0.516356 -0.227574
C38   C     C_3   0.083869 0.542951 0.376275 -0.227140
C39   C     C_3   0.121196 0.487660 0.502698 0.062805
C40   C     C_3   0.877379 0.490558 0.499071 0.055863
Cu1   Cu    Cu3+1 0.499860 0.642410 0.500060 0.919041
Cu2   Cu    Cu3+1 0.499860 0.357590 0.500060 0.914110
H1    H     H_    0.295743 0.435635 0.952951 0.094669
H2    H     H_    0.469406 0.122590 0.306861 0.111963
H3    H     H_    0.514653 0.887409 0.306713 0.116877
H4    H     H_    0.348710 0.653595 0.104136 0.100507
H5    H     H_    0.463008 0.265929 0.073306 0.097493
H6    H     H_    0.100485 0.663217 0.636481 0.118272
H7    H     H_    0.105603 0.272465 0.435674 0.109505
H8    H     H_    0.073447 0.505548 0.705330 0.094946
H9    H     H_    0.087720 0.293705 0.603833 0.107496
H10   H     H_    0.867842 0.545232 0.698200 0.091759
H11   H     H_    0.879560 0.298222 0.605935 0.110128
H12   H     H_    0.903497 0.634358 0.342138 0.142715
H13   H     H_    0.898617 0.684502 0.597131 0.135905
H14   H     H_    0.895577 0.274157 0.439219 0.175041
H15   H     H_    0.123184 0.646312 0.356405 0.102375
H16   H     H_    0.126527 0.477616 0.298396 0.105623
H17   H     H_    0.645659 0.158648 0.220466 0.131685
H18   H     H_    0.692590 0.991587 0.264051 0.162097
H19   H     H_    0.913107 0.112959 0.270823 0.151045
H20   H     H_    0.856824 0.075348 0.121669 0.094252
H21   H     H_    0.847946 0.246950 0.191078 0.129998
H22   H     H_    0.857735 0.885409 0.573385 0.081838
H23   H     H_    0.918279 0.462374 0.297752 0.097230
H24   H     H_    0.848953 0.032969 0.491463 0.141868
H25   H     H_    0.926810 0.864652 0.291536 0.162687
H26   H     H_    0.024068 0.974045 0.381902 0.078750
H27   H     H_    0.001172 0.801988 0.424284 0.124438
H28   H     H_    0.364412 0.234911 0.834997 0.155837
H29   H     H_    0.285026 0.356841 0.740025 0.173527
H30   H     H_    0.200031 0.235299 0.832773 0.082361
H31   H     H_    0.256535 0.183340 0.582270 0.164049
H32   H     H_    0.229647 0.077272 0.699604 0.119233
H33   H     H_    0.207363 0.976684 0.513407 0.112163
H34   H     H_    0.667049 0.130187 0.581006 0.079542
H35   H     H_    0.189447 0.802641 0.490160 0.167324
H36   H     H_    0.102081 0.886911 0.619082 0.102974
H37   H     H_    0.302247 0.741065 0.673796 0.188803
H38   H     H_    0.263042 0.882640 0.749382 0.066590
H39   H     H_    0.490217 0.873278 0.098324 0.137226
H40   H     H_    0.656876 0.865198 0.058113 0.147970
H41   H     H_    0.565758 0.986504 0.983631 0.117106
H42   H     H_    0.618403 0.786568 0.840739 0.142933
H43   H     H_    0.452969 0.803668 0.882702 0.134821
H44   H     H_    0.826961 0.315221 0.991086 0.152760
H45   H     H_    0.651986 0.909051 0.610703 0.039372
H46   H     H_    0.706560 0.181714 0.011678 0.144076
H47   H     H_    0.822987 0.174814 0.880923 0.122114
H48   H     H_    0.625156 0.246943 0.817129 0.150351
H49   H     H_    0.737754 0.384215 0.796105 0.138663
H50   H     H_    0.868318 0.541725 0.915035 0.144140
H51   H     H_    0.806984 0.713055 0.920228 0.148186
H52   H     H_    0.925704 0.668868 0.019280 0.124552
H53   H     H_    0.727689 0.672237 0.149034 0.158494
H54   H     H_    0.778658 0.499585 0.131769 0.126644
H55   H     H_    0.487915 0.109906 0.700971 0.083847
H56   H     H_    0.472275 0.887896 0.698554 0.074464
H57   H     H_    0.338729 0.103720 0.403583 0.089585
H58   H     H_    0.362699 0.865136 0.371068 0.121577
N1    N     N_3   0.500250 0.143650 0.502780 -0.235922
N2    N     N_3   0.500250 0.856350 0.502780 -0.226310
O1    O     O_R   0.317570 0.620260 0.500070 -0.529455
O2    O     O_3   0.729534 0.868271 0.436090 -0.532810
O3    O     O_R   0.317570 0.379740 0.500070 -0.523421
O4    O     O_R   0.499850 0.620240 0.316900 -0.505337
O5    O     O_R   0.499850 0.379760 0.316900 -0.500369
O6    O     O_R   0.682190 0.620260 0.500030 -0.448009
O7    O     O_R   0.682190 0.379740 0.500030 -0.465574
O8    O     O_R   0.499910 0.620280 0.683200 -0.535506
O9    O     O_R   0.499910 0.379720 0.683200 -0.520450
O10   O     O_3   0.706076 0.153043 0.397730 -0.546903

loop_
_geom_bond_atom_site_label_1
_geom_bond_atom_site_label_2
_ccdc_geom_bond_type
Cu2   N1    S    
Cu1   O6    S    
C34   C37   S    
C17   C29   S    
Cu1   Cu2   S    
C14   C18   S    
C10   O6    A    
C2    H23   S    
C22   O2    S    
C7    C8    S    
C4    H45   S    
C34   H9    S    
C7    H57   S    
C5    C6    S    
C6    H56   S    
Cu2   O7    S    
C25   H32   S    
C37   C40   S    
C27   H37   S    
C38   C39   S    
C15   C16   S    
C32   H46   S    
C26   H30   S    
Cu1   N2    S    
C10   O7    A    
C10   C40   S    
C18   C19   S    
C30   H41   S    
C8    H3    S    
C22   H24   S    
C24   H25   S    
C17   C19   S    
C20   O10   S    
C37   H14   S    
C32   H47   S    
C16   C17   S    
C4    N2    S    
C20   H18   S    
C28   H36   S    
Cu2   O5    S    
C1    O1    A    
C21   H19   S    
C36   H10   S    
C37   H11   S    
C35   H50   S    
C3    N1    S    
C38   H16   S    
C11   O8    A    
C26   H29   S    
C33   H53   S    
Cu2   O3    S    
C24   H27   S    
C35   H51   S    
C5    N1    S    
Cu1   O4    S    
C11   O9    A    
C34   C39   S    
C36   C40   S    
C29   H42   S    
C27   H38   S    
C19   C33   S    
C24   H26   S    
C23   H8    S    
C25   C26   S    
Cu1   O1    S    
C30   H40   S    
Cu2   O9    S    
C29   C30   S    
C3    H34   S    
C38   H15   S    
C11   C16   S    
C2    C38   S    
C6    C27   S    
C3    O10   S    
C31   H48   S    
C32   H44   S    
C7    H2    S    
C12   C13   S    
C20   H17   S    
C28   H35   S    
C21   H20   S    
C5    C25   S    
C12   C14   S    
C31   H49   S    
Cu1   O8    S    
C13   C15   S    
C2    H12   S    
C26   H28   S    
C22   C24   S    
C3    C4    S    
C33   H54   S    
C35   H52   S    
C34   H7    S    
C23   H6    S    
C29   H43   S    
C31   C32   S    
C5    H55   S    
C14   H5    S    
C9    O5    A    
C13   C17   S    
C30   H39   S    
C9    O4    A    
C15   H1    S    
C36   H13   S    
C13   H4    S    
C23   C39   S    
C4    O2    S    
C12   C19   S    
C33   C35   S    
C25   H31   S    
C6    N2    S    
C8    H58   S    
C9    C12   S    
C21   H21   S    
C1    C39   S    
C22   H22   S    
C2    C40   S    
C20   C21   S    
C16   C18   S    
C23   C36   S    
C7    N1    S    
C27   C28   S    
C14   C15   S    
C18   C31   S    
C28   H33   S    
C8    N2    S    
C1    O3    A    
