data_mof_unit_3051.cif
_audit_creation_date              2012-12-10T17:18:56-0500
_audit_creation_method            fapswitch 2.2
_symmetry_space_group_name_H-M    P1
_symmetry_Int_Tables_number       1
_space_group_crystal_system       triclinic
_cell_length_a                    9.666922
_cell_length_b                    10.834186
_cell_length_c                    13.406128
_cell_angle_alpha                 94.832408
_cell_angle_beta                  72.533072
_cell_angle_gamma                 89.948648
_cell_volume                      1334.05887621

loop_
_atom_site_label
_atom_site_type_symbol
_atom_type_description
_atom_site_fract_x
_atom_site_fract_y
_atom_site_fract_z
_atom_type_partial_charge
C1    C     C_R   0.503743 0.736028 0.488696 0.861511
C2    C     C_R   0.425385 0.527650 0.986752 0.040675
C3    C     C_R   0.461321 0.551214 0.879559 -0.136230
C4    C     C_R   0.535642 0.540959 0.037337 -0.071909
C5    C     C_R   0.661362 0.608240 0.991263 -0.163509
C6    C     C_R   0.680733 0.652314 0.893415 0.744852
C7    C     C_R   0.582540 0.622548 0.838524 -0.168811
C8    C     C_R   0.527838 0.486520 0.130228 0.619518
C9    C     C_R   0.741978 0.593823 0.144546 0.536470
C10   C     C_R   0.366356 0.517795 0.819552 -0.151647
C11   C     C_R   0.253687 0.890086 0.460938 0.417835
C12   C     C_R   0.419904 0.506999 0.701430 0.841097
C13   C     C_R   0.116754 0.944110 0.512154 -0.214307
C14   C     C_R   0.103351 0.046931 0.584514 0.636366
C15   C     C_R   0.226921 0.109578 0.590947 0.299045
C16   C     C_R   0.365666 0.062328 0.530192 -0.188222
C17   C     C_R   0.376728 0.939001 0.485481 -0.107354
C18   C     C_R   0.506268 0.869951 0.474917 -0.225555
C19   C     C_R   0.631357 0.933544 0.477660 0.625233
C20   C     C_R   0.624972 0.060403 0.503075 0.318701
C21   C     C_R   0.494173 0.128270 0.520583 -0.168628
C22   C     C_R   0.924333 0.305221 0.365586 0.413705
C23   C     C_R   0.496455 0.263317 0.509908 0.920938
C24   C     C_R   0.026172 0.208598 0.321430 -0.193454
C25   C     C_R   0.165384 0.217390 0.323937 0.562047
C26   C     C_R   0.204578 0.320777 0.373616 -0.086528
C27   C     C_R   0.102702 0.409944 0.437507 -0.022081
C28   C     C_R   0.953316 0.407026 0.435847 0.088252
C29   C     C_R   0.906122 0.589624 0.555053 0.388911
C30   C     C_R   0.051263 0.586619 0.557600 0.751142
C31   C     C_R   0.578049 0.502571 0.300376 0.926872
C32   C     C_R   0.764205 0.632685 0.044781 -0.153428
C33   C     C_R   0.621548 0.522457 0.188615 -0.260692
C34   C     C_R   0.219805 0.495274 0.875359 0.389233
C35   C     C_R   0.178135 0.490781 0.983762 -0.202319
C36   C     C_R   0.277545 0.506238 0.040084 0.443948
Cu1   Cu    Cu3+1 0.359340 0.500010 0.500010 1.112099
Cu2   Cu    Cu3+1 0.640660 0.499990 0.499990 1.127775
H1    H     H_    0.020947 0.903894 0.498519 0.274850
H2    H     H_    0.002006 0.128655 0.275549 0.242603
H3    H     H_    0.317994 0.326427 0.357726 0.245988
H4    H     H_    0.859131 0.685978 0.011323 0.247989
H5    H     H_    0.064550 0.480455 0.025785 0.222298
H6    H     H_    0.592544 0.665615 0.767928 0.211152
N1    N     N_R   0.852480 0.498790 0.499000 -0.237878
N2    N     N_R   0.148360 0.498710 0.498970 -0.239566
O1    O     O_R   0.381190 0.680360 0.500010 -0.533020
O2    O     O_R   0.618760 0.680340 0.500000 -0.493279
O3    O     O_R   0.323240 0.499990 0.650990 -0.483373
O4    O     O_R   0.560820 0.499960 0.650980 -0.580916
O5    O     O_R   0.381240 0.319660 0.500000 -0.609191
O6    O     O_R   0.618810 0.319640 0.499990 -0.522630
O7    O     O_R   0.439180 0.500040 0.349020 -0.566248
O8    O     O_R   0.676760 0.500010 0.349010 -0.490330
F1    F     F_    0.835519 0.629378 0.198803 -0.576689
Cl1   Cl    Cl    0.269456 0.778760 0.353948 -0.463763
F2    F     F_    0.971087 0.084770 0.649693 -0.514931
Cl2   Cl    Cl    0.206154 0.225637 0.694371 -0.453858
Cl3   Cl    Cl    0.776431 0.124432 0.532213 -0.470389
Cl4   Cl    Cl    0.805169 0.722622 0.618417 -0.424418
Cl5   Cl    Cl    0.789462 0.279356 0.303317 -0.548739
F3    F     F_    0.266444 0.129191 0.270636 -0.581634
F4    F     F_    0.794690 0.724130 0.850752 -0.566340
F5    F     F_    0.096209 0.675345 0.617610 -0.580999
F6    F     F_    0.437737 0.391385 0.160430 -0.604958
Cl6   Cl    Cl    0.076140 0.490658 0.819246 -0.441517
Cl7   Cl    Cl    0.199036 0.533759 0.177422 -0.439773
F7    F     F_    0.761080 0.872532 0.456541 -0.571994

loop_
_geom_bond_atom_site_label_1
_geom_bond_atom_site_label_2
_ccdc_geom_bond_type
C6    F4    S    
C12   O4    A    
C31   C33   S    
C1    O2    A    
C19   F7    S    
C29   C30   A    
C9    F1    S    
C30   F5    S    
C2    C3    A    
Cu1   O1    S    
C35   H5    S    
C23   O5    A    
C19   C20   A    
Cu2   O8    S    
C29   Cl4   S    
C4    C8    A    
C5    C32   A    
Cu1   O7    S    
C34   Cl6   S    
C12   O3    A    
C23   O6    A    
C36   Cl7   S    
C8    F6    S    
C10   C34   A    
C3    C10   A    
C22   C28   A    
C7    H6    S    
C24   C25   A    
C20   Cl3   S    
C9    C33   A    
C11   C13   A    
C26   C27   A    
C6    C7    A    
C10   C12   S    
C34   C35   A    
Cu2   O4    S    
C2    C4    A    
C27   N2    A    
C31   O7    A    
C24   H2    S    
Cu1   Cu2   S    
Cu2   O2    S    
C17   C18   A    
C3    C7    A    
C25   F3    S    
C21   C23   S    
C31   O8    A    
C5    C6    A    
Cu1   O5    S    
C15   Cl2   S    
C22   C24   A    
C28   N1    A    
C13   H1    S    
Cu1   N2    S    
Cu2   O6    S    
C15   C16   A    
C16   C17   A    
C4    C5    A    
Cu1   O3    S    
C20   C21   A    
C18   C19   A    
C2    C36   A    
C27   C28   A    
C14   F2    S    
C1    C18   S    
C14   C15   A    
C1    O1    A    
Cu2   N1    S    
C32   H4    S    
C9    C32   A    
C25   C26   A    
C13   C14   A    
C16   C21   A    
C30   N2    A    
C11   C17   A    
C11   Cl1   S    
C35   C36   A    
C26   H3    S    
C29   N1    A    
C8    C33   A    
C22   Cl5   S    
