data_mof_unit_3990.cif
_audit_creation_date              2013-03-05T16:04:52-0500
_audit_creation_method            fapswitch 2.2
_symmetry_space_group_name_H-M    P1
_symmetry_Int_Tables_number       1
_space_group_crystal_system       triclinic
_cell_length_a                    8.413798
_cell_length_b                    14.385194
_cell_length_c                    18.899982
_cell_angle_alpha                 97.617637
_cell_angle_beta                  92.260787
_cell_angle_gamma                 91.478782
_cell_volume                      2264.4770438

loop_
_atom_site_label
_atom_site_type_symbol
_atom_site_description
_atom_site_fract_x
_atom_site_fract_y
_atom_site_fract_z
_atom_type_partial_charge
P1    P     P_3+3 0.061800 0.409390 0.339760 0.485649
O1    O     O_2   0.887710 0.436190 0.327560 -0.351058
O2    O     O_3   0.135370 0.443490 0.416520 -0.369412
O3    O     O_3   0.634420 0.609440 0.364670 -0.376028
O4    O     O_2   0.746747 0.537762 0.242997 -0.320723
O5    O     O_3   0.053023 0.286319 0.323420 -0.625302
O6    O     O_3   0.674161 0.714663 0.255249 -0.469444
H1    H     H_    0.715830 0.778725 0.358951 0.132212
C1    C     C_3   0.640560 0.879871 0.290483 0.021039
H2    H     H_    0.754575 0.892599 0.265970 0.170301
P2    P     P_3+3 0.622760 0.718740 0.547830 0.611174
P3    P     P_3+3 0.064171 0.783941 0.402174 0.521268
O7    O     O_2   0.795290 0.730930 0.525800 -0.354667
O8    O     O_3   0.044470 0.660110 0.398750 -0.260781
O9    O     O_2   0.941501 0.826204 0.454665 -0.406089
O10   O     O_3   0.644437 0.739640 0.641283 -0.450047
O11   O     O_3   0.995173 0.824550 0.322313 -0.668860
C2    C     C_3   0.095920 0.804205 0.264299 1.030119
C3    C     C_3   0.063411 0.873013 0.208209 0.407284
H3    H     H_    0.035105 0.942351 0.238012 -0.000331
C4    C     C_3   0.131936 0.787386 0.677772 0.853147
C5    C     C_3   0.142360 0.879492 0.733395 0.966168
Ba1   Ba    Ba6+2 0.843240 0.541620 0.463500 1.699192
C6    C     C_3   0.974423 0.246593 0.376533 0.927353
H4    H     H_    0.873321 0.289268 0.396330 0.033228
C7    C     C_3   0.909581 0.149727 0.343926 -0.798249
H5    H     H_    0.827463 0.155630 0.297405 0.250685
H6    H     H_    0.845005 0.115778 0.384117 0.215616
H7    H     H_    0.008307 0.104220 0.325353 0.232508
C8    C     C_3   0.709323 0.664059 0.670571 0.882361
H8    H     H_    0.819733 0.642821 0.643640 -0.087810
C9    C     C_3   0.749751 0.693856 0.749709 0.016947
H9    H     H_    0.869651 0.724528 0.756141 0.117107
H10   H     H_    0.754687 0.632204 0.778713 0.076918
P4    P     P_3+3 0.127890 0.590690 0.660240 0.524089
O12   O     O_2   0.301980 0.563840 0.672490 -0.271964
O13   O     O_3   0.054330 0.556590 0.583490 -0.396419
O14   O     O_3   0.555270 0.390630 0.635330 -0.358889
O15   O     O_3   0.125063 0.705770 0.711218 -0.649343
P5    P     P_3+3 0.131159 0.219566 0.605627 0.513895
O16   O     O_3   0.637720 0.384870 0.467990 -0.379668
O17   O     O_3   0.145220 0.339960 0.601250 -0.375499
O18   O     O_2   0.260877 0.174278 0.558218 -0.329702
O19   O     O_3   0.195926 0.202152 0.691894 -0.497014
Ba2   Ba    Ba6+2 0.346570 0.458460 0.536510 1.647445
P6    P     P_3+3 0.614001 0.602529 0.272328 0.589570
C10   C     C_3   0.632275 0.781347 0.312581 0.337071
H11   H     H_    0.510676 0.767516 0.329852 0.064577
H12   H     H_    0.543816 0.887462 0.250316 0.230359
O20   O     O_3   0.551980 0.615210 0.532020 -0.346240
C11   C     C_3   0.438035 0.238588 0.320420 0.730554
H13   H     H_    0.353132 0.284596 0.349946 0.075810
C12   C     C_3   0.356520 0.143557 0.294740 -0.832229
H14   H     H_    0.306983 0.113361 0.340273 0.254388
H15   H     H_    0.256763 0.151648 0.256007 0.239075
H16   H     H_    0.442489 0.094247 0.268464 0.277849
P7    P     P_3+3 0.572671 0.266831 0.451420 0.429767
O21   O     O_2   0.394410 0.269100 0.474240 -0.357635
O22   O     O_3   0.579465 0.225908 0.359631 -0.600386
C13   C     C_3   0.076675 0.230942 0.739070 0.252990
H17   H     H_    0.031029 0.300401 0.729972 0.004751
H18   H     H_    0.978664 0.177297 0.732279 0.100915
C14   C     C_3   0.143196 0.240208 0.816065 0.157120
H19   H     H_    0.246099 0.291378 0.824056 0.137595
H20   H     H_    0.049536 0.267732 0.852289 0.129091
P8    P     P_3+3 0.580977 0.393301 0.726428 0.484044
C15   C     C_3   0.627924 0.215695 0.712238 0.302042
H21   H     H_    0.747257 0.245540 0.703097 -0.026000
O23   O     O_2   0.448070 0.455641 0.757659 -0.392709
O24   O     O_3   0.526518 0.281965 0.746291 -0.505881
H22   H     H_    0.572359 0.185642 0.659593 0.080925
H23   H     H_    0.742006 0.090259 0.734876 0.180418
C16   C     C_3   0.650666 0.137256 0.758261 0.041403
H24   H     H_    0.538043 0.094942 0.758690 0.131440
C17   C     C_R   0.012884 0.442267 0.046403 0.048815
C18   C     C_R   0.920466 0.401961 0.095698 0.047569
C19   C     C_R   0.768941 0.363924 0.073339 -0.182807
C20   C     C_R   0.708179 0.366039 0.003422 0.315943
C21   C     C_R   0.801638 0.404194 0.952855 0.020765
C22   C     C_R   0.954927 0.442133 0.974366 -0.003744
C23   C     C_R   0.745437 0.405414 0.881720 -0.146348
C24   C     C_R   0.839454 0.441682 0.830609 -0.042760
C25   C     C_R   0.992032 0.481570 0.852110 -0.018157
C26   C     C_R   0.048870 0.481720 0.924475 0.057983
C27   C     C_R   0.785072 0.438462 0.758425 0.182897
C28   C     C_R   0.886168 0.470836 0.708052 -0.532654
C29   C     C_R   0.031447 0.519461 0.728220 0.254517
C30   C     C_R   0.084818 0.524787 0.802603 -0.056256
C31   C     C_R   0.161372 0.484692 0.069547 0.117266
C32   C     C_R   0.215718 0.490548 0.142816 0.041924
C33   C     C_R   0.123032 0.448909 0.192868 -0.033828
C34   C     C_R   0.978133 0.402097 0.167066 -0.058728
H25   H     H_    0.695489 0.333950 0.110839 0.204038
H26   H     H_    0.846915 0.463109 0.652496 0.153427
H27   H     H_    0.627770 0.377000 0.866156 0.200044
H28   H     H_    0.905996 0.367605 0.202444 0.174597
C35   C     C_R   0.228078 0.571722 0.829728 -0.022635
C36   C     C_R   0.292631 0.564239 0.899168 -0.104511
C37   C     C_R   0.199531 0.521892 0.947398 0.017861
C38   C     C_R   0.254162 0.524147 0.019766 -0.046216
C39   C     C_R   0.448673 0.599060 0.922339 0.375751
C40   C     C_R   0.499081 0.604436 0.994722 0.517177
C41   C     C_R   0.397248 0.572100 0.043717 -0.168284
C42   C     C_R   0.355374 0.545634 0.166532 -0.228067
C43   C     C_R   0.428934 0.596452 0.117156 0.476033
C44   C     C_R   0.411670 0.551606 0.238968 0.173519
C45   C     C_R   0.323781 0.505689 0.287096 0.240999
C46   C     C_R   0.175297 0.459339 0.267063 0.129292
H29   H     H_    0.290987 0.614225 0.796728 0.204551
C47   C     C_R   0.687184 0.948682 0.551341 0.428777
C48   C     C_R   0.510791 0.806754 0.502491 0.156130
C49   C     C_R   0.367637 0.773766 0.464867 0.131170
C50   C     C_R   0.258419 0.835138 0.441094 0.098764
C51   C     C_R   0.297776 0.931924 0.447646 0.334011
C52   C     C_R   0.448482 0.964891 0.477751 0.011477
C53   C     C_R   0.551324 0.905278 0.510988 -0.242381
C54   C     C_R   0.641106 0.096605 0.506348 -0.120527
C55   C     C_R   0.741493 0.039463 0.541883 -0.067174
C56   C     C_R   0.685667 0.191758 0.505403 0.226993
C57   C     C_R   0.827021 0.228813 0.540760 -0.442213
C58   C     C_R   0.932841 0.170926 0.571536 0.230494
C59   C     C_R   0.890588 0.076517 0.571773 -0.227368
C60   C     C_R   0.495212 0.058707 0.475974 0.045292
H30   H     H_    0.974264 0.032243 0.595156 0.223268
H31   H     H_    0.859571 0.301958 0.540199 0.142452
H32   H     H_    0.417042 0.101551 0.449164 0.206889
O25   O     O_3   0.285154 0.881913 0.775124 -0.708016
H33   H     H_    0.295933 0.944722 0.804209 0.363005
O26   O     O_3   0.135829 0.958643 0.696615 -0.749006
H34   H     H_    0.245016 0.975223 0.683438 0.331986
Br1   Br    Br    0.974789 0.894104 0.800876 -0.314968
O27   O     O_3   0.082983 0.234940 0.432231 -0.729529
H35   H     H_    0.089212 0.295144 0.464414 0.330533
O28   O     O_3   0.598254 0.590093 0.665302 -0.707086
H36   H     H_    0.634223 0.542341 0.627522 0.326354
O29   O     O_3   0.624680 0.948095 0.349374 -0.780596
H37   H     H_    0.727898 0.952398 0.377251 0.337323
Br2   Br    Br    0.602997 0.784501 0.793921 -0.234816
Br3   Br    Br    0.496690 0.294834 0.237169 -0.593557
O30   O     O_3   0.199757 0.884408 0.169483 -0.666137
H38   H     H_    0.183424 0.940278 0.144678 0.358734
O31   O     O_3   0.186875 0.152560 0.833864 -0.632016
H39   H     H_    0.293330 0.140372 0.814536 0.347991
Br4   Br    Br    0.051447 0.676149 0.222405 -0.402371
O32   O     O_3   0.704637 0.173945 0.827720 -0.669821
H40   H     H_    0.608564 0.188689 0.855337 0.377901
Br5   Br    Br    0.494779 0.316678 0.981363 -0.555061
O33   O     O_3   0.556803 0.627076 0.876425 -0.739827
H41   H     H_    0.530669 0.595020 0.828115 0.352246
O34   O     O_3   0.649973 0.637935 0.019407 -0.674146
H42   H     H_    0.710773 0.658419 0.980188 0.388961
Br6   Br    Br    0.458452 0.729718 0.141040 -0.333229
O35   O     O_3   0.257000 0.812837 0.286813 -0.793698
H43   H     H_    0.280620 0.880233 0.303818 0.306034
O36   O     O_3   0.390021 0.503063 0.354214 -0.694871
H44   H     H_    0.392862 0.436695 0.362034 0.326625
O37   O     O_3   0.323006 0.680958 0.458795 -0.647456
H45   H     H_    0.403111 0.648540 0.429082 0.366251
O38   O     O_3   0.194226 0.996609 0.425285 -0.760657
H46   H     H_    0.087935 0.967639 0.412285 0.346749
Br7   Br    Br    0.735940 0.923755 0.646145 -0.433044
Br8   Br    Br    0.886217 0.835900 0.139137 -0.351849
Br9   Br    Br    0.321613 0.791495 0.630941 -0.462605
O39   O     O_3   0.003772 0.789097 0.629572 -0.735208
H47   H     H_    0.031935 0.746691 0.586616 0.353777

loop_
_geom_bond_atom_site_label_1
_geom_bond_atom_site_label_2
_geom_bond_distance
_ccdc_geom_bond_type
C29   C30   1.450441 A    
C14   H20   1.110536 S    
C39   O33   1.370852 S    
O37   H45   0.981711 S    
Ba1   Ba2   4.629555 S    
C5    Br1   1.935136 S    
C16   H24   1.113845 S    
O2    Ba1   2.973451 S    
C48   C49   1.412456 A    
C22   C26   1.419898 A    
C47   C55   1.408424 A    
P8    C27   1.868938 S    
C42   C44   1.421820 A    
O32   H40   0.991787 S    
C5    O25   1.408015 S    
O3    P6    1.736307 S    
C19   C20   1.402371 A    
P5    C58   1.850503 S    
C7    H5    1.110204 S    
C39   C40   1.407794 A    
C13   C14   1.526133 S    
C4    Br9   1.858570 S    
O39   H47   0.989313 S    
P4    O13   1.566107 S    
C6    C7    1.525004 S    
C2    C3    1.564492 S    
C54   C56   1.412449 A    
C27   C28   1.416967 A    
C8    H8    1.107304 S    
C23   H27   1.076119 S    
P7    O22   1.760165 S    
P8    O23   1.538369 D    
C44   C45   1.413397 A    
O10   C8    1.397479 S    
C52   C53   1.420193 A    
C36   C37   1.412265 A    
C34   H28   1.079863 S    
O7    Ba1   2.865206 S    
C13   H18   1.106606 S    
P1    O1    1.540578 D    
C55   C59   1.416568 A    
C19   H25   1.082591 S    
C42   C43   1.411184 A    
O14   Ba2   2.799395 S    
C28   H26   1.078777 S    
C50   C51   1.410921 A    
P4    C29   1.935832 S    
P5    O18   1.541937 D    
O14   P8    1.722010 S    
O27   H35   0.989062 S    
C8    O28   1.388737 S    
P3    O11   1.771616 S    
C10   H11   1.107221 S    
C45   C46   1.414728 A    
C48   C53   1.435692 A    
C15   C16   1.524677 S    
C17   C22   1.427692 A    
C30   C35   1.410330 A    
P7    C56   1.838396 S    
P5    O17   1.745982 S    
C25   C30   1.434667 A    
C4    O39   1.386778 S    
C4    C5    1.576639 S    
C49   C50   1.392920 A    
C47   Br7   1.904551 S    
C35   C36   1.418892 A    
P7    O21   1.576859 D    
C18   C19   1.401262 A    
C12   H15   1.110455 S    
Ba2   O21   2.865519 S    
C52   C60   1.400971 A    
C49   O37   1.366265 S    
C31   C38   1.411916 A    
P2    C48   1.873584 S    
C11   H13   1.103482 S    
O6    P6    1.752488 S    
C1    H12   1.108441 S    
O30   H38   0.992531 S    
C51   C52   1.413154 A    
C31   C32   1.432102 A    
C33   C34   1.414661 A    
C21   C23   1.409956 A    
O3    Ba1   2.800077 S    
C20   C21   1.417410 A    
C3    O30   1.402482 S    
Ba1   O20   2.970524 S    
C12   H14   1.105002 S    
O2    Ba2   2.807110 S    
C38   C41   1.400529 A    
C23   C24   1.415516 A    
C15   H21   1.110572 S    
C16   O32   1.401800 S    
C13   H17   1.111557 S    
P1    O2    1.566303 S    
P4    O12   1.540926 D    
C9    H10   1.103525 S    
O8    Ba1   2.799486 S    
P4    O15   1.802881 S    
C17   C18   1.409241 A    
C9    Br2   1.949049 S    
C35   H29   1.073989 S    
P2    O10   1.753363 S    
C6    O27   1.396206 S    
O38   H46   0.984938 S    
C4    O15   1.406235 S    
P3    O9    1.540248 D    
O5    C6    1.398776 S    
O11   C2    1.416856 S    
O12   Ba2   2.848905 S    
C41   C43   1.399057 A    
C6    H4    1.109783 S    
C32   C42   1.423292 A    
C58   C59   1.395578 A    
C2    O35   1.401827 S    
C20   Br5   1.923149 S    
C18   C34   1.415075 A    
C40   O34   1.387009 S    
P1    Ba1   3.436522 S    
C5    O26   1.411627 S    
C21   C22   1.410702 A    
C25   C26   1.430690 A    
C11   O22   1.405678 S    
C59   H30   1.081578 S    
O25   H33   0.993433 S    
P4    Ba2   3.436985 S    
C36   C39   1.424412 A    
C47   C53   1.430492 A    
O36   H44   0.986003 S    
C57   C58   1.396521 A    
O26   H34   0.992656 S    
C1    H2    1.103143 S    
C12   H16   1.111043 S    
C43   Br6   1.917724 S    
P1    O5    1.755463 S    
C28   C29   1.406104 A    
C26   C37   1.407488 A    
C33   C46   1.440297 A    
P3    O8    1.777123 S    
H23   C16   1.103366 S    
C60   H32   1.070797 S    
C56   C57   1.398324 A    
O17   Ba2   2.800087 S    
C1    C10   1.530395 S    
O28   H36   0.985414 S    
C24   C27   1.416218 A    
O4    P6    1.545460 D    
C7    H6    1.108125 S    
Ba1   O16   2.818313 S    
C37   C38   1.421614 A    
C15   O24   1.404857 S    
C9    H9    1.086412 S    
C3    H3    1.114804 S    
C2    Br4   1.927349 S    
C54   C60   1.400167 A    
H1    C10   1.106915 S    
O16   P7    1.754531 S    
P2    O20   1.576120 S    
Ba1   O13   2.806556 S    
C54   C55   1.406271 A    
C8    C9    1.522798 S    
P2    O7    1.537936 D    
C32   C33   1.430443 A    
P8    O24   1.746737 S    
Ba2   O20   2.817763 S    
O19   C13   1.402624 S    
P6    C44   1.886981 S    
P2    Ba1   3.445868 S    
C57   H31   1.081932 S    
C14   O31   1.401621 S    
P3    C50   1.858492 S    
C15   H22   1.110992 S    
O33   H41   0.980803 S    
C40   C41   1.401497 A    
C51   O38   1.385846 S    
C17   C31   1.404071 A    
P1    C46   1.909402 S    
C14   H19   1.114269 S    
C1    O29   1.395979 S    
P5    O19   1.750243 S    
C7    H7    1.109912 S    
C24   C25   1.414713 A    
O1    Ba1   2.848390 S    
O16   Ba2   2.969738 S    
O31   H39   0.991654 S    
O29   H37   0.994044 S    
C11   C12   1.524524 S    
O35   H43   0.992548 S    
O13   Ba2   2.974240 S    
C3    Br8   1.957687 S    
C45   O36   1.370839 S    
O6    C10   1.410869 S    
O34   H42   0.988943 S    
C11   Br3   1.937043 S    
