data_mof_unit_2964.cif
_audit_creation_date              2012-12-10T19:00:45-0500
_audit_creation_method            fapswitch 2.2
_symmetry_space_group_name_H-M    P1
_symmetry_Int_Tables_number       1
_space_group_crystal_system       triclinic
_cell_length_a                    15.046749
_cell_length_b                    10.8229
_cell_length_c                    9.542493
_cell_angle_alpha                 90.258683
_cell_angle_beta                  89.781156
_cell_angle_gamma                 90.21465
_cell_volume                      1553.95185081

loop_
_atom_site_label
_atom_site_type_symbol
_atom_type_description
_atom_site_fract_x
_atom_site_fract_y
_atom_site_fract_z
_atom_type_partial_charge
C1    C     C_R   0.498372 0.262393 0.499627 0.796589
C2    C     C_R   0.906610 0.554628 0.396596 0.035433
C3    C     C_R   0.955441 0.383653 0.725976 0.581870
C4    C     C_R   0.047887 0.390222 0.726563 -0.243670
C5    C     C_R   0.093773 0.443821 0.614754 0.045786
C6    C     C_R   0.046542 0.497672 0.503619 -0.000822
C7    C     C_R   0.092732 0.555779 0.392433 0.001298
C8    C     C_R   0.045244 0.614076 0.285288 0.596238
C9    C     C_R   0.952716 0.615138 0.288907 -0.227836
C10   C     C_R   0.186316 0.446825 0.613909 -0.187178
C11   C     C_R   0.232081 0.500402 0.501519 -0.089853
C12   C     C_R   0.328744 0.500315 0.500321 0.803285
C13   C     C_R   0.185529 0.554771 0.391215 -0.186527
C14   C     C_R   0.470793 0.064439 0.619768 0.083974
C15   C     C_R   0.490315 0.129374 0.497577 -0.098661
C16   C     C_R   0.496620 0.063775 0.370495 -0.206087
C17   C     C_R   0.496425 0.935081 0.370981 -0.206187
C18   C     C_R   0.489282 0.870787 0.498484 -0.130088
C19   C     C_R   0.468672 0.937281 0.620123 0.137131
C20   C     C_3   0.504900 0.931868 0.766168 -0.066106
C21   C     C_3   0.509015 0.072907 0.763781 -0.458205
C22   C     C_R   0.550137 0.583918 0.073556 0.133621
C23   C     C_R   0.498144 0.737705 0.500128 0.796396
C24   C     C_R   0.444976 0.424259 0.074385 -0.032470
C25   C     C_R   0.445033 0.424158 0.925449 -0.045897
C26   C     C_R   0.549540 0.584570 0.926306 0.112904
C27   C     C_3   0.647484 0.603065 0.917152 -0.477298
C28   C     C_3   0.648996 0.598575 0.075760 0.435779
C29   C     C_R   0.671134 0.495879 0.499901 0.810664
C30   C     C_R   0.814500 0.556988 0.400463 -0.170357
C31   C     C_R   0.767882 0.487967 0.499969 -0.078328
C32   C     C_R   0.813604 0.411654 0.596213 0.123499
C33   C     C_R   0.906744 0.428175 0.610069 -0.036254
C34   C     C_R   0.953182 0.493503 0.503632 -0.043777
Cu1   Cu    Cu3+1 0.500000 0.499980 0.640670 0.940860
Cu2   Cu    Cu3+1 0.500000 0.500020 0.359330 0.982209
H1    H     H_    0.778706 0.611867 0.324662 0.171480
H2    H     H_    0.506695 0.886762 0.272608 0.156756
H3    H     H_    0.571984 0.889068 0.769852 0.134348
H4    H     H_    0.464073 0.120562 0.838833 0.198146
H5    H     H_    0.578113 0.109527 0.763486 0.183999
H6    H     H_    0.401796 0.361140 0.130227 0.128572
H7    H     H_    0.401914 0.360948 0.869477 0.122726
H8    H     H_    0.682798 0.524219 0.867492 0.249898
H9    H     H_    0.665092 0.695425 0.874583 0.134834
H10   H     H_    0.671658 0.685630 0.126694 0.039301
H11   H     H_    0.083689 0.354634 0.816018 0.176571
H12   H     H_    0.222826 0.405338 0.699375 0.144356
H13   H     H_    0.221805 0.597952 0.306002 0.199630
H14   H     H_    0.917004 0.662114 0.206460 0.180126
H15   H     H_    0.506665 0.111084 0.271871 0.170829
N1    N     N_R   0.500570 0.500930 0.147930 -0.158872
N2    N     N_R   0.500570 0.500890 0.852020 -0.166312
O1    O     O_R   0.500000 0.319640 0.618810 -0.582474
O2    O     O_R   0.500010 0.319680 0.381230 -0.580967
O3    O     O_R   0.370250 0.499950 0.618800 -0.584032
O4    O     O_R   0.370260 0.499990 0.381220 -0.589773
O5    O     O_R   0.499990 0.680320 0.618770 -0.582712
O6    O     O_R   0.500000 0.680360 0.381190 -0.597527
O7    O     O_R   0.629740 0.500010 0.618780 -0.598282
O8    O     O_R   0.629750 0.500050 0.381200 -0.517633
C35   C     C_3   0.440093 0.876676 0.875746 -0.363677
C36   C     C_3   0.342520 0.914836 0.860858 -0.755846
H16   H     H_    0.334427 0.016168 0.872045 0.236285
H17   H     H_    0.315738 0.884363 0.758038 0.250952
H18   H     H_    0.302625 0.869671 0.944441 0.249484
H19   H     H_    0.442657 0.774681 0.867312 0.219088
H20   H     H_    0.463626 0.902342 0.982250 0.190016
F1    F     F_    0.691572 0.493292 0.122239 -0.617169
C37   C     C_3   0.765629 0.300744 0.661404 -0.353906
C38   C     C_3   0.735207 0.208977 0.548641 -0.840225
H21   H     H_    0.686128 0.250732 0.477026 0.254364
H22   H     H_    0.793193 0.177022 0.486027 0.267242
H23   H     H_    0.703832 0.127310 0.598763 0.232977
H24   H     H_    0.808494 0.246008 0.730729 0.269461
H25   H     H_    0.708350 0.330446 0.726410 0.226831
F2    F     F_    0.915004 0.345654 0.845641 -0.664034
F3    F     F_    0.088173 0.671405 0.178174 -0.666764

loop_
_geom_bond_atom_site_label_1
_geom_bond_atom_site_label_2
_ccdc_geom_bond_type
C24   N1    A    
C23   O5    A    
C36   H17   S    
Cu1   N2    S    
C24   H6    S    
C19   C20   S    
C16   H15   S    
Cu2   O6    S    
C25   H7    S    
C7    C8    A    
C23   O6    A    
C28   H10   S    
C26   C27   S    
C35   H19   S    
Cu1   O5    S    
C14   C21   S    
C25   N2    A    
C5    C6    A    
C3    C33   A    
C15   C16   A    
C18   C19   A    
C27   H8    S    
C28   F1    S    
C8    C9    A    
C37   C38   S    
C1    C15   S    
Cu2   N1    S    
C2    C34   A    
C36   H18   S    
C22   C28   S    
Cu1   O1    S    
C8    F3    S    
C17   C18   A    
C29   O8    A    
C18   C23   S    
C24   C25   A    
Cu2   O4    S    
C38   H22   S    
C20   H3    S    
C16   C17   A    
C32   C37   S    
C6    C34   A    
C30   H1    S    
Cu1   O7    S    
Cu1   Cu2   S    
C1    O1    A    
C35   C36   S    
C31   C32   A    
C29   O7    A    
C33   C34   A    
C12   O3    A    
C21   H5    S    
C12   O4    A    
C10   H12   S    
C13   H13   S    
C3    C4    A    
C3    F2    S    
C26   N2    A    
C37   H24   S    
C22   N1    A    
Cu1   O3    S    
C14   C19   A    
C9    H14   S    
C4    C5    A    
C38   H23   S    
C11   C12   S    
C6    C7    A    
C35   H20   S    
C2    C30   A    
C32   C33   A    
C1    O2    A    
C5    C10   A    
C29   C31   S    
Cu2   O2    S    
C37   H25   S    
C11   C13   A    
C27   H9    S    
C30   C31   A    
C21   H4    S    
C17   H2    S    
C20   C35   S    
C10   C11   A    
C36   H16   S    
C7    C13   A    
C38   H21   S    
C20   C21   S    
C22   C26   A    
C27   C28   S    
C14   C15   A    
C2    C9    A    
Cu2   O8    S    
C4    H11   S    
