data_mof_unit_1222.cif
_audit_creation_date              2012-12-10T17:37:16-0500
_audit_creation_method            fapswitch 2.2
_symmetry_space_group_name_H-M    P1
_symmetry_Int_Tables_number       1
_space_group_crystal_system       triclinic
_cell_length_a                    12.326728
_cell_length_b                    13.182776
_cell_length_c                    15.838659
_cell_angle_alpha                 77.925712
_cell_angle_beta                  101.006693
_cell_angle_gamma                 116.559903
_cell_volume                      2237.24163365

loop_
_atom_site_label
_atom_site_type_symbol
_atom_type_description
_atom_site_fract_x
_atom_site_fract_y
_atom_site_fract_z
_atom_type_partial_charge
C1    C     C_R   0.854861 0.286604 0.507461 0.772097
C2    C     C_3   0.998608 0.499463 0.917188 0.186444
C3    C     C_3   0.104396 0.582873 0.028805 -0.158748
C4    C     C_3   0.000193 0.499364 0.082822 0.187009
C5    C     C_3   0.008957 0.601322 0.955835 -0.154209
C6    C     C_3   0.904751 0.517811 0.011394 -0.155930
C7    C     C_1   0.998150 0.499587 0.825310 -0.066336
C8    C     C_1   0.000931 0.499460 0.174706 -0.074235
C9    C     C_R   0.275402 0.021583 0.386163 -0.191685
C10   C     C_R   0.227996 0.834478 0.470129 -0.046427
C11   C     C_R   0.815278 0.085386 0.563742 -0.183775
C12   C     C_R   0.999371 0.499769 0.659952 0.825506
C13   C     C_R   0.736467 0.970615 0.580900 -0.140554
C14   C     C_R   0.613133 0.932915 0.550932 -0.184726
C15   C     C_R   0.566340 0.009526 0.499683 0.078481
C16   C     C_R   0.649784 0.123833 0.473882 0.081558
C17   C     C_R   0.439730 0.976181 0.472303 0.071922
C18   C     C_R   0.400015 0.053447 0.413636 0.164662
C19   C     C_R   0.485183 0.160481 0.381184 -0.240409
C20   C     C_R   0.608263 0.194470 0.409589 -0.198412
C21   C     C_R   0.350962 0.868397 0.501893 -0.252029
C22   C     C_R   0.189701 0.912169 0.413818 -0.194166
C23   C     C_R   0.145075 0.713358 0.487538 0.795655
C24   C     C_R   0.772881 0.163626 0.512340 -0.105362
C25   C     C_R   0.338277 0.318606 0.634166 -0.092730
C26   C     C_R   0.760275 0.646402 0.384260 0.079166
C27   C     C_R   0.663887 0.677987 0.359360 -0.256379
C28   C     C_R   0.559873 0.621919 0.402897 -0.194591
C29   C     C_R   0.550958 0.533019 0.472589 0.006623
C30   C     C_R   0.652499 0.504219 0.495834 0.285486
C31   C     C_R   0.445785 0.472035 0.519948 -0.033762
C32   C     C_R   0.442697 0.381424 0.588257 0.077745
C33   C     C_R   0.545196 0.357774 0.610516 -0.283778
C34   C     C_R   0.000514 0.500082 0.340051 0.819005
C35   C     C_R   0.646712 0.417605 0.565821 -0.160884
C36   C     C_R   0.343146 0.497706 0.502584 0.007493
C37   C     C_R   0.241879 0.351079 0.613395 0.081268
C38   C     C_3   0.989836 0.397499 0.044177 -0.156198
C39   C     C_3   0.894393 0.415947 0.971195 -0.156781
C40   C     C_1   0.998372 0.499703 0.749651 -0.171405
C41   C     C_1   0.001096 0.499683 0.250366 -0.180825
C42   C     C_3   0.094041 0.481013 0.988619 -0.152673
Cu1   Cu    Cu3+1 0.098270 0.475420 0.519690 0.939998
Cu2   Cu    Cu3+1 0.901730 0.524580 0.480310 0.924751
H1    H     H_    0.808185 0.347480 0.946147 0.133844
H2    H     H_    0.374854 0.807915 0.549145 0.149517
H3    H     H_    0.909261 0.113349 0.592638 0.162589
H4    H     H_    0.557711 0.842762 0.567471 0.131479
H5    H     H_    0.770501 0.910874 0.620047 0.148706
H6    H     H_    0.670186 0.275726 0.378387 0.177109
H7    H     H_    0.160787 0.305201 0.646763 0.165812
H8    H     H_    0.550610 0.294191 0.664407 0.137555
H9    H     H_    0.337801 0.564757 0.452281 0.130205
H10   H     H_    0.840665 0.690325 0.350135 0.124507
H11   H     H_    0.982036 0.313867 0.081823 0.132831
H12   H     H_    0.488142 0.649857 0.380341 0.136546
H13   H     H_    0.669717 0.746063 0.306049 0.144643
H14   H     H_    0.719424 0.392961 0.589411 0.204816
H15   H     H_    0.827063 0.532905 0.022136 0.134153
H16   H     H_    0.016757 0.684956 0.918192 0.139234
H17   H     H_    0.190606 0.651354 0.053834 0.133734
H18   H     H_    0.171728 0.465914 0.977880 0.138191
H19   H     H_    0.094611 0.886915 0.388459 0.147874
H20   H     H_    0.456606 0.218296 0.333365 0.147104
H21   H     H_    0.244680 0.080190 0.341278 0.134867
N1    N     N_R   0.246280 0.438200 0.549540 -0.204991
N2    N     N_R   0.754330 0.561180 0.450980 -0.208441
O1    O     O_R   0.972510 0.318130 0.524770 -0.583198
O2    O     O_R   0.806530 0.359650 0.491510 -0.606002
O3    O     O_R   0.082970 0.479240 0.637550 -0.570629
O4    O     O_R   0.916990 0.520750 0.604290 -0.593519
O5    O     O_R   0.193470 0.640350 0.508490 -0.586630
O6    O     O_R   0.027490 0.681870 0.475230 -0.586610
O7    O     O_R   0.083010 0.479250 0.395710 -0.574251
O8    O     O_R   0.917030 0.520760 0.362450 -0.587457
C43   C     C_2   0.324602 0.217319 0.701480 0.323938
H22   H     H_    0.378767 0.170360 0.705342 0.079400
O9    O     O_2   0.249478 0.183036 0.753160 -0.554779

loop_
_geom_bond_atom_site_label_1
_geom_bond_atom_site_label_2
_ccdc_geom_bond_type
C3    C42   S    
Cu1   O5    S    
C11   H3    S    
C19   C20   A    
C4    C8    S    
C28   H12   S    
C10   C22   A    
C33   H8    S    
C26   C27   A    
C30   C35   A    
C35   H14   S    
C26   N2    A    
C28   C29   A    
C43   O9    D    
C38   C42   S    
C5    C6    S    
C37   H7    S    
C36   N1    A    
C9    C22   A    
C15   C16   A    
C11   C24   A    
C1    O1    A    
Cu2   O4    S    
C18   C19   A    
C23   O5    A    
C20   H6    S    
C36   H9    S    
C25   C37   A    
C22   H19   S    
C2    C39   S    
C38   H11   S    
C2    C7    S    
Cu1   O1    S    
C7    C40   T    
C42   H18   S    
C30   N2    A    
C34   O8    A    
C39   H1    S    
Cu1   O7    S    
C16   C24   A    
C13   C14   A    
C34   C41   S    
C23   O6    A    
C26   H10   S    
C3    H17   S    
C10   C21   A    
C43   H22   S    
C4    C6    S    
C27   H13   S    
C14   H4    S    
C1    O2    A    
C12   C40   S    
Cu2   O8    S    
Cu1   Cu2   S    
C29   C30   A    
C31   C32   A    
C14   C15   A    
C19   H20   S    
C16   C20   A    
C37   N1    A    
C17   C18   A    
Cu2   O2    S    
C8    C41   T    
C34   O7    A    
C13   H5    S    
C12   O4    A    
C4    C38   S    
Cu1   O3    S    
C2    C5    S    
C3    C4    S    
C21   H2    S    
C15   C17   A    
C12   O3    A    
C5    H16   S    
C6    C39   S    
C6    H15   S    
C3    C5    S    
C10   C23   S    
C25   C43   S    
C32   C33   A    
C29   C31   A    
C11   C13   A    
C38   C39   S    
C2    C42   S    
Cu1   N1    S    
C33   C35   A    
Cu2   O6    S    
C9    H21   S    
C9    C18   A    
C1    C24   S    
C27   C28   A    
C31   C36   A    
Cu2   N2    S    
C25   C32   A    
C17   C21   A    
