data_mof_unit_4461.cif
_audit_creation_date              2012-12-10T18:44:29-0500
_audit_creation_method            fapswitch 2.2
_symmetry_space_group_name_H-M    P1
_symmetry_Int_Tables_number       1
_space_group_crystal_system       triclinic
_cell_length_a                    12.962068
_cell_length_b                    10.632995
_cell_length_c                    9.895731
_cell_angle_alpha                 89.144558
_cell_angle_beta                  97.634456
_cell_angle_gamma                 90.829881
_cell_volume                      1351.53719949

loop_
_atom_site_label
_atom_site_type_symbol
_atom_type_description
_atom_site_fract_x
_atom_site_fract_y
_atom_site_fract_z
_atom_type_partial_charge
C1    C     C_R   0.502535 0.260501 0.501170 0.848788
C2    C     C_R   0.702079 0.500402 0.528039 0.892087
C3    C     C_R   0.815105 0.500749 0.547728 -0.163300
C4    C     C_R   0.184895 0.499254 0.452273 -0.163299
C5    C     C_R   0.015924 0.503415 0.313449 -0.064930
C6    C     C_R   0.984076 0.496604 0.686554 -0.064954
C7    C     C_R   0.124650 0.506660 0.322292 -0.101339
C8    C     C_R   0.875350 0.493362 0.677710 -0.101338
C9    C     C_R   0.137163 0.490354 0.569901 -0.159971
C10   C     C_R   0.862837 0.509643 0.430099 -0.159975
C11   C     C_R   0.030591 0.497398 0.564707 0.107296
C12   C     C_R   0.497465 0.739499 0.498830 0.848770
C13   C     C_R   0.969409 0.502611 0.435294 0.107302
C14   C     C_R   0.428850 0.068059 0.409991 -0.101694
C15   C     C_R   0.571149 0.931941 0.590009 -0.101700
C16   C     C_R   0.423251 0.938470 0.407079 -0.067289
C17   C     C_R   0.576748 0.061530 0.592921 -0.067290
C18   C     C_2   0.826763 0.488824 0.804959 0.935113
C19   C     C_2   0.173237 0.511227 0.195043 0.935139
C20   C     C_2   0.953152 0.498151 0.176231 0.394640
C21   C     C_2   0.046849 0.501876 0.823771 0.394734
C22   C     C_2   0.338814 0.875081 0.314841 0.506129
C23   C     C_R   0.496197 0.872010 0.497774 -0.137195
C24   C     C_2   0.661185 0.124918 0.685159 0.506100
C25   C     C_2   0.590786 0.708963 0.148306 0.939972
C26   C     C_2   0.409220 0.291032 0.851698 0.939935
C27   C     C_R   0.503802 0.127990 0.502226 -0.137198
C28   C     C_R   0.542206 0.599205 0.075579 0.036276
C29   C     C_R   0.457797 0.400794 0.924421 0.036270
C30   C     C_R   0.540971 0.598852 0.932265 -0.095675
C31   C     C_R   0.459032 0.401146 0.067735 -0.095680
C32   C     C_R   0.297921 0.499599 0.471961 0.892098
H1    H     H_    0.815663 0.523006 0.332773 0.230534
H2    H     H_    0.028825 0.438320 0.904377 0.103555
H3    H     H_    0.322891 0.775395 0.325822 0.084312
H4    H     H_    0.677109 0.224604 0.674177 0.084340
H5    H     H_    0.593964 0.897610 0.167388 0.364372
H6    H     H_    0.406032 0.102377 0.832651 0.364375
H7    H     H_    0.184335 0.476977 0.667226 0.230526
H8    H     H_    0.373134 0.123229 0.343016 0.194616
H9    H     H_    0.626865 0.876771 0.656984 0.194611
H10   H     H_    0.574568 0.677079 0.881189 0.174269
H11   H     H_    0.425437 0.322918 0.118812 0.174306
H12   H     H_    0.773702 0.586094 0.954313 0.347728
H13   H     H_    0.226346 0.413995 0.045703 0.347732
H14   H     H_    0.971162 0.561727 0.095636 0.103614
N1    N     N_R   0.499970 0.499970 0.857200 -0.122477
N2    N     N_R   0.500030 0.500030 0.142800 -0.122492
O1    O     O_R   0.499990 0.316750 0.614620 -0.617939
O2    O     O_R   0.807705 0.600899 0.868844 -0.775752
O3    O     O_2   0.196513 0.612723 0.147033 -0.566900
O4    O     O_R   0.192363 0.399169 0.131182 -0.775747
O5    O     O_2   0.884783 0.418535 0.150755 -0.516657
O6    O     O_2   0.115234 0.581474 0.849234 -0.516656
O7    O     O_2   0.284955 0.934097 0.225701 -0.498055
O8    O     O_2   0.715043 0.065903 0.774301 -0.498063
O9    O     O_2   0.665561 0.695751 0.236050 -0.611340
O10   O     O_R   0.554328 0.829297 0.110994 -0.768762
O11   O     O_2   0.334457 0.304244 0.763928 -0.611314
O12   O     O_R   0.500010 0.683250 0.385380 -0.617954
O13   O     O_R   0.445665 0.170693 0.889045 -0.768755
O14   O     O_R   0.499990 0.316780 0.385290 -0.614768
O15   O     O_R   0.500010 0.683220 0.614710 -0.614775
O16   O     O_R   0.346360 0.499970 0.595710 -0.576555
O17   O     O_R   0.653640 0.500030 0.404290 -0.576565
O18   O     O_R   0.346360 0.499990 0.366380 -0.620731
O19   O     O_R   0.653640 0.500010 0.633620 -0.620733
O20   O     O_2   0.803421 0.387337 0.852944 -0.566889
Zn1   Zn    Zn3+2 0.500000 0.499980 0.653120 1.021585
Zn2   Zn    Zn3+2 0.500000 0.500020 0.346880 1.021578

loop_
_geom_bond_atom_site_label_1
_geom_bond_atom_site_label_2
_ccdc_geom_bond_type
C32   O16   A    
C6    C8    A    
C5    C7    A    
C22   O7    D    
C19   O3    D    
C14   C27   A    
C24   O8    D    
C11   C13   A    
C26   O11   D    
C31   H11   S    
C5    C13   A    
H5    O10   S    
C24   H4    S    
O12   Zn2   S    
C2    O17   A    
C1    C27   S    
C1    O14   A    
H6    O13   S    
C28   C30   A    
C2    C3    S    
C14   H8    S    
C16   C23   A    
C29   C31   A    
C5    C20   S    
O1    Zn1   S    
O16   Zn1   S    
C25   C28   S    
C22   H3    S    
C9    C11   A    
C12   C23   S    
O14   Zn2   S    
O18   Zn2   S    
C25   O9    D    
C29   N1    A    
C4    C7    A    
C3    C10   A    
C15   C23   A    
C26   O13   S    
C3    C8    A    
C10   H1    S    
C7    C19   S    
C31   N2    A    
O15   Zn1   S    
C21   O6    D    
C14   C16   A    
C17   C24   S    
C25   O10   S    
C8    C18   S    
C15   H9    S    
C18   O20   D    
C4    C32   S    
C17   C27   A    
C20   H14   S    
C30   N1    A    
C9    H7    S    
C18   O2    S    
C26   C29   S    
C32   O18   A    
C2    O19   A    
H12   O2    S    
C6    C11   A    
C15   C17   A    
C12   O15   A    
N1    Zn1   S    
C30   H10   S    
C16   C22   S    
C21   H2    S    
H13   O4    S    
C4    C9    A    
C6    C21   S    
C1    O1    A    
C19   O4    S    
C28   N2    A    
O17   Zn2   S    
N2    Zn2   S    
C20   O5    D    
O19   Zn1   S    
C10   C13   A    
C12   O12   A    
