data_mof_unit_1906.cif
_audit_creation_date              2012-12-10T17:48:48-0500
_audit_creation_method            fapswitch 2.2
_symmetry_space_group_name_H-M    P1
_symmetry_Int_Tables_number       1
_space_group_crystal_system       triclinic
_cell_length_a                    15.742749
_cell_length_b                    10.668
_cell_length_c                    9.975459
_cell_angle_alpha                 88.635721
_cell_angle_beta                  87.37029
_cell_angle_gamma                 94.115571
_cell_volume                      1668.61752955

loop_
_atom_site_label
_atom_site_type_symbol
_atom_type_description
_atom_site_fract_x
_atom_site_fract_y
_atom_site_fract_z
_atom_type_partial_charge
C1    C     C_R   0.509971 0.261734 0.502176 0.935542
C2    C     C_R   0.469996 0.043901 0.872248 -0.294658
C3    C     C_R   0.424208 0.928660 0.857556 0.020360
C4    C     C_R   0.338548 0.499356 0.502749 0.910381
C5    C     C_R   0.425257 0.873955 0.731193 -0.090228
C6    C     C_R   0.471553 0.934294 0.619417 -0.028484
C7    C     C_R   0.503546 0.058553 0.630145 0.039705
C8    C     C_R   0.525238 0.129243 0.509608 -0.330992
C9    C     C_R   0.540125 0.069385 0.387509 0.390457
C10   C     C_R   0.513755 0.942673 0.378532 0.396160
C11   C     C_R   0.486065 0.874062 0.496839 -0.286724
C12   C     C_3   0.936749 0.446176 0.639661 0.346533
C13   C     C_R   0.362955 0.357485 0.142427 0.465171
C14   C     C_R   0.289360 0.322503 0.072035 0.495980
C15   C     C_R   0.296716 0.320310 0.932476 -0.369287
C16   C     C_R   0.492636 0.739382 0.498901 0.902948
C17   C     C_R   0.372290 0.363363 0.866225 -0.225600
C18   C     C_R   0.435571 0.433277 0.932093 0.106955
C19   C     C_R   0.433274 0.433273 0.076424 0.012046
C20   C     C_R   0.567166 0.551955 0.064915 -0.044820
C21   C     C_R   0.564125 0.560533 0.922006 -0.029143
C22   C     C_R   0.661604 0.501713 0.496968 0.869894
C23   C     C_3   0.917947 0.496861 0.491793 -0.108985
C24   C     C_3   0.036795 0.423897 0.642195 0.371765
C25   C     C_3   0.052900 0.414257 0.388033 -0.455736
C26   C     C_3   0.953762 0.407009 0.379604 0.994698
C27   C     C_1   0.750650 0.502153 0.489842 -0.171490
C28   C     C_3   0.082182 0.490028 0.510255 -0.132316
C29   C     C_3   0.876081 0.280521 0.791377 -0.099446
C30   C     C_2   0.077140 0.474531 0.769438 0.434848
C31   C     C_2   0.905155 0.541255 0.743308 0.333038
C32   C     C_2   0.938553 0.695833 0.337476 0.484665
C33   C     C_3   0.655803 0.174746 0.281107 -0.324280
C34   C     C_3   0.961751 0.633041 0.468157 -0.419637
C35   C     C_2   0.377647 0.865314 0.975321 0.384201
C36   C     C_3   0.572152 0.893735 0.169998 -0.146577
C37   C     C_2   0.649546 0.576570 0.126114 0.545390
C38   C     C_3   0.123825 0.244352 0.649465 -0.252396
C39   C     C_3   0.361214 0.172504 0.267195 -0.238163
C40   C     C_3   0.165099 0.187614 0.090367 -0.326335
C41   C     C_2   0.631896 0.635288 0.841735 0.493081
C42   C     C_3   0.944738 0.193669 0.310432 -0.300916
C43   C     C_3   0.853941 0.423360 0.205120 -0.210323
C44   C     C_3   0.107394 0.830372 0.547162 -0.282681
C45   C     C_3   0.059216 0.629041 0.485054 0.295498
C46   C     C_1   0.826046 0.500914 0.486531 -0.019736
C47   C     C_1   0.174146 0.492468 0.510758 -0.011827
C48   C     C_1   0.249597 0.496043 0.508416 -0.144933
C49   C     C_R   0.510103 0.107616 0.760491 -0.091527
H1    H     H_    0.547860 0.193583 0.778754 0.174766
H2    H     H_    0.824395 0.326363 0.846593 0.145503
H3    H     H_    0.935686 0.289089 0.846062 0.215347
H4    H     H_    0.856000 0.178865 0.788577 0.157731
H5    H     H_    0.110356 0.566681 0.770362 0.149213
H6    H     H_    0.860628 0.609070 0.715291 0.123496
H7    H     H_    0.872653 0.715112 0.324252 0.081812
H8    H     H_    0.678899 0.224311 0.185901 0.170359
H9    H     H_    0.694182 0.092038 0.294218 0.150131
H10   H     H_    0.666919 0.241103 0.363799 0.170827
H11   H     H_    0.374985 0.912053 0.070716 0.099938
H12   H     H_    0.473763 0.085837 0.969785 0.147113
H13   H     H_    0.630780 0.880994 0.225681 0.174262
H14   H     H_    0.579268 0.981196 0.107209 0.181208
H15   H     H_    0.563780 0.816743 0.098343 0.193287
H16   H     H_    0.680857 0.497107 0.164224 0.037315
H17   H     H_    0.117971 0.160551 0.718144 0.171829
H18   H     H_    0.172357 0.311700 0.689256 0.144415
H19   H     H_    0.147555 0.213546 0.550099 0.160957
H20   H     H_    0.407359 0.137216 0.191849 0.167862
H21   H     H_    0.295853 0.133023 0.250267 0.167396
H22   H     H_    0.375144 0.135070 0.367519 0.166481
H23   H     H_    0.388603 0.785329 0.719935 0.191053
H24   H     H_    0.120905 0.143009 0.170264 0.177596
H25   H     H_    0.205482 0.113276 0.052341 0.142300
H26   H     H_    0.125724 0.222606 0.010072 0.230588
H27   H     H_    0.615291 0.703580 0.767422 0.089471
H28   H     H_    0.979243 0.236651 0.218898 0.183768
H29   H     H_    0.887451 0.137802 0.278162 0.171171
H30   H     H_    0.986412 0.127882 0.358511 0.182403
H31   H     H_    0.823476 0.513161 0.194695 0.195743
H32   H     H_    0.812748 0.357850 0.272246 0.144264
H33   H     H_    0.857446 0.381227 0.104626 0.189799
H34   H     H_    0.245850 0.280421 0.874648 0.175993
H35   H     H_    0.055016 0.870783 0.493082 0.173140
H36   H     H_    0.166883 0.835179 0.482078 0.161911
H37   H     H_    0.119933 0.889067 0.635416 0.194551
H38   H     H_    0.379604 0.341170 0.762898 0.234998
H39   H     H_    0.083735 0.459483 0.294424 0.228689
H40   H     H_    0.077313 0.319447 0.391174 0.214903
H41   H     H_    0.095478 0.661329 0.389997 0.183814
H42   H     H_    0.937030 0.696185 0.545042 0.154742
N1    N     N_R   0.499210 0.498800 0.142780 -0.128577
N2    N     N_R   0.499180 0.498720 0.857170 -0.143038
O1    O     O_R   0.500000 0.316780 0.614690 -0.668005
O2    O     O_2   0.072511 0.411585 0.873676 -0.553225
O3    O     O_2   0.922123 0.536202 0.861447 -0.518600
O4    O     O_2   0.991493 0.726266 0.247071 -0.538406
O5    O     O_3   0.568361 0.137693 0.272172 -0.598870
O6    O     O_2   0.341875 0.760477 0.967579 -0.557536
O7    O     O_3   0.497945 0.890311 0.254926 -0.615597
O8    O     O_2   0.685601 0.681559 0.126274 -0.615050
O9    O     O_3   0.041800 0.289761 0.638861 -0.544064
O10   O     O_3   0.367302 0.305774 0.269718 -0.553844
O11   O     O_3   0.213578 0.288294 0.146310 -0.587670
O12   O     O_R   0.499990 0.316750 0.385360 -0.506864
O13   O     O_2   0.707058 0.619316 0.855272 -0.577264
O14   O     O_3   0.918645 0.280897 0.406441 -0.564073
O15   O     O_3   0.937830 0.450297 0.246616 -0.609975
O16   O     O_3   0.084773 0.705585 0.592739 -0.631707
O17   O     O_R   0.377150 0.500020 0.614720 -0.644505
O18   O     O_R   0.377140 0.499990 0.385380 -0.546425
O19   O     O_R   0.500010 0.683250 0.614640 -0.657598
O20   O     O_R   0.500000 0.683220 0.385310 -0.554883
O21   O     O_R   0.622860 0.500010 0.614620 -0.611881
O22   O     O_R   0.622850 0.499980 0.385280 -0.658960
O23   O     O_3   0.886370 0.328590 0.657748 -0.531965
Zn1   Zn    Zn3+2 0.500010 0.500020 0.653130 0.930864
Zn2   Zn    Zn3+2 0.499990 0.499980 0.346870 1.023494

loop_
_geom_bond_atom_site_label_1
_geom_bond_atom_site_label_2
_ccdc_geom_bond_type
C28   C47   S    
C9    O5    S    
C1    C8    S    
C16   O20   A    
C7    C8    A    
C32   O4    D    
C25   C28   S    
C20   N1    A    
C12   C23   S    
C33   H9    S    
C29   H4    S    
O18   Zn2   S    
C18   C19   A    
C5    H23   S    
C29   H2    S    
C5    C6    A    
O1    Zn1   S    
C44   H37   S    
C31   O3    D    
C40   H24   S    
C33   O5    S    
C23   C26   S    
N1    Zn2   S    
C34   H42   S    
C19   N1    A    
C38   H17   S    
C8    C9    A    
C37   H16   S    
C13   O10   S    
C36   H14   S    
C9    C10   A    
C24   O9    S    
C2    H12   S    
C44   O16   S    
C23   C34   S    
C42   H30   S    
C33   H10   S    
C23   C46   S    
C13   C14   A    
N2    Zn1   S    
C35   O6    D    
O17   Zn1   S    
C28   C45   S    
C41   O13   D    
C13   C19   A    
C7    C49   A    
C26   O15   S    
C6    C11   A    
C1    O1    A    
C15   H34   S    
C3    C5    A    
C43   H31   S    
C25   H39   S    
C35   H11   S    
C36   H13   S    
C32   C34   S    
C30   O2    D    
C2    C49   A    
C40   O11   S    
C30   H5    S    
C11   C16   S    
C14   O11   S    
C47   C48   T    
C3    C35   S    
O22   Zn2   S    
C17   C18   A    
C39   H20   S    
C36   O7    S    
C34   C45   S    
C38   H18   S    
C10   O7    S    
C45   H41   S    
C21   C41   S    
C27   C46   T    
C22   O22   A    
C29   O23   S    
C38   H19   S    
C42   H29   S    
C22   C27   S    
C12   C31   S    
C43   H32   S    
O12   Zn2   S    
C44   H36   S    
C16   O19   A    
C4    C48   S    
C42   O14   S    
C15   C17   A    
C4    O17   A    
C33   H8    S    
C17   H38   S    
C4    O18   A    
C24   C28   S    
C44   H35   S    
C26   O14   S    
C39   O10   S    
C6    C7    A    
C12   C24   S    
C25   H40   S    
C40   H26   S    
C2    C3    A    
C25   C26   S    
C38   O9    S    
C41   H27   S    
C37   O8    D    
C20   C37   S    
O19   Zn1   S    
C21   N2    A    
C39   H21   S    
C40   H25   S    
C45   O16   S    
C43   O15   S    
C24   C30   S    
O21   Zn1   S    
C10   C11   A    
O20   Zn2   S    
C22   O21   A    
C20   C21   A    
C42   H28   S    
C49   H1    S    
C18   N2    A    
C39   H22   S    
C14   C15   A    
C31   H6    S    
C36   H15   S    
C32   H7    S    
C43   H33   S    
C1    O12   A    
C12   O23   S    
C29   H3    S    
