data_mof_unit_2004.cif
_audit_creation_date              2012-12-10T17:18:53-0500
_audit_creation_method            fapswitch 2.2
_symmetry_space_group_name_H-M    P1
_symmetry_Int_Tables_number       1
_space_group_crystal_system       triclinic
_cell_length_a                    9.657833
_cell_length_b                    10.829126
_cell_length_c                    13.40693
_cell_angle_alpha                 94.103287
_cell_angle_beta                  72.18051
_cell_angle_gamma                 88.706382
_cell_volume                      1330.02395969

loop_
_atom_site_label
_atom_site_type_symbol
_atom_type_description
_atom_site_fract_x
_atom_site_fract_y
_atom_site_fract_z
_atom_type_partial_charge
C1    C     C_R   0.499323 0.737449 0.494941 0.804705
C2    C     C_R   0.435920 0.519483 0.978841 -0.038519
C3    C     C_R   0.456702 0.468760 0.874668 -0.022325
C4    C     C_R   0.539273 0.487853 0.030069 0.141678
C5    C     C_R   0.664839 0.412569 0.974283 0.115872
C6    C     C_R   0.673388 0.351739 0.877313 -0.306007
C7    C     C_R   0.563759 0.372005 0.831210 0.440930
C8    C     C_R   0.518958 0.523669 0.136519 -0.192349
C9    C     C_R   0.755685 0.434275 0.123925 -0.205414
C10   C     C_R   0.368831 0.514885 0.816961 -0.186985
C11   C     C_R   0.225742 0.901667 0.505936 0.368756
C12   C     C_R   0.420328 0.501862 0.700465 0.930285
C13   C     C_R   0.095102 0.969935 0.560562 -0.369630
C14   C     C_R   0.098404 0.085188 0.614378 0.523596
C15   C     C_R   0.231538 0.134864 0.607733 -0.209119
C16   C     C_R   0.362316 0.071008 0.548269 -0.063997
C17   C     C_R   0.360378 0.945235 0.514293 0.059986
C18   C     C_R   0.493986 0.872430 0.490092 -0.061552
C19   C     C_R   0.625119 0.931878 0.476759 -0.223933
C20   C     C_R   0.625828 0.059505 0.486905 -0.238419
C21   C     C_R   0.495202 0.130368 0.519593 -0.042372
C22   C     C_R   0.939285 0.345533 0.335658 0.447993
C23   C     C_R   0.497888 0.263721 0.508373 0.823380
C24   C     C_R   0.060730 0.303477 0.248993 -0.386941
C25   C     C_R   0.196820 0.295344 0.259563 0.427087
C26   C     C_R   0.217749 0.347795 0.350000 -0.218519
C27   C     C_R   0.110125 0.424710 0.425076 0.075636
C28   C     C_R   0.961935 0.424583 0.421891 -0.003160
C29   C     C_R   0.893404 0.572804 0.571534 0.479140
C30   C     C_R   0.042038 0.572224 0.570848 -0.121885
C31   C     C_R   0.578476 0.500674 0.299966 0.808469
C32   C     C_R   0.775537 0.391991 0.019661 -0.159323
C33   C     C_R   0.622458 0.491318 0.184744 -0.061556
C34   C     C_R   0.242013 0.590307 0.869293 0.315961
C35   C     C_R   0.211071 0.628859 0.976823 0.456464
C36   C     C_R   0.314067 0.601250 0.027415 -0.315188
Cu1   Cu    Cu3+1 0.359340 0.500010 0.500010 0.991368
Cu2   Cu    Cu3+1 0.640660 0.499990 0.499990 1.028945
H1    H     H_    0.839803 0.414174 0.158692 0.166247
H2    H     H_    0.991515 0.935304 0.558680 0.148034
H3    H     H_    0.231572 0.225087 0.648184 0.192116
H4    H     H_    0.729165 0.102667 0.467551 0.167458
H5    H     H_    0.049315 0.263006 0.176065 0.178944
H6    H     H_    0.322951 0.328112 0.354739 0.222045
H7    H     H_    0.761744 0.284130 0.839678 0.186981
H8    H     H_    0.072457 0.631821 0.628207 0.172584
H9    H     H_    0.874536 0.338617 0.976036 0.151051
H10   H     H_    0.418939 0.569416 0.186047 0.153848
H11   H     H_    0.297084 0.647774 0.103994 0.159830
H12   H     H_    0.728471 0.879793 0.456142 0.163380
N1    N     N_R   0.852480 0.498790 0.499000 -0.190770
N2    N     N_R   0.148360 0.498710 0.498970 -0.175727
O1    O     O_R   0.381190 0.680360 0.500010 -0.522351
O2    O     O_R   0.618760 0.680340 0.500000 -0.565115
O3    O     O_R   0.323240 0.499990 0.650990 -0.547223
O4    O     O_R   0.560820 0.499960 0.650980 -0.514869
O5    O     O_R   0.381240 0.319660 0.500000 -0.629861
O6    O     O_R   0.618810 0.319640 0.499990 -0.513432
O7    O     O_R   0.439180 0.500040 0.349020 -0.594529
O8    O     O_R   0.676760 0.500010 0.349010 -0.540219
O9    O     O_3   0.225016 0.805924 0.432230 -0.715383
H13   H     H_    0.123269 0.790912 0.434288 0.309719
O10   O     O_3   0.973633 0.155083 0.669932 -0.589456
C37   C     C_3   0.891987 0.181865 0.602520 -0.322517
H14   H     H_    0.808618 0.111842 0.609007 0.177748
H15   H     H_    0.958704 0.185786 0.518632 0.145947
H16   H     H_    0.836489 0.274569 0.628583 0.219793
O11   O     O_3   0.788551 0.649018 0.644252 -0.699677
H17   H     H_    0.834501 0.696615 0.690663 0.298354
O12   O     O_3   0.802760 0.308289 0.336360 -0.527189
C38   C     C_3   0.800498 0.194849 0.276877 -0.359588
H18   H     H_    0.872148 0.121006 0.291614 0.156566
H19   H     H_    0.828648 0.207114 0.191753 0.165850
H20   H     H_    0.687613 0.163267 0.299615 0.184088
O13   O     O_3   0.311183 0.237973 0.179198 -0.558414
C39   C     C_3   0.337574 0.117758 0.205559 -0.286339
H21   H     H_    0.238602 0.062314 0.219797 0.164770
H22   H     H_    0.377843 0.120825 0.275063 0.145948
H23   H     H_    0.423704 0.069432 0.138438 0.196965
O14   O     O_3   0.153612 0.628890 0.812252 -0.732850
H24   H     H_    0.067081 0.677508 0.858788 0.362042
O15   O     O_3   0.089306 0.707091 0.026318 -0.587141
C40   C     C_3   0.015374 0.672486 0.128054 -0.307034
H25   H     H_    0.899020 0.703270 0.148333 0.192100
H26   H     H_    0.059696 0.720178 0.187009 0.165788
H27   H     H_    0.019440 0.570375 0.133555 0.154635
O16   O     O_3   0.553486 0.293457 0.748242 -0.760447
H28   H     H_    0.612686 0.216376 0.744376 0.324244

loop_
_geom_bond_atom_site_label_1
_geom_bond_atom_site_label_2
_ccdc_geom_bond_type
C23   O6    A    
O16   H28   S    
C16   C21   A    
C6    H7    S    
C35   C36   A    
C39   H23   S    
C4    C8    A    
C26   H6    S    
C26   C27   A    
Cu1   Cu2   S    
C39   H22   S    
C34   C35   A    
C3    C7    A    
C5    C6    A    
C28   N1    A    
C15   C16   A    
C9    H1    S    
C18   C19   A    
C31   O7    A    
C1    O1    A    
C13   H2    S    
C9    C32   A    
C34   O14   S    
Cu2   O6    S    
C7    O16   S    
C19   C20   A    
C16   C17   A    
C31   C33   S    
O12   C38   S    
C5    C32   A    
Cu1   O1    S    
C22   C28   A    
C13   C14   A    
C9    C33   A    
C35   O15   S    
C37   H16   S    
C39   H21   S    
C15   H3    S    
C38   H19   S    
Cu1   N2    S    
O11   H17   S    
Cu2   N1    S    
C25   C26   A    
C25   O13   S    
C37   H15   S    
C31   O8    A    
C2    C4    A    
O13   C39   S    
C8    H10   S    
C29   C30   A    
C29   O11   S    
C40   H25   S    
Cu2   O2    S    
C17   C18   A    
C1    C18   S    
C10   C34   A    
C12   O4    A    
C24   C25   A    
Cu1   O7    S    
C10   C12   S    
C1    O2    A    
Cu2   O8    S    
C40   H26   S    
C21   C23   S    
C32   H9    S    
C22   C24   A    
C27   N2    A    
C29   N1    A    
C2    C36   A    
C23   O5    A    
C30   N2    A    
C11   C17   A    
C30   H8    S    
O14   H24   S    
C11   O9    S    
C38   H20   S    
C20   H4    S    
C6    C7    A    
C37   H14   S    
C2    C3    A    
C38   H18   S    
C3    C10   A    
C11   C13   A    
C19   H12   S    
C14   O10   S    
C8    C33   A    
O9    H13   S    
C12   O3    A    
O10   C37   S    
Cu1   O3    S    
C4    C5    A    
C40   H27   S    
Cu2   O4    S    
C20   C21   A    
O15   C40   S    
C27   C28   A    
C24   H5    S    
C14   C15   A    
C22   O12   S    
Cu1   O5    S    
C36   H11   S    
