data_mof_unit_3244.cif
_audit_creation_date              2012-10-26T21:05:39-0400
_audit_creation_method            fapswitch 2.2
_symmetry_space_group_name_H-M    P1
_symmetry_Int_Tables_number       1
_space_group_crystal_system       triclinic
_cell_length_a                    13.05023
_cell_length_b                    9.089815
_cell_length_c                    7.799913
_cell_angle_alpha                 89.985162
_cell_angle_beta                  95.657274
_cell_angle_gamma                 90.101839
_cell_volume                      920.750195288

loop_
_atom_site_label
_atom_site_type_symbol
_atom_type_description
_atom_site_fract_x
_atom_site_fract_y
_atom_site_fract_z
_atom_type_partial_charge
C1    C     C_R   0.500486 0.220106 0.500101 0.537565
C2    C     C_R   0.870516 0.498460 0.723219 0.007919
C3    C     C_R   0.135566 0.511810 0.591830 -0.141599
C4    C     C_R   0.866668 0.462357 0.413573 -0.145383
C5    C     C_R   0.029090 0.498257 0.584427 -0.007876
C6    C     C_R   0.973651 0.454372 0.429484 -0.002890
C7    C     C_1   0.500276 0.065428 0.500037 -0.065947
C8    C     C_1   0.500078 0.934642 0.499951 -0.056849
C9    C     C_3   0.822792 0.464956 0.889179 -0.191042
C10   C     C_3   0.791097 0.300631 0.890337 -0.256300
C11   C     C_3   0.731016 0.258734 0.041526 -0.399932
C12   C     C_R   0.499950 0.779917 0.499969 0.562994
C13   C     C_3   0.185392 0.343207 0.152869 -0.185245
C14   C     C_3   0.240801 0.199113 0.206342 -0.307731
C15   C     C_3   0.302471 0.141833 0.064004 -0.422505
C16   C     C_R   0.300298 0.492245 0.468236 0.540352
C17   C     C_R   0.700274 0.495945 0.532842 0.540682
C18   C     C_R   0.813689 0.488018 0.557689 -0.064376
C19   C     C_R   0.188171 0.473606 0.449921 -0.065125
C20   C     C_R   0.025862 0.399556 0.294972 0.393749
C21   C     C_R   0.977623 0.519276 0.731809 0.380647
C22   C     C_R   0.133275 0.409314 0.301399 0.036283
Cu1   Cu    Cu3+1 0.500010 0.500000 0.669080 0.987972
Cu2   Cu    Cu3+1 0.499990 0.500000 0.330920 0.979513
F1    F     F_    0.973419 0.320218 0.168062 -0.690701
F2    F     F_    0.032564 0.547878 0.885514 -0.665102
H1    H     H_    0.824469 0.447356 0.288966 0.164510
H2    H     H_    0.250754 0.120682 0.944712 0.158898
H3    H     H_    0.362255 0.223112 0.035936 0.182152
H4    H     H_    0.341161 0.037372 0.106129 0.159867
H5    H     H_    0.293733 0.214911 0.325015 0.174662
H6    H     H_    0.182886 0.114865 0.234423 0.182655
H7    H     H_    0.128311 0.317851 0.041546 0.235107
H8    H     H_    0.237602 0.424033 0.100054 0.181362
H9    H     H_    0.177892 0.551865 0.709208 0.197210
H10   H     H_    0.784322 0.233190 0.157065 0.195610
H11   H     H_    0.677707 0.347804 0.071171 0.178597
H12   H     H_    0.684974 0.157926 0.008804 0.142540
H13   H     H_    0.742522 0.271993 0.770140 0.165819
H14   H     H_    0.861007 0.230658 0.892977 0.213004
H15   H     H_    0.877700 0.488681 0.002309 0.245764
H16   H     H_    0.758328 0.540175 0.908545 0.154675
N1    N     N_1   0.499980 0.500000 0.076820 -0.107789
N2    N     N_1   0.500020 0.500000 0.923180 -0.100348
O1    O     O_R   0.500000 0.288400 0.642760 -0.501937
O2    O     O_R   0.500000 0.711600 0.357240 -0.487733
O3    O     O_R   0.500000 0.288400 0.357240 -0.509640
O4    O     O_R   0.500000 0.711600 0.642760 -0.488721
O5    O     O_R   0.349000 0.500000 0.619590 -0.505313
O6    O     O_R   0.651000 0.500000 0.380410 -0.512555
O7    O     O_R   0.348990 0.500000 0.334020 -0.505398
O8    O     O_R   0.651010 0.500000 0.665980 -0.512074

loop_
_geom_bond_atom_site_label_1
_geom_bond_atom_site_label_2
_ccdc_geom_bond_type
C17   O6    A    
C11   H12   S    
C21   F2    S    
C3    C19   A    
Cu1   O1    S    
C3    H9    S    
C8    C12   S    
C2    C18   A    
C6    C20   A    
C9    C10   S    
C9    H15   S    
C16   O7    A    
C12   O4    A    
C14   H5    S    
N1    N2    T    
Cu2   O2    S    
C4    H1    S    
Cu2   O7    S    
C17   C18   S    
Cu1   O8    S    
C4    C18   A    
C13   H8    S    
C13   C14   S    
C13   H7    S    
Cu2   O3    S    
C1    O1    A    
C9    H16   S    
C2    C21   A    
C16   C19   S    
C17   O8    A    
C4    C6    A    
C11   H10   S    
C20   C22   A    
C13   C22   S    
C15   H3    S    
Cu2   O6    S    
C5    C6    A    
Cu1   O5    S    
C20   F1    S    
Cu1   Cu2   S    
C15   H2    S    
C7    C8    T    
C19   C22   A    
C5    C21   A    
C16   O5    A    
C15   H4    S    
C10   H14   S    
C10   C11   S    
C11   H11   S    
Cu2   N1    S    
C14   C15   S    
C1    O3    A    
Cu1   O4    S    
C1    C7    S    
C2    C9    S    
Cu1   N2    S    
C14   H6    S    
C10   H13   S    
C3    C5    A    
C12   O2    A    
