data_mof_unit_1576.cif
_audit_creation_date              2012-12-10T17:12:39-0500
_audit_creation_method            fapswitch 2.2
_symmetry_space_group_name_H-M    P1
_symmetry_Int_Tables_number       1
_space_group_crystal_system       triclinic
_cell_length_a                    23.413908
_cell_length_b                    10.691147
_cell_length_c                    10.015247
_cell_angle_alpha                 90.853586
_cell_angle_beta                  89.448532
_cell_angle_gamma                 90.308603
_cell_volume                      2506.603195

loop_
_atom_site_label
_atom_site_type_symbol
_atom_type_description
_atom_site_fract_x
_atom_site_fract_y
_atom_site_fract_z
_atom_type_partial_charge
C1    C     C_R   0.497682 0.262500 0.498954 0.895868
C2    C     C_R   0.120007 0.612134 0.441900 0.534309
C3    C     C_R   0.236105 0.558920 0.608551 0.180596
C4    C     C_R   0.389357 0.502410 0.500689 0.900778
C5    C     C_R   0.296279 0.560705 0.611243 0.128807
C6    C     C_R   0.327047 0.508814 0.501340 -0.103342
C7    C     C_R   0.297997 0.462247 0.389263 -0.265860
C8    C     C_R   0.239026 0.464636 0.385782 -0.160373
C9    C     C_R   0.208289 0.511912 0.494752 0.277197
C10   C     C_R   0.760117 0.425565 0.395399 0.280497
C11   C     C_R   0.700709 0.425316 0.403219 -0.363124
C12   C     C_R   0.970351 0.294130 0.571461 -0.166144
C13   C     C_R   0.672402 0.501735 0.496979 -0.085790
C14   C     C_R   0.703551 0.578707 0.585740 0.184485
C15   C     C_R   0.763004 0.575774 0.580555 -0.230662
C16   C     C_R   0.503013 0.737340 0.500715 0.921777
C17   C     C_R   0.791151 0.500658 0.485606 0.265363
C18   C     C_2   0.511839 0.932187 0.388975 -0.174921
C19   C     C_2   0.512605 0.868547 0.502134 -0.353832
C20   C     C_2   0.514837 0.066308 0.396390 -0.250872
C21   C     C_2   0.487816 0.130972 0.493822 0.086019
C22   C     C_2   0.527029 0.583129 0.926330 0.189009
C23   C     C_R   0.029673 0.296490 0.573592 -0.171618
C24   C     C_2   0.536142 0.564533 0.074978 0.167221
C25   C     C_R   0.610445 0.500494 0.499346 0.902231
C26   C     C_R   0.880034 0.605594 0.439468 0.506485
C27   C     C_R   0.880462 0.398403 0.526043 0.539038
C28   C     C_R   0.940095 0.398224 0.527225 -0.010483
C29   C     C_R   0.969897 0.505520 0.484008 -0.021097
C30   C     C_R   0.939664 0.609986 0.439451 -0.046416
C31   C     C_3   0.658022 0.778230 0.617986 -0.737484
C32   C     C_3   0.445704 0.086982 0.715640 -0.779797
C33   C     C_3   0.516172 0.802829 0.889034 -0.794084
C34   C     C_R   0.059754 0.402922 0.531336 -0.000259
C35   C     C_3   0.637324 0.561326 0.113621 -0.756471
C36   C     C_3   0.066422 0.921054 0.472522 -0.683161
C37   C     C_3   0.188912 0.733994 0.722149 -0.747392
C38   C     C_3   0.345679 0.744541 0.694945 -0.729909
C39   C     C_3   0.805957 0.414721 0.179288 -0.766921
C40   C     C_R   0.029940 0.508244 0.485833 -0.063332
C41   C     C_R   0.059972 0.615752 0.442322 -0.065373
C42   C     C_R   0.028967 0.721599 0.400132 0.218489
C43   C     C_R   0.969319 0.716676 0.397538 -0.232040
C44   C     C_R   0.119207 0.406886 0.533925 0.520898
H1    H     H_    0.948340 0.210708 0.604843 0.188088
H2    H     H_    0.542855 0.112252 0.324821 0.154888
H3    H     H_    0.419183 0.005043 0.532658 0.246703
H4    H     H_    0.435899 0.993992 0.758359 0.222902
H5    H     H_    0.414105 0.155365 0.755303 0.257156
H6    H     H_    0.489199 0.115115 0.748460 0.244795
H7    H     H_    0.592495 0.706885 0.885466 0.220308
H8    H     H_    0.535636 0.882613 0.835159 0.225947
H9    H     H_    0.514472 0.826961 0.997282 0.210433
H10   H     H_    0.472054 0.788062 0.852119 0.256627
H11   H     H_    0.488052 0.419602 0.897075 0.124266
H12   H     H_    0.676555 0.365630 0.335739 0.159197
H13   H     H_    0.585959 0.718463 0.123468 0.207866
H14   H     H_    0.670850 0.605205 0.176767 0.248463
H15   H     H_    0.650331 0.569376 0.007156 0.207329
H16   H     H_    0.633926 0.460742 0.138923 0.249169
H17   H     H_    0.051843 0.214701 0.608481 0.184647
H18   H     H_    0.464425 0.467766 0.101854 0.127579
H19   H     H_    0.038096 0.877565 0.282604 0.220777
H20   H     H_    0.024963 0.954785 0.513962 0.208733
H21   H     H_    0.091417 0.002744 0.436796 0.248740
H22   H     H_    0.090939 0.875518 0.552664 0.251162
H23   H     H_    0.697319 0.676529 0.764787 0.215322
H24   H     H_    0.946280 0.798169 0.364784 0.193010
H25   H     H_    0.213012 0.565863 0.810800 0.223780
H26   H     H_    0.142586 0.744838 0.743303 0.243463
H27   H     H_    0.198969 0.779346 0.625484 0.270593
H28   H     H_    0.213279 0.782674 0.802293 0.232135
H29   H     H_    0.306316 0.610311 0.812235 0.223095
H30   H     H_    0.308982 0.807606 0.678410 0.237023
H31   H     H_    0.374391 0.746368 0.606101 0.232537
H32   H     H_    0.369959 0.780015 0.782393 0.222376
H33   H     H_    0.320953 0.422678 0.304358 0.178074
H34   H     H_    0.696114 0.832848 0.585690 0.246363
H35   H     H_    0.216925 0.428184 0.298905 0.154176
H36   H     H_    0.767048 0.267224 0.275939 0.233983
H37   H     H_    0.829636 0.349847 0.111458 0.246456
H38   H     H_    0.834598 0.494431 0.204617 0.262636
H39   H     H_    0.767872 0.449807 0.126303 0.234825
H40   H     H_    0.633603 0.834648 0.692647 0.230249
H41   H     H_    0.630181 0.760173 0.530609 0.236874
H42   H     H_    0.787635 0.633910 0.648582 0.154973
H43   H     H_    0.509471 0.886973 0.291272 0.179768
H44   H     H_    0.519851 0.914464 0.597878 0.186498
N1    N     N_R   0.851980 0.500975 0.482341 -0.340494
N2    N     N_2   0.202794 0.602180 0.719382 -0.310814
N3    N     N_2   0.325751 0.618545 0.720106 -0.283199
N4    N     N_2   0.788579 0.349215 0.298399 -0.287002
N5    N     N_R   0.147607 0.510328 0.490169 -0.339384
N6    N     N_2   0.500610 0.501330 0.852150 -0.203441
N7    N     N_2   0.500630 0.501360 0.147810 -0.208669
N8    N     N_2   0.675494 0.661888 0.676866 -0.300360
N9    N     N_2   0.441709 0.080159 0.571438 -0.307823
N10   N     N_2   0.549972 0.691732 0.865278 -0.231472
N11   N     N_2   0.583438 0.623462 0.138436 -0.242709
N12   N     N_2   0.056877 0.834474 0.362435 -0.250742
O1    O     O_R   0.499990 0.319060 0.613040 -0.615296
O2    O     O_R   0.583840 0.500020 0.613040 -0.586161
O3    O     O_R   0.583850 0.500060 0.386900 -0.592883
O4    O     O_2   0.850121 0.704620 0.396601 -0.566227
O5    O     O_2   0.851019 0.297731 0.569401 -0.561554
O6    O     O_2   0.148687 0.308303 0.579420 -0.569060
O7    O     O_2   0.150967 0.708092 0.392829 -0.540230
O8    O     O_R   0.500010 0.319100 0.386900 -0.633574
O9    O     O_R   0.416150 0.499940 0.613100 -0.581667
O10   O     O_R   0.416160 0.499980 0.386960 -0.627091
O11   O     O_R   0.499990 0.680900 0.613100 -0.580068
O12   O     O_R   0.500010 0.680940 0.386960 -0.605285
Zn1   Zn    Zn3+2 0.499990 0.499970 0.650990 0.973479
Zn2   Zn    Zn3+2 0.500010 0.500030 0.349010 0.949432

loop_
_geom_bond_atom_site_label_1
_geom_bond_atom_site_label_2
_ccdc_geom_bond_type
C4    O9    A    
C1    C21   S    
C22   N10   S    
C9    N5    S    
C24   N11   S    
O1    Zn1   S    
C41   C42   A    
O12   Zn2   S    
C7    C8    A    
C38   H32   S    
C26   N1    A    
C12   C23   A    
H19   N12   S    
C37   N2    S    
C12   C28   A    
C3    N2    S    
C31   H41   S    
C28   C29   A    
C18   C19   D    
C5    C6    A    
C36   H22   S    
C25   O2    A    
C27   O5    S    
N7    Zn2   S    
C31   N8    S    
H13   N11   S    
C2    O7    S    
C32   N9    S    
C35   H15   S    
C33   N10   S    
C22   N6    D    
O8    Zn2   S    
C35   H14   S    
C44   N5    A    
C26   O4    S    
C8    C9    A    
C8    H35   S    
C13   C14   A    
O10   Zn2   S    
O9    Zn1   S    
C7    H33   S    
H7    N10   S    
H29   N3    S    
C10   N4    S    
H18   N7    S    
C32   H4    S    
C13   C25   S    
H11   N6    S    
C35   N11   S    
C14   N8    S    
N6    Zn1   S    
C38   H31   S    
C33   H9    S    
O3    Zn2   S    
C17   N1    S    
C39   H37   S    
O11   Zn1   S    
C19   H44   S    
C24   N7    D    
C36   H21   S    
C25   O3    A    
C38   N3    S    
C31   H40   S    
C35   H16   S    
C33   H8    S    
H36   N4    S    
C29   C30   A    
C3    C9    A    
C42   N12   S    
C21   N9    S    
C10   C17   A    
C23   C34   A    
C34   C44   A    
C36   N12   S    
C32   H6    S    
C5    N3    S    
C15   H42   S    
C4    C6    S    
C40   C41   A    
C26   C30   A    
C37   H27   S    
H23   N8    S    
C22   C24   S    
C30   C43   A    
C42   C43   A    
H25   N2    S    
C1    O1    A    
C39   N4    S    
C16   O12   A    
C31   H34   S    
C38   H30   S    
C33   H10   S    
C15   C17   A    
C4    O10   A    
C2    N5    A    
C39   H38   S    
C12   H1    S    
C3    C5    A    
C6    C7    A    
C44   O6    S    
C43   H24   S    
C18   H43   S    
H3    N9    S    
C39   H39   S    
O2    Zn1   S    
C36   H20   S    
C11   C13   A    
C16   C19   S    
C29   C40   A    
C27   N1    A    
C18   C20   S    
C32   H5    S    
C10   C11   A    
C1    O8    A    
C23   H17   S    
C20   C21   D    
C37   H28   S    
C27   C28   A    
C14   C15   A    
C34   C40   A    
C2    C41   A    
C37   H26   S    
C20   H2    S    
C11   H12   S    
C16   O11   A    
