data_mof_unit_1637.cif
_audit_creation_date              2012-12-10T20:44:47-0500
_audit_creation_method            fapswitch 2.2
_symmetry_space_group_name_H-M    P1
_symmetry_Int_Tables_number       1
_space_group_crystal_system       triclinic
_cell_length_a                    9.867834
_cell_length_b                    10.72701
_cell_length_c                    16.786801
_cell_angle_alpha                 88.902781
_cell_angle_beta                  94.873741
_cell_angle_gamma                 89.281444
_cell_volume                      1769.99399348

loop_
_atom_site_label
_atom_site_type_symbol
_atom_type_description
_atom_site_fract_x
_atom_site_fract_y
_atom_site_fract_z
_atom_type_partial_charge
C1    C     C_R   0.500048 0.259880 0.497452 0.884555
C2    C     C_R   0.497520 0.128718 0.484557 -0.101756
C3    C     C_R   0.372724 0.066567 0.476111 -0.220492
C4    C     C_R   0.517915 0.505121 0.653225 0.869704
C5    C     C_R   0.372081 0.937493 0.476377 -0.225548
C6    C     C_R   0.496223 0.871554 0.485003 -0.136402
C7    C     C_R   0.617419 0.934587 0.478103 0.134783
C8    C     C_3   0.752286 0.926240 0.526881 0.202340
C9    C     C_3   0.751789 0.067768 0.525926 -0.544283
C10   C     C_R   0.082035 0.461202 0.566469 0.133186
C11   C     C_R   0.062097 0.546281 0.436499 -0.131549
C12   C     C_R   0.654793 0.532509 0.782482 -0.210623
C13   C     C_R   0.918321 0.545256 0.436198 -0.151479
C14   C     C_R   0.938850 0.462942 0.566966 0.168233
C15   C     C_3   0.940387 0.336093 0.605099 -0.134133
C16   C     C_R   0.498927 0.740012 0.497474 0.894628
C17   C     C_3   0.094807 0.332940 0.603365 -0.168052
C18   C     C_R   0.481879 0.500908 0.346535 0.873075
C19   C     C_R   0.528259 0.533935 0.737830 -0.028406
C20   C     C_R   0.411636 0.572961 0.773092 -0.244533
C21   C     C_R   0.419566 0.600243 0.853485 -0.161996
C22   C     C_R   0.544988 0.587995 0.899898 0.326730
C23   C     C_R   0.567162 0.491634 0.133615 -0.197033
C24   C     C_R   0.662855 0.559187 0.863302 -0.205067
C25   C     C_R   0.575605 0.467270 0.215605 0.072151
C26   C     C_R   0.454527 0.557415 0.095661 0.303340
C27   C     C_R   0.469773 0.510275 0.259795 -0.049121
C28   C     C_R   0.354600 0.570261 0.220972 -0.258449
C29   C     C_R   0.346933 0.592887 0.139119 -0.197664
C30   C     C_R   0.617790 0.062247 0.477826 0.070070
H1    H     H_    0.830497 0.108024 0.489825 0.198789
H2    H     H_    0.654055 0.312292 0.272859 0.182134
H3    H     H_    0.761500 0.378950 0.213107 0.174172
H4    H     H_    0.275514 0.890361 0.475500 0.172112
H5    H     H_    0.666955 0.908698 0.635074 0.177789
H6    H     H_    0.836776 0.889469 0.640939 0.178236
H7    H     H_    0.953466 0.890554 0.514279 0.174331
H8    H     H_    0.849185 0.776448 0.482634 0.220177
H9    H     H_    0.743110 0.109005 0.585607 0.188004
H10   H     H_    0.856433 0.580620 0.384219 0.168983
H11   H     H_    0.937453 0.405697 0.719539 0.188179
H12   H     H_    0.108262 0.582343 0.384788 0.147225
H13   H     H_    0.914564 0.250370 0.712547 0.204661
H14   H     H_    0.888082 0.268631 0.565379 0.160868
H15   H     H_    0.272340 0.308196 0.674495 0.214780
H16   H     H_    0.167789 0.414929 0.709481 0.187403
H17   H     H_    0.759996 0.551148 0.898407 0.136691
H18   H     H_    0.272202 0.602991 0.254248 0.162558
H19   H     H_    0.647478 0.457727 0.099167 0.143373
H20   H     H_    0.130827 0.261752 0.562310 0.158770
H21   H     H_    0.746780 0.509054 0.755458 0.167301
H22   H     H_    0.326954 0.626180 0.879694 0.145401
H23   H     H_    0.258269 0.640165 0.109634 0.144471
H24   H     H_    0.314032 0.582350 0.738777 0.154731
H25   H     H_    0.276374 0.116331 0.475016 0.165703
N1    N     N_2   0.554330 0.587254 0.984072 -0.204867
N2    N     N_2   0.442217 0.578962 0.012480 -0.203791
N3    N     N_R   0.142860 0.499130 0.500540 -0.111011
N4    N     N_R   0.857210 0.499170 0.500530 -0.117400
N5    N     N_3   0.689920 0.398251 0.253852 -0.436962
N6    N     N_3   0.746755 0.868689 0.606629 -0.441784
N7    N     N_3   0.859887 0.873011 0.482708 -0.450779
N8    N     N_3   0.889865 0.336585 0.684612 -0.436259
N9    N     N_3   0.170486 0.328063 0.682451 -0.443894
O1    O     O_R   0.614690 0.316790 0.499990 -0.609579
O2    O     O_R   0.385350 0.316760 0.500000 -0.628870
O3    O     O_R   0.627460 0.498860 0.616130 -0.596382
O4    O     O_R   0.398120 0.498820 0.616130 -0.630613
O5    O     O_R   0.614650 0.683240 0.500000 -0.612017
O6    O     O_R   0.385310 0.683210 0.500010 -0.624813
O7    O     O_R   0.601880 0.501180 0.383870 -0.599757
O8    O     O_R   0.372540 0.501140 0.383870 -0.630092
Zn1   Zn    Zn3+2 0.653130 0.500020 0.499990 0.961725
Zn2   Zn    Zn3+2 0.346870 0.499980 0.500010 0.934091

loop_
_geom_bond_atom_site_label_1
_geom_bond_atom_site_label_2
_ccdc_geom_bond_type
C17   H20   S    
O6    Zn2   S    
C4    O3    A    
C1    O1    A    
C16   O6    A    
O5    Zn1   S    
C6    C7    A    
O3    Zn1   S    
C25   N5    S    
C25   C27   A    
C11   N3    A    
C12   C24   A    
H15   N9    S    
C3    H25   S    
C19   C20   A    
C4    C19   S    
C15   N8    S    
C8    N6    S    
C2    C30   A    
C5    H4    S    
H7    N7    S    
H13   N8    S    
C7    C8    S    
H5    N6    S    
C7    C30   A    
C21   C22   A    
N1    N2    D    
C14   N4    A    
C11   C13   A    
H2    N5    S    
C29   H23   S    
C9    C30   S    
C11   H12   S    
C13   N4    A    
C12   C19   A    
C20   H24   S    
C28   C29   A    
C10   N3    A    
C15   H14   S    
C1    O2    A    
H3    N5    S    
C2    C3    A    
C4    O4    A    
C23   C25   A    
C17   N9    S    
C18   O8    A    
C5    C6    A    
C26   N2    S    
C22   C24   A    
C23   H19   S    
C9    H1    S    
C10   C17   S    
O4    Zn2   S    
H6    N6    S    
O2    Zn2   S    
C3    C5    A    
C9    H9    S    
C12   H21   S    
O1    Zn1   S    
C20   C21   A    
N3    Zn2   S    
C26   C29   A    
O8    Zn2   S    
C1    C2    S    
C10   C14   A    
C23   C26   A    
H16   N9    S    
C18   O7    A    
O7    Zn1   S    
N4    Zn1   S    
C14   C15   S    
C28   H18   S    
C13   H10   S    
C22   N1    S    
C18   C27   S    
H8    N7    S    
C15   C17   S    
C24   H17   S    
C6    C16   S    
H11   N8    S    
C21   H22   S    
C16   O5    A    
C8    N7    S    
C8    C9    S    
C27   C28   A    
