data_mof_unit_4282.cif
_audit_creation_date              2012-12-10T18:06:47-0500
_audit_creation_method            fapswitch 2.2
_symmetry_space_group_name_H-M    P1
_symmetry_Int_Tables_number       1
_space_group_crystal_system       triclinic
_cell_length_a                    12.612048
_cell_length_b                    13.056007
_cell_length_c                    15.51445
_cell_angle_alpha                 83.423148
_cell_angle_beta                  99.359322
_cell_angle_gamma                 96.904806
_cell_volume                      2490.57333538

loop_
_atom_site_label
_atom_site_type_symbol
_atom_type_description
_atom_site_fract_x
_atom_site_fract_y
_atom_site_fract_z
_atom_type_partial_charge
C1    C     C_R   0.444117 0.307981 0.511912 0.834685
C2    C     C_R   0.462979 0.548005 0.101029 0.096250
C3    C     C_R   0.384828 0.617103 0.066336 0.162439
C4    C     C_R   0.536930 0.524293 0.048750 0.071105
C5    C     C_R   0.520107 0.555614 0.957634 0.064075
C6    C     C_R   0.442095 0.625562 0.924580 -0.218060
C7    C     C_R   0.376721 0.656794 0.978613 -0.226677
C8    C     C_R   0.628340 0.472004 0.085104 -0.232868
C9    C     C_R   0.692984 0.439323 0.031809 -0.225140
C10   C     C_R   0.666949 0.455359 0.941018 0.144463
C11   C     C_R   0.580993 0.514275 0.903029 0.098426
C12   C     C_R   0.435575 0.514526 0.336296 0.841027
C13   C     C_R   0.723769 0.409428 0.888196 -0.243164
C14   C     C_R   0.693073 0.415214 0.797048 0.165487
C15   C     C_R   0.553292 0.523257 0.811840 -0.310477
C16   C     C_R   0.626545 0.947641 0.352033 -0.015928
C17   C     C_R   0.577011 0.801872 0.455549 -0.084356
C18   C     C_R   0.359291 0.154252 0.598467 0.129003
C19   C     C_R   0.343825 0.046099 0.614894 -0.110470
C20   C     C_R   0.390248 0.983177 0.568551 -0.229006
C21   C     C_R   0.451139 0.025939 0.501830 0.091123
C22   C     C_R   0.448892 0.131163 0.473362 0.044152
C23   C     C_R   0.553812 0.691900 0.483752 0.857852
C24   C     C_R   0.513864 0.967262 0.462535 0.034667
C25   C     C_R   0.559716 0.009018 0.386105 0.081821
C26   C     C_R   0.532845 0.108391 0.345928 0.174108
C27   C     C_R   0.482218 0.168954 0.392389 -0.244005
C28   C     C_R   0.534149 0.868388 0.500147 -0.277761
C29   C     C_R   0.624302 0.840215 0.379711 0.072203
C30   C     C_R   0.411923 0.196669 0.525754 -0.168716
C31   C     C_R   0.135324 0.651255 0.612436 -0.255110
C32   C     C_R   0.754384 0.382985 0.393180 -0.000269
C33   C     C_R   0.844337 0.375416 0.354643 -0.274630
C34   C     C_R   0.564904 0.484603 0.664060 0.846657
C35   C     C_R   0.942497 0.433543 0.382230 0.163152
C36   C     C_R   0.950855 0.487287 0.459257 0.003399
C37   C     C_R   0.853452 0.500123 0.489514 0.190181
C38   C     C_R   0.047912 0.532026 0.506342 0.002836
C39   C     C_R   0.042529 0.603469 0.567641 0.133988
C40   C     C_R   0.944430 0.623124 0.587813 -0.284484
C41   C     C_R   0.851528 0.568220 0.552049 -0.224531
C42   C     C_R   0.149751 0.502858 0.501301 -0.083503
C43   C     C_R   0.234917 0.625992 0.600177 0.156214
C44   C     C_R   0.403362 0.538507 0.242499 -0.055673
C45   C     C_R   0.606071 0.473821 0.758549 -0.085714
C46   C     C_R   0.317052 0.646539 0.120570 -0.209581
C47   C     C_R   0.328467 0.609505 0.209247 -0.204373
C48   C     C_R   0.463994 0.503252 0.187073 -0.260847
H1    H     H_    0.318595 0.711103 0.951261 0.162940
H2    H     H_    0.788936 0.364132 0.918871 0.134942
H3    H     H_    0.511138 0.838296 0.562989 0.150023
H4    H     H_    0.375142 0.900846 0.585028 0.181576
H5    H     H_    0.299393 0.008611 0.665819 0.176054
H6    H     H_    0.464537 0.245594 0.363131 0.142078
H7    H     H_    0.486204 0.564439 0.780792 0.165071
H8    H     H_    0.939915 0.676748 0.635274 0.158624
H9    H     H_    0.129571 0.706948 0.657893 0.189628
H10   H     H_    0.160088 0.438717 0.467413 0.145471
H11   H     H_    0.677257 0.343410 0.367723 0.148425
H12   H     H_    0.834554 0.330540 0.298770 0.159917
H13   H     H_    0.778762 0.581441 0.573704 0.219944
H14   H     H_    0.760898 0.397336 0.061849 0.144993
H15   H     H_    0.258475 0.701033 0.095250 0.139572
H16   H     H_    0.282331 0.639192 0.252169 0.162639
H17   H     H_    0.514054 0.442176 0.213579 0.139887
H18   H     H_    0.432127 0.660383 0.857797 0.192217
H19   H     H_    0.653140 0.456985 0.154900 0.147170
N1    N     N_R   0.239390 0.551900 0.544730 -0.149095
N2    N     N_R   0.759950 0.448600 0.455730 -0.129793
O1    O     O_R   0.374950 0.371210 0.521360 -0.620760
O2    O     O_R   0.542050 0.338030 0.492790 -0.598480
O3    O     O_R   0.368720 0.526070 0.390200 -0.602728
O4    O     O_R   0.535820 0.492890 0.361630 -0.628258
O5    O     O_R   0.457950 0.661970 0.507210 -0.636903
O6    O     O_R   0.625050 0.628790 0.478640 -0.620521
O7    O     O_R   0.464180 0.507110 0.638370 -0.642991
O8    O     O_R   0.631280 0.473930 0.609800 -0.624999
Zn1   Zn    Zn3+2 0.388420 0.522150 0.519080 0.911747
Zn2   Zn    Zn3+2 0.611580 0.477850 0.480920 0.915420
C49   C     C_3   0.669111 0.768510 0.326987 -0.416510
C50   C     C_3   0.788059 0.756502 0.360834 -0.768394
H20   H     H_    0.838868 0.829677 0.345333 0.250628
H21   H     H_    0.800925 0.736775 0.432895 0.276108
H22   H     H_    0.814322 0.693803 0.329070 0.237875
H23   H     H_    0.621293 0.691634 0.327186 0.234382
H24   H     H_    0.659980 0.797677 0.256428 0.176482
C51   C     C_3   0.545110 0.150022 0.251719 -0.412802
C52   C     C_3   0.477086 0.081276 0.185543 -0.873563
H25   H     H_    0.504542 0.002763 0.193057 0.245048
H26   H     H_    0.390786 0.074187 0.194446 0.266292
H27   H     H_    0.484188 0.116633 0.117870 0.254801
H28   H     H_    0.517119 0.228547 0.235879 0.191508
H29   H     H_    0.630226 0.162177 0.240884 0.233636
C53   C     C_2   0.709571 0.995699 0.298234 0.379072
H30   H     H_    0.715961 0.966952 0.236663 0.061554
O9    O     O_2   0.774914 0.066263 0.324767 -0.584286
C54   C     C_3   0.322987 0.224408 0.658079 -0.360801
C55   C     C_3   0.283203 0.170573 0.741568 -0.905990
H31   H     H_    0.207222 0.119576 0.725001 0.260066
H32   H     H_    0.346092 0.124976 0.781323 0.266008
H33   H     H_    0.265972 0.229996 0.781772 0.260429
H34   H     H_    0.392260 0.281508 0.679556 0.213283
H35   H     H_    0.256729 0.267193 0.620090 0.229886
C56   C     C_2   0.332303 0.679697 0.650299 0.313971
H36   H     H_    0.412638 0.668042 0.643330 0.145635
O10   O     O_2   0.323647 0.740432 0.702495 -0.645040
C57   C     C_3   0.022673 0.451863 0.316807 -0.393470
C58   C     C_3   0.045377 0.566895 0.286508 -0.852653
H37   H     H_    0.968340 0.602265 0.265284 0.256800
H38   H     H_    0.094892 0.609387 0.339519 0.263850
H39   H     H_    0.090225 0.575473 0.229767 0.246287
H40   H     H_    0.098130 0.415730 0.339892 0.196151
H41   H     H_    0.988422 0.413311 0.256559 0.203271
C59   C     C_3   0.750994 0.352693 0.745939 -0.397038
C60   C     C_3   0.678725 0.257348 0.714671 -0.793145
H42   H     H_    0.656364 0.204965 0.771991 0.247023
H43   H     H_    0.603737 0.279182 0.672393 0.253630
H44   H     H_    0.722892 0.214609 0.676381 0.249779
H45   H     H_    0.782659 0.401285 0.690549 0.230762
H46   H     H_    0.823908 0.324444 0.787852 0.191695

loop_
_geom_bond_atom_site_label_1
_geom_bond_atom_site_label_2
_ccdc_geom_bond_type
C51   C52   S    
C37   N2    A    
O1    Zn1   S    
C17   C29   A    
C57   H40   S    
C6    C7    A    
C35   C36   A    
C41   H13   S    
C4    C8    A    
C42   H10   S    
O2    Zn2   S    
C59   C60   S    
C27   H6    S    
C26   C27   A    
C17   C23   S    
C31   C43   A    
C21   C22   A    
C36   C37   A    
O7    Zn1   S    
C38   C42   A    
C3    C7    A    
C34   O8    A    
C5    C6    A    
C28   H3    S    
C60   H42   S    
C58   H37   S    
C18   C19   A    
C43   C56   S    
C57   H41   S    
C49   H24   S    
C11   C15   A    
C19   C20   A    
C58   H38   S    
C8    C9    A    
C60   H43   S    
C12   O4    A    
C54   H34   S    
O3    Zn1   S    
C57   C58   S    
C18   C30   A    
C18   C54   S    
C48   H17   S    
C9    C10   A    
C59   H45   S    
C44   C47   A    
C19   H5    S    
C12   O3    A    
C13   C14   A    
C42   N1    A    
C56   O10   D    
C56   H36   S    
C50   H21   S    
C54   C55   S    
C14   C45   A    
O8    Zn2   S    
N1    Zn1   S    
C9    H14   S    
C24   C25   A    
C7    H1    S    
C47   H16   S    
C26   C51   S    
C40   H8    S    
C16   C29   A    
C14   C59   S    
C50   H20   S    
C15   H7    S    
C2    C4    A    
C49   H23   S    
C52   H27   S    
C6    H18   S    
C60   H44   S    
O4    Zn2   S    
C34   C45   S    
C1    O2    A    
C20   C21   A    
C53   O9    D    
C54   H35   S    
C40   C41   A    
C52   H26   S    
C33   H12   S    
C55   H32   S    
C22   C27   A    
N2    Zn2   S    
C15   C45   A    
C23   O5    A    
C39   C40   A    
C50   H22   S    
C16   C25   A    
C46   C47   A    
C22   C30   A    
C17   C28   A    
C24   C28   A    
C23   O6    A    
C49   C50   S    
C10   C13   A    
C5    C11   A    
C32   N2    A    
C55   H33   S    
C43   N1    A    
C3    C46   A    
C16   C53   S    
C1    O1    A    
C58   H39   S    
C46   H15   S    
C2    C48   A    
C32   C33   A    
C31   H9    S    
C36   C38   A    
C2    C3    A    
C25   C26   A    
C12   C44   S    
C38   C39   A    
C29   C49   S    
C51   H29   S    
C1    C30   S    
C33   C35   A    
C31   C39   A    
C37   C41   A    
C53   H30   S    
C35   C57   S    
C10   C11   A    
C13   H2    S    
C4    C5    A    
C52   H25   S    
C8    H19   S    
C20   H4    S    
C55   H31   S    
O5    Zn1   S    
C21   C24   A    
C32   H11   S    
C51   H28   S    
O6    Zn2   S    
C59   H46   S    
C44   C48   A    
C34   O7    A    
