data_mof_unit_2444.cif
_audit_creation_date              2012-12-10T20:26:26-0500
_audit_creation_method            fapswitch 2.2
_symmetry_space_group_name_H-M    P1
_symmetry_Int_Tables_number       1
_space_group_crystal_system       triclinic
_cell_length_a                    10.709914
_cell_length_b                    10.698193
_cell_length_c                    9.878334
_cell_angle_alpha                 90.25741
_cell_angle_beta                  90.071848
_cell_angle_gamma                 90.89355
_cell_volume                      1131.67712806

loop_
_atom_site_label
_atom_site_type_symbol
_atom_type_description
_atom_site_fract_x
_atom_site_fract_y
_atom_site_fract_z
_atom_type_partial_charge
C1    C     C_R   0.506736 0.259875 0.499532 0.922986
C2    C     C_R   0.503731 0.126585 0.498718 -0.167761
C3    C     C_R   0.490353 0.059911 0.376065 0.153602
C4    C     C_R   0.445208 0.937103 0.380554 0.157899
C5    C     C_R   0.469169 0.870749 0.501148 -0.199577
C6    C     C_R   0.486472 0.937133 0.621693 0.051492
C7    C     C_3   0.578227 0.925135 0.735351 0.022576
C8    C     C_3   0.582519 0.066742 0.738260 -0.446693
C9    C     C_R   0.397273 0.457290 0.070505 0.097513
C10   C     C_R   0.593897 0.557133 0.071449 0.249912
C11   C     C_R   0.594242 0.555047 0.927506 -0.180953
C12   C     C_R   0.262573 0.500622 0.499969 0.931662
C13   C     C_R   0.398188 0.457365 0.927846 0.117224
C14   C     C_3   0.342510 0.330023 0.916686 -0.041768
C15   C     C_3   0.340454 0.327987 0.071598 -0.087823
C16   C     C_R   0.489697 0.739249 0.500096 0.911466
C17   C     C_R   0.737421 0.506242 0.500456 0.965461
C18   C     C_2   0.934518 0.538496 0.390325 -0.117281
C19   C     C_2   0.868443 0.529550 0.503920 -0.313031
C20   C     C_2   0.068720 0.549073 0.396296 -0.130121
C21   C     C_2   0.130418 0.499688 0.500020 -0.287454
C22   C     C_R   0.492179 0.064759 0.621994 0.019003
H1    H     H_    0.891241 0.533293 0.291488 0.182636
H2    H     H_    0.674462 0.109160 0.710827 0.228233
H3    H     H_    0.671261 0.597302 0.872625 0.177616
H4    H     H_    0.407812 0.262960 0.870122 0.157653
H5    H     H_    0.405844 0.259647 0.113194 0.169339
H6    H     H_    0.910138 0.543689 0.603159 0.160501
H7    H     H_    0.117419 0.589535 0.310071 0.176348
H8    H     H_    0.084999 0.454137 0.585023 0.150551
H9    H     H_    0.535039 0.883873 0.827541 0.153207
H10   H     H_    0.541527 0.105350 0.832303 0.186500
N1    N     N_R   0.499170 0.499140 0.142800 -0.120220
N2    N     N_R   0.499170 0.499180 0.857150 -0.125335
O1    O     O_R   0.500020 0.316790 0.614690 -0.619782
O2    O     O_R   0.500000 0.316760 0.385350 -0.589066
O3    O     O_R   0.319080 0.500020 0.614640 -0.608438
O4    O     O_R   0.319070 0.499980 0.385300 -0.603086
O5    O     O_R   0.500000 0.683240 0.614650 -0.603139
O6    O     O_R   0.499980 0.683210 0.385310 -0.623950
O7    O     O_R   0.680930 0.500020 0.614700 -0.621729
O8    O     O_R   0.680920 0.499980 0.385360 -0.585420
Zn1   Zn    Zn3+2 0.500010 0.500020 0.653130 0.968469
Zn2   Zn    Zn3+2 0.499990 0.499980 0.346870 0.992564
N3    N     N_2   0.694371 0.616637 0.140684 -0.274862
H11   H     H_    0.779452 0.586148 0.106047 0.203360
C23   C     C_3   0.690158 0.751672 0.139574 -0.687134
H12   H     H_    0.762840 0.790354 0.208933 0.252636
H13   H     H_    0.597855 0.784368 0.174098 0.281163
H14   H     H_    0.708037 0.787668 0.035877 0.230251
N4    N     N_2   0.221741 0.332643 0.849852 -0.262565
H15   H     H_    0.157983 0.395891 0.885963 0.256475
C24   C     C_3   0.170353 0.212365 0.809608 -0.698572
H16   H     H_    0.082370 0.225851 0.752297 0.234900
H17   H     H_    0.150138 0.154242 0.900040 0.261236
H18   H     H_    0.237058 0.162961 0.742823 0.236155
I1    I     I_    0.161196 0.314895 0.168378 -0.411323
I2    I     I_    0.602717 0.108320 0.204718 -0.410082
N5    N     N_2   0.384931 0.880540 0.265139 -0.299494
H19   H     H_    0.344244 0.794472 0.283421 0.242617
C25   C     C_3   0.297121 0.957681 0.192825 -0.739996
H20   H     H_    0.253576 0.902581 0.109161 0.233550
H21   H     H_    0.344139 0.039858 0.146958 0.267799
H22   H     H_    0.222259 0.989288 0.262262 0.255387
I3    I     I_    0.756558 0.850111 0.679733 -0.403289

loop_
_geom_bond_atom_site_label_1
_geom_bond_atom_site_label_2
_ccdc_geom_bond_type
C2    C22   A    
C25   H22   S    
C8    C22   S    
C10   N1    A    
O4    Zn2   S    
C6    C7    S    
C7    I3    S    
O1    Zn1   S    
C21   H8    S    
N4    C24   S    
C15   H5    S    
C14   N4    S    
C14   C15   S    
C1    O2    A    
C10   N3    S    
C24   H17   S    
C2    C3    A    
C9    C15   S    
N5    H19   S    
C23   H13   S    
C13   C14   S    
C14   H4    S    
C9    N1    A    
C19   H6    S    
O7    Zn1   S    
C5    C6    A    
O8    Zn2   S    
C16   O6    A    
C15   I1    S    
C12   C21   S    
C4    N5    S    
C17   C19   S    
C1    C2    S    
C23   H14   S    
C18   C20   S    
C20   H7    S    
N3    C23   S    
N2    Zn1   S    
C12   O4    A    
C25   H20   S    
C17   O7    A    
O3    Zn1   S    
N5    C25   S    
O2    Zn2   S    
C10   C11   A    
C11   H3    S    
C16   O5    A    
N4    H15   S    
C6    C22   A    
C3    I2    S    
O6    Zn2   S    
C7    H9    S    
C20   C21   D    
C1    O1    A    
C18   C19   D    
C24   H18   S    
C12   O3    A    
C25   H21   S    
C7    C8    S    
C9    C13   A    
C17   O8    A    
C5    C16   S    
C13   N2    A    
C8    H2    S    
N3    H11   S    
N1    Zn2   S    
O5    Zn1   S    
C11   N2    A    
C3    C4    A    
C18   H1    S    
C24   H16   S    
C4    C5    A    
C23   H12   S    
C8    H10   S    
