data_mof_unit_3817.cif
_audit_creation_date              2012-12-11T15:25:42-0500
_audit_creation_method            fapswitch 2.2
_symmetry_space_group_name_H-M    P1
_symmetry_Int_Tables_number       1
_space_group_crystal_system       triclinic
_cell_length_a                    6.90969
_cell_length_b                    23.215887
_cell_length_c                    25.82315
_cell_angle_alpha                 104.321143
_cell_angle_beta                  89.52178
_cell_angle_gamma                 90.441668
_cell_volume                      4013.47454261

loop_
_atom_site_label
_atom_site_type_symbol
_atom_type_description
_atom_site_fract_x
_atom_site_fract_y
_atom_site_fract_z
_atom_type_partial_charge
O1    O     O_R   0.494330 0.439230 0.438150 -0.543231
O2    O     O_R   0.820190 0.446230 0.546380 -0.534368
O3    O     O_R   0.994320 0.560770 0.561850 -0.548484
C1    C     C_R   0.650405 0.432835 0.561979 0.681484
O4    O     O_R   0.823790 0.432220 0.437600 -0.537375
O5    O     O_R   0.997940 0.546660 0.452300 -0.538425
C2    C     C_R   0.656460 0.416280 0.416613 0.714327
O6    O     O_R   0.490700 0.453340 0.547700 -0.545272
O7    O     O_3   0.662060 0.537560 0.504950 -0.367712
V1    V     V_3+5 0.935420 0.493030 0.499080 1.411622
O8    O     O_R   0.327880 0.553770 0.453620 -0.539065
C3    C     C_R   0.160183 0.567131 0.437751 0.707454
O9    O     O_R   0.324280 0.567780 0.562400 -0.537594
C4    C     C_R   0.155211 0.582555 0.583631 0.700558
V2    V     V_3+5 0.435890 0.506970 0.500920 1.397586
O10   O     O_3   0.159380 0.462440 0.495050 -0.369819
C5    C     C_R   0.230935 0.858142 0.834641 -0.218789
C6    C     C_R   0.081936 0.860952 0.871911 -0.097776
C7    C     C_R   0.940132 0.814785 0.863455 -0.055550
C8    C     C_R   0.945465 0.766762 0.815728 -0.028580
C9    C     C_R   0.097149 0.766705 0.777877 0.087450
C10   C     C_R   0.239207 0.812258 0.788119 0.110828
C11   C     C_R   0.804214 0.719759 0.803438 -0.081833
C12   C     C_R   0.812924 0.675913 0.754223 -0.045631
C13   C     C_R   0.975747 0.673181 0.719754 0.010877
C14   C     C_R   0.111222 0.720649 0.730091 0.031480
C15   C     C_R   0.263159 0.721738 0.692708 0.094676
C16   C     C_R   0.404693 0.767491 0.704286 0.140398
C17   C     C_R   0.390830 0.811899 0.751823 -0.158653
C18   C     C_R   0.008403 0.623690 0.675195 -0.063392
C19   C     C_R   0.142248 0.628840 0.634887 -0.138753
C20   C     C_R   0.269522 0.677290 0.644399 -0.219083
H1    H     H_    0.339747 0.893106 0.841327 0.114225
H2    H     H_    0.376258 0.679156 0.613949 0.139378
H3    H     H_    0.499770 0.846789 0.760702 0.117806
C21   C     C_R   0.231076 0.905578 0.143092 0.091938
C22   C     C_R   0.233987 0.868130 0.179406 -0.000718
C23   C     C_R   0.080395 0.827090 0.179654 -0.043464
C24   C     C_R   0.931408 0.822257 0.142343 -0.123132
H4    H     H_    0.813311 0.791167 0.141818 0.179877
C25   C     C_R   0.930110 0.857737 0.105849 -0.167231
H5    H     H_    0.812011 0.852284 0.077685 0.166586
C26   C     C_R   0.078324 0.899294 0.105025 -0.069648
N1    N     N_R   0.017402 0.731893 0.204948 -0.256063
N2    N     N_R   0.025571 0.697977 0.239826 -0.268060
C27   C     C_R   0.088106 0.720924 0.290627 0.494492
N3    N     N_R   0.133631 0.779690 0.305640 -0.239715
N4    N     N_R   0.125310 0.813499 0.270903 -0.252271
C28   C     C_R   0.071389 0.790127 0.219482 0.581652
C29   C     C_R   0.281176 0.687458 0.361429 -0.005650
C30   C     C_R   0.302351 0.649736 0.397211 0.119355
C31   C     C_R   0.152694 0.607783 0.400563 -0.077212
C32   C     C_R   0.990375 0.604053 0.367361 -0.198599
H6    H     H_    0.875916 0.572219 0.368422 0.123987
C33   C     C_R   0.973153 0.640022 0.331617 -0.123839
H7    H     H_    0.845369 0.635524 0.306865 0.135844
C34   C     C_R   0.115482 0.682201 0.328360 -0.064378
C35   C     C_R   0.484606 0.355439 0.603509 -0.024521
C36   C     C_R   0.485964 0.322606 0.642737 -0.137744
H8    H     H_    0.366404 0.292715 0.644672 0.178411
C37   C     C_R   0.642518 0.325191 0.677777 -0.035138
C38   C     C_R   0.801246 0.363041 0.673872 0.165708
C39   C     C_R   0.798240 0.396700 0.635521 -0.039116
H9    H     H_    0.919648 0.425823 0.633313 0.133344
C40   C     C_R   0.642144 0.394070 0.600368 -0.172659
N5    N     N_R   0.797977 0.265350 0.733627 -0.267398
N6    N     N_R   0.789477 0.231097 0.768118 -0.276032
C41   C     C_R   0.616785 0.217223 0.787659 0.519491
N7    N     N_R   0.452986 0.239041 0.770930 -0.271742
N8    N     N_R   0.461668 0.273321 0.736432 -0.277926
C42   C     C_R   0.634596 0.287616 0.717223 0.533521
C43   C     C_R   0.428322 0.164311 0.846174 -0.125103
H10   H     H_    0.294548 0.180868 0.833960 0.138487
C44   C     C_R   0.419187 0.128044 0.882165 -0.156282
H11   H     H_    0.278534 0.117791 0.896496 0.119379
C45   C     C_R   0.588843 0.105277 0.899278 -0.050755
C46   C     C_R   0.767989 0.119939 0.879418 -0.158345
H12   H     H_    0.901646 0.103230 0.891563 0.118002
C47   C     C_R   0.777097 0.156221 0.843385 -0.125697
H13   H     H_    0.917607 0.166398 0.828929 0.134355
C48   C     C_R   0.607334 0.178860 0.826198 0.020589
C49   C     C_R   0.437111 0.140547 0.170581 -0.203042
C50   C     C_R   0.582037 0.133840 0.131213 -0.063837
C51   C     C_R   0.733950 0.174996 0.138072 -0.191281
C52   C     C_R   0.740387 0.223012 0.183264 0.100686
C53   C     C_R   0.599598 0.228594 0.224192 0.110956
C54   C     C_R   0.446558 0.186539 0.218289 0.014753
C55   C     C_R   0.880542 0.267151 0.186298 -0.159510
C56   C     C_R   0.887068 0.316752 0.229994 -0.031751
C57   C     C_R   0.768116 0.318110 0.275768 0.025654
C58   C     C_R   0.612990 0.276199 0.270609 0.056183
C59   C     C_R   0.473160 0.281464 0.311865 0.010683
C60   C     C_R   0.321673 0.238526 0.306835 -0.056242
C61   C     C_R   0.305916 0.191858 0.259518 -0.052218
C62   C     C_R   0.799326 0.359031 0.326408 0.083579
C63   C     C_R   0.649940 0.367720 0.365985 -0.064120
C64   C     C_R   0.489950 0.329116 0.357767 -0.240954
H14   H     H_    0.319216 0.108814 0.163547 0.096978
H15   H     H_    0.843791 0.170807 0.107121 0.119132
H16   H     H_    0.977256 0.264783 0.152536 0.164526
H17   H     H_    0.382844 0.335341 0.389327 0.111764
O11   O     O_R   0.738220 0.046730 0.952360 -0.542770
O12   O     O_R   0.404950 0.067790 0.062410 -0.543770
O13   O     O_R   0.230980 0.953320 0.047680 -0.534563
C65   C     C_R   0.573337 0.084267 0.082542 0.705097
O14   O     O_R   0.408720 0.053790 0.953630 -0.544468
O15   O     O_R   0.234780 0.939210 0.938130 -0.540440
C66   C     C_R   0.578233 0.066130 0.937127 0.682843
O16   O     O_R   0.734430 0.060840 0.061910 -0.541381
O17   O     O_3   0.566930 0.962480 0.995080 -0.361540
V3    V     V_3+5 0.293490 0.006960 0.000910 1.416816
O18   O     O_R   0.904820 0.932150 0.937550 -0.538528
C67   C     C_R   0.073856 0.913818 0.918758 0.743838
O19   O     O_R   0.901050 0.946150 0.046320 -0.535732
C68   C     C_R   0.069313 0.935661 0.064440 0.740276
V4    V     V_3+5 0.793050 0.992940 0.999010 1.440916
O20   O     O_3   0.069480 0.037520 0.004920 -0.374477
C69   C     C_2   0.402555 0.869378 0.215026 0.408382
H18   H     H_    0.450631 0.910726 0.241567 0.067500
O21   O     O_2   0.489020 0.823681 0.214953 -0.518763
C70   C     C_2   0.434814 0.730641 0.356012 0.421225
H19   H     H_    0.497004 0.729174 0.316968 0.072251
O22   O     O_2   0.483871 0.770249 0.394342 -0.493161
C71   C     C_3   0.484126 0.652966 0.430579 -0.689028
H20   H     H_    0.589322 0.687569 0.426429 0.231573
H21   H     H_    0.444783 0.662011 0.473614 0.203499
H22   H     H_    0.564139 0.610504 0.418011 0.196559
C72   C     C_2   0.323707 0.345280 0.564370 0.398877
H23   H     H_    0.339318 0.356848 0.526404 0.061617
O23   O     O_2   0.171811 0.322345 0.573581 -0.527009
C73   C     C_3   0.972712 0.370031 0.710747 -0.633342
H24   H     H_    0.072478 0.405918 0.705418 0.213350
H25   H     H_    0.922763 0.381617 0.753016 0.220741
H26   H     H_    0.057018 0.328232 0.702267 0.232250
C74   C     C_2   0.790058 0.818220 0.905386 0.364121
H27   H     H_    0.639921 0.825599 0.896939 0.067946
O24   O     O_2   0.834522 0.813595 0.949844 -0.523731
C75   C     C_2   0.995554 0.369820 0.222782 0.387603
H28   H     H_    0.956947 0.413844 0.246143 0.067107
O25   O     O_2   0.127433 0.365097 0.190229 -0.518552
C76   C     C_3   0.996955 0.387645 0.340645 -0.767890
H29   H     H_    0.049391 0.379009 0.378349 0.219217
H30   H     H_    0.112605 0.367656 0.312162 0.197062
H31   H     H_    0.990218 0.436293 0.344455 0.196701
C77   C     C_2   0.648465 0.713901 0.841624 0.454508
H32   H     H_    0.684810 0.702688 0.878730 0.093418
O26   O     O_2   0.479647 0.722215 0.832134 -0.514928
C78   C     C_2   0.187474 0.239722 0.352543 0.506815
H33   H     H_    0.117201 0.280432 0.373301 0.018207
O27   O     O_2   0.157044 0.194824 0.368001 -0.489310
C79   C     C_2   0.141759 0.148663 0.253157 0.464296
H34   H     H_    0.166214 0.101538 0.236942 0.031685
O28   O     O_2   0.977021 0.165548 0.265563 -0.516623
C80   C     C_2   0.642037 0.636547 0.735681 0.547720
H35   H     H_    0.597113 0.628302 0.694309 -0.016009
O29   O     O_2   0.556965 0.610877 0.765142 -0.475606
C81   C     C_2   0.934038 0.563378 0.675516 0.354210
H36   H     H_    0.875548 0.533909 0.639916 0.042359
O30   O     O_2   0.942171 0.545592 0.716173 -0.493942
C82   C     C_3   0.573844 0.769432 0.667301 -0.781973
H37   H     H_    0.658316 0.727744 0.660909 0.195711
H38   H     H_    0.520655 0.774862 0.628349 0.220441
H39   H     H_    0.673885 0.807025 0.683926 0.214061
C83   C     C_3   0.389276 0.951829 0.144560 -0.751695
H40   H     H_    0.323432 0.995524 0.145434 0.189776
H41   H     H_    0.483518 0.959633 0.179952 0.182060
H42   H     H_    0.485051 0.937739 0.109017 0.227316

loop_
_geom_bond_atom_site_label_1
_geom_bond_atom_site_label_2
_ccdc_geom_bond_type
N1    C28   A    
C18   C81   S    
C9    C14   A    
C39   C40   A    
C35   C72   S    
C81   H36   S    
C10   C17   A    
C51   H15   S    
C49   H14   S    
C25   H5    S    
C62   C63   A    
C4    C19   S    
C1    O6    A    
C73   H26   S    
C72   H23   S    
O19   C68   A    
C74   H27   S    
C24   C25   A    
C23   C28   S    
C19   C20   A    
C46   H12   S    
C31   C32   A    
C2    C63   S    
C11   C77   S    
C14   C15   A    
C38   C39   A    
C44   C45   A    
C41   C48   S    
C71   H21   S    
C83   H40   S    
C78   O27   D    
C53   C58   A    
C76   H30   S    
O5    C3    A    
C1    C40   S    
C7    C74   S    
V2    O10   S    
C54   C61   A    
C16   C82   S    
V4    O20   S    
C60   C78   S    
O12   V3    S    
C6    C7    A    
O17   V3    S    
O15   C67   A    
O16   V4    S    
C26   C68   S    
C69   H18   S    
O8    V2    S    
C22   C69   S    
C7    C8    A    
C41   N7    A    
C5    C6    A    
C79   H34   S    
C12   C13   A    
O11   C66   A    
N8    C42   A    
O1    V2    S    
O7    V1    S    
C80   O29   D    
C43   C48   A    
C37   C42   S    
C46   C47   A    
N5    N6    A    
C36   H8    S    
C45   C66   S    
O9    C4    A    
C30   C71   S    
C25   C26   A    
N7    N8    A    
C29   C70   S    
C5    H1    S    
C6    C67   S    
O18   C67   A    
C3    C31   S    
C12   C80   S    
C59   C64   A    
C77   H32   S    
O14   V3    S    
C32   C33   A    
C23   C24   A    
C36   C37   A    
C70   H19   S    
C44   H11   S    
C77   O26   D    
C30   C31   A    
C56   C75   S    
N3    N4    A    
C57   C62   A    
C51   C52   A    
C43   C44   A    
C76   H31   S    
C58   C59   A    
O4    C2    A    
C53   C54   A    
C35   C36   A    
C32   H6    S    
N6    C41   A    
C82   H38   S    
C81   O30   D    
O2    C1    A    
C82   H39   S    
N5    C42   A    
C22   C23   A    
O13   C68   A    
C35   C40   A    
C50   C51   A    
C8    C11   A    
C11   C12   A    
C63   C64   A    
C8    C9    A    
C33   H7    S    
C29   C30   A    
C80   H35   S    
N2    C27   A    
O12   C65   A    
C60   C61   A    
C45   C46   A    
C52   C53   A    
C55   H16   S    
O3    C4    A    
C75   O25   D    
C71   H22   S    
N4    C28   A    
C62   C76   S    
O6    V2    S    
C33   C34   A    
C27   C34   S    
C47   H13   S    
C61   C79   S    
C73   H24   S    
O2    V1    S    
O17   V4    S    
O18   V4    S    
N1    N2    A    
C47   C48   A    
C52   C55   A    
C13   C18   A    
C74   O24   D    
C65   O16   A    
C27   N3    A    
C16   C17   A    
C15   C20   A    
O1    C2    A    
C29   C34   A    
O15   V3    S    
C38   C73   S    
C83   H42   S    
C43   H10   S    
C73   H25   S    
C72   O23   D    
O5    V1    S    
O13   V3    S    
O19   V4    S    
O8    C3    A    
C17   H3    S    
C5    C10   A    
V3    O20   S    
C82   H37   S    
O9    V2    S    
C13   C14   A    
O4    V1    S    
O3    V1    S    
V1    O10   S    
C76   H29   S    
C57   C58   A    
C18   C19   A    
O14   C66   A    
C83   H41   S    
C59   C60   A    
C78   H33   S    
C79   O28   D    
O7    V2    S    
C37   C38   A    
C69   O21   D    
C70   O22   D    
O11   V4    S    
C75   H28   S    
C39   H9    S    
C24   H4    S    
C50   C65   S    
C55   C56   A    
C21   C22   A    
C49   C50   A    
C15   C16   A    
C21   C83   S    
C21   C26   A    
C56   C57   A    
C9    C10   A    
C64   H17   S    
C49   C54   A    
C20   H2    S    
C71   H20   S    
