data_mof_unit_360.cif
_audit_creation_date              2013-03-05T15:58:55-0500
_audit_creation_method            fapswitch 2.2
_symmetry_space_group_name_H-M    P1
_symmetry_Int_Tables_number       1
_space_group_crystal_system       triclinic
_cell_length_a                    10.628731
_cell_length_b                    12.59846
_cell_length_c                    13.128771
_cell_angle_alpha                 82.329921
_cell_angle_beta                  90.380222
_cell_angle_gamma                 102.437323
_cell_volume                      1700.95589555

loop_
_atom_site_label
_atom_site_type_symbol
_atom_site_description
_atom_site_fract_x
_atom_site_fract_y
_atom_site_fract_z
_atom_type_partial_charge
O1    O     O_R   0.468120 0.366740 0.627160 -0.618760
O2    O     O_R   0.510770 0.544830 0.662520 -0.601878
C1    C     C_R   0.480916 0.438777 0.691160 0.902518
O3    O     O_R   0.663880 0.410950 0.482330 -0.623464
O4    O     O_R   0.706530 0.589040 0.517700 -0.622827
C2    C     C_R   0.741852 0.500136 0.500373 0.880271
Zn1   Zn    Zn3+2 0.471520 0.381090 0.476390 0.938311
Zn2   Zn    Zn3+2 0.528480 0.618910 0.523610 0.934762
O5    O     O_R   0.489230 0.455170 0.337480 -0.616044
O6    O     O_R   0.531880 0.633260 0.372840 -0.634255
O7    O     O_R   0.293470 0.410960 0.482300 -0.626025
O8    O     O_R   0.336120 0.589050 0.517670 -0.650558
C3    C     C_R   0.512854 0.561072 0.308811 0.853625
C4    C     C_R   0.258049 0.499196 0.500357 0.825400
C5    C     C_3   0.899644 0.385537 0.479455 -0.357097
H1    H     H_    0.862606 0.369076 0.402196 0.173871
H2    H     H_    0.845988 0.317345 0.535765 0.218338
C6    C     C_3   0.042086 0.384361 0.481451 -0.382191
H3    H     H_    0.058863 0.319281 0.543020 0.197067
H4    H     H_    0.071708 0.363598 0.406573 0.175580
H5    H     H_    0.909591 0.569639 0.338671 0.182156
H6    H     H_    0.125130 0.571775 0.339126 0.168949
C7    C     C_3   0.949295 0.587178 0.414855 -0.476718
C8    C     C_3   0.936546 0.527366 0.606691 0.189338
C9    C     C_3   0.878468 0.499254 0.501472 0.050460
H7    H     H_    0.931576 0.613836 0.612976 0.105614
C10   C     C_3   0.121235 0.498139 0.501123 0.139056
C11   C     C_3   0.093882 0.587387 0.415529 -0.414448
C12   C     C_3   0.080151 0.521941 0.607565 -0.462201
H8    H     H_    0.099170 0.457597 0.668838 0.194295
H9    H     H_    0.138510 0.601652 0.625408 0.158874
H10   H     H_    0.935512 0.670124 0.425767 0.186605
H11   H     H_    0.148949 0.669965 0.428698 0.185566
C13   C     C_R   0.403109 0.698546 0.065294 -0.196985
H12   H     H_    0.430383 0.742214 0.217410 0.147756
H13   H     H_    0.313621 0.694646 0.875334 0.150448
H14   H     H_    0.359116 0.767123 0.039348 0.137145
C14   C     C_R   0.501283 0.596660 0.200289 -0.050193
C15   C     C_R   0.506906 0.301939 0.837519 -0.117134
C16   C     C_R   0.521750 0.274397 0.942082 -0.123790
C17   C     C_R   0.506888 0.347185 0.009663 -0.185890
C18   C     C_R   0.470617 0.447355 0.973489 0.098239
C19   C     C_R   0.436474 0.466437 0.869951 0.081890
C20   C     C_R   0.467098 0.529286 0.036491 0.082373
C21   C     C_R   0.410683 0.619520 0.000980 0.170746
C22   C     C_R   0.360667 0.628316 0.902697 -0.234339
C23   C     C_R   0.373387 0.552774 0.837764 -0.195991
C24   C     C_R   0.520138 0.524654 0.133628 -0.250634
C25   C     C_R   0.446199 0.685985 0.165758 -0.208729
C26   C     C_R   0.468404 0.399491 0.800763 -0.105856
H15   H     H_    0.572226 0.462349 0.161513 0.147688
H16   H     H_    0.529825 0.248871 0.785153 0.157311
H17   H     H_    0.521262 0.321716 0.089845 0.132234
H18   H     H_    0.550271 0.198544 0.970460 0.143390
H19   H     H_    0.332043 0.561986 0.762412 0.160256
C27   C     C_R   0.322040 0.088158 0.346471 -0.308104
H20   H     H_    0.300781 0.254970 0.330218 0.133824
H21   H     H_    0.292397 0.881255 0.315510 0.149913
H22   H     H_    0.254035 0.066232 0.286891 0.145211
N1    N     N_R   0.433240 0.222190 0.444680 -0.102672
C28   C     C_R   0.651883 0.799426 0.630148 0.017658
C29   C     C_R   0.683088 0.903970 0.658693 -0.243201
C30   C     C_R   0.625582 0.985594 0.609467 -0.198918
C31   C     C_R   0.536229 0.962675 0.530794 0.012653
C32   C     C_R   0.508154 0.854758 0.504408 0.240565
C33   C     C_R   0.473754 0.041901 0.477544 -0.013950
C34   C     C_R   0.384829 0.011553 0.399589 0.202431
C35   C     C_R   0.359646 0.905198 0.375072 -0.304057
C36   C     C_R   0.420843 0.828252 0.426605 -0.224067
C37   C     C_R   0.495689 0.150784 0.498038 -0.059148
C38   C     C_R   0.347958 0.194270 0.370588 0.006196
N2    N     N_R   0.566070 0.776970 0.554790 -0.135121
H23   H     H_    0.561608 0.181734 0.555154 0.131895
H24   H     H_    0.695936 0.735482 0.668254 0.161982
H25   H     H_    0.652883 0.065184 0.634647 0.148828
H26   H     H_    0.751434 0.921682 0.718900 0.160558
H27   H     H_    0.398061 0.748415 0.403708 0.208748
N3    N     N_R   0.864882 0.456928 0.695126 0.198666
O9    O     O_R   0.802741 0.499608 0.758332 -0.413212
O10   O     O_R   0.867541 0.353398 0.714628 -0.430801

loop_
_geom_bond_atom_site_label_1
_geom_bond_atom_site_label_2
_geom_bond_distance
_ccdc_geom_bond_type
C5    C6    1.517260 S    
C10   C12   1.552364 S    
C13   H14   1.083724 S    
C17   C18   1.419122 A    
C36   H27   1.065604 S    
C14   C25   1.399575 A    
C21   C22   1.392100 A    
Zn1   O7    2.011338 S    
C12   H8    1.113319 S    
C8    H7    1.115888 S    
O4    C2    1.302872 A    
O7    C4    1.298267 A    
N3    O10   1.301632 A    
C5    C9    1.561095 S    
C2    C9    1.454455 S    
C5    H1    1.114679 S    
C5    H2    1.111242 S    
C6    H3    1.114275 S    
O5    C3    1.306797 A    
C8    C12   1.542404 S    
C24   H15   1.079113 S    
C35   C36   1.382473 A    
H12   C25   1.082126 S    
H13   C22   1.083917 S    
C4    C10   1.451436 S    
C14   C24   1.386226 A    
C15   H16   1.083542 S    
H6    C11   1.113720 S    
C29   H26   1.082561 S    
C18   C20   1.412787 A    
O3    Zn1   2.000542 S    
C1    C26   1.455103 S    
Zn2   N2    2.040895 S    
C34   C35   1.389291 A    
C8    C9    1.562008 S    
O3    C2    1.293356 A    
C15   C16   1.386852 A    
N3    O9    1.301272 A    
N1    C38   1.354210 A    
O1    C1    1.302700 A    
C31   C33   1.420913 A    
C29   C30   1.391695 A    
N1    C37   1.350336 A    
Zn2   O8    2.000543 S    
C27   C38   1.384370 A    
C37   H23   1.076402 S    
C13   C21   1.403746 A    
C7    C11   1.536187 S    
H20   C38   1.081946 S    
C17   H17   1.078546 S    
C3    C14   1.448101 S    
C28   N2    1.357337 A    
C8    N3    1.470112 S    
C16   C17   1.390880 A    
O8    C4    1.297404 A    
C11   H11   1.113187 S    
C16   H18   1.082673 S    
H5    C7    1.113796 S    
C18   C19   1.407504 A    
C27   C34   1.398118 A    
Zn1   N1    2.053247 S    
C20   C21   1.420442 A    
C23   H19   1.082031 S    
H21   C35   1.084469 S    
Zn1   O5    1.925345 S    
C22   C23   1.387198 A    
C13   C25   1.393538 A    
O1    Zn1   1.963346 S    
O2    Zn2   1.925345 S    
C6    C10   1.551008 S    
O6    C3    1.302781 A    
O4    Zn2   2.011339 S    
C19   C26   1.408372 A    
C28   H24   1.081807 S    
C32   N2    1.363185 A    
C27   H22   1.083876 S    
C31   C32   1.416730 A    
O2    C1    1.308469 A    
C12   H9    1.113845 S    
C7    H10   1.113640 S    
C33   C37   1.402994 A    
C30   H25   1.077408 S    
C32   C36   1.400383 A    
C33   C34   1.422292 A    
C6    H4    1.114523 S    
C7    C9    1.550097 S    
C28   C29   1.388207 A    
C30   C31   1.414435 A    
C15   C26   1.402321 A    
Zn2   O6    1.963343 S    
C10   C11   1.552659 S    
C19   C23   1.413865 A    
C20   C24   1.390081 A    
