data_mof_unit_281.cif
_audit_creation_date              2012-12-10T17:45:32-0500
_audit_creation_method            fapswitch 2.2
_symmetry_space_group_name_H-M    P1
_symmetry_Int_Tables_number       1
_space_group_crystal_system       triclinic
_cell_length_a                    11.520646
_cell_length_b                    10.746933
_cell_length_c                    9.982993
_cell_angle_alpha                 92.169675
_cell_angle_beta                  90.470135
_cell_angle_gamma                 94.595858
_cell_volume                      1231.07463998

loop_
_atom_site_label
_atom_site_type_symbol
_atom_type_description
_atom_site_fract_x
_atom_site_fract_y
_atom_site_fract_z
_atom_type_partial_charge
C1    C     C_R   0.512093 0.262175 0.497212 0.886298
C2    C     C_R   0.514122 0.875110 0.502897 -0.156712
C3    C     C_R   0.311711 0.353562 0.120352 0.022634
C4    C     C_R   0.282346 0.501463 0.499730 0.914975
C5    C     C_R   0.219344 0.304959 0.036726 -0.206027
C6    C     C_R   0.229763 0.303119 0.900336 -0.200655
C7    C     C_R   0.329336 0.356728 0.845076 -0.111650
C8    C     C_R   0.413454 0.430218 0.922068 0.126277
C9    C     C_R   0.410666 0.428687 0.066809 0.099754
C10   C     C_R   0.583265 0.566882 0.075937 -0.033027
C11   C     C_R   0.586496 0.562024 0.933101 -0.025121
C12   C     C_R   0.724039 0.094309 0.791327 0.538658
C13   C     C_R   0.503097 0.740328 0.502014 0.872220
C14   C     C_R   0.717799 0.500678 0.500467 0.882252
C15   C     C_1   0.161748 0.501343 0.499128 -0.169920
C16   C     C_1   0.059424 0.500977 0.499623 0.011600
C17   C     C_1   0.940633 0.500617 0.500692 0.016659
C18   C     C_1   0.838336 0.500536 0.501164 -0.161718
C19   C     C_R   0.664071 0.150534 0.689386 -0.305439
C20   C     C_1   0.488700 0.103431 0.242764 0.232895
C21   C     C_1   0.690739 0.613283 0.869931 0.190938
C22   C     C_3   0.742576 0.267847 0.938407 0.089464
C23   C     C_R   0.723279 0.964815 0.787969 -0.173658
C24   C     C_3   0.793322 0.303179 0.077128 -0.768857
C25   C     C_1   0.382168 0.865578 0.299583 0.227537
C26   C     C_1   0.669685 0.645273 0.152199 0.251563
C27   C     C_1   0.298082 0.296987 0.247766 0.282733
C28   C     C_R   0.658024 0.892334 0.691330 -0.249339
C29   C     C_R   0.587156 0.946771 0.597638 0.089053
C30   C     C_R   0.592847 0.077727 0.594424 0.047142
C31   C     C_R   0.534926 0.131954 0.488893 -0.158417
C32   C     C_R   0.491559 0.057750 0.377786 -0.058684
C33   C     C_R   0.463731 0.932625 0.394460 -0.075982
H1    H     H_    0.163201 0.253156 0.837240 0.172669
H2    H     H_    0.754344 0.387302 0.118657 0.213611
H3    H     H_    0.774029 0.225194 0.145530 0.257153
H4    H     H_    0.338354 0.336232 0.741113 0.210757
H5    H     H_    0.679472 0.250181 0.680795 0.162389
H6    H     H_    0.775393 0.919878 0.859731 0.176274
H7    H     H_    0.667809 0.794141 0.687834 0.196488
H8    H     H_    0.142516 0.254417 0.076675 0.160167
H9    H     H_    0.646291 0.250578 0.948400 0.152353
H10   H     H_    0.762494 0.347857 0.872734 0.158973
H11   H     H_    0.889160 0.323663 0.071200 0.253878
N1    N     N_R   0.498930 0.498800 0.142780 -0.142227
N2    N     N_R   0.498900 0.498720 0.857170 -0.144653
N3    N     N_1   0.488011 0.137780 0.134293 -0.225228
N4    N     N_1   0.777076 0.652519 0.823220 -0.224044
N5    N     N_1   0.317327 0.812499 0.224182 -0.182340
N6    N     N_1   0.739032 0.708770 0.212492 -0.200853
N7    N     N_1   0.278161 0.246305 0.346419 -0.238322
O1    O     O_R   0.500000 0.316780 0.614690 -0.652272
O2    O     O_R   0.499990 0.316750 0.385360 -0.616106
O3    O     O_R   0.334450 0.500030 0.614670 -0.627106
O4    O     O_R   0.334440 0.500000 0.385330 -0.612495
O5    O     O_R   0.500010 0.683250 0.614640 -0.614666
O6    O     O_R   0.500000 0.683220 0.385310 -0.604063
O7    O     O_R   0.665560 0.500000 0.614670 -0.626349
O8    O     O_R   0.665550 0.499970 0.385330 -0.616053
O9    O     O_3   0.794775 0.161646 0.886597 -0.618546
Zn1   Zn    Zn3+2 0.500010 0.500020 0.653130 0.936045
Zn2   Zn    Zn3+2 0.499990 0.499980 0.346870 0.967121

loop_
_geom_bond_atom_site_label_1
_geom_bond_atom_site_label_2
_ccdc_geom_bond_type
C22   H9    S    
C9    N1    A    
C6    C7    A    
C3    C9    A    
C19   H5    S    
O2    Zn2   S    
C14   C18   S    
C31   C32   A    
C3    C5    A    
C13   O5    A    
C4    O3    A    
C32   C33   A    
C21   N4    T    
O7    Zn1   S    
C3    C27   S    
C17   C18   T    
C7    H4    S    
C7    C8    A    
C24   H3    S    
C23   C28   A    
C14   O8    A    
C12   C23   A    
C10   C26   S    
C29   C30   A    
C4    C15   S    
C2    C29   A    
C23   H6    S    
C5    C6    A    
C12   C19   A    
C28   C29   A    
O3    Zn1   S    
C27   N7    T    
C22   C24   S    
O1    Zn1   S    
C26   N6    T    
C4    O4    A    
C22   O9    S    
C30   C31   A    
C24   H11   S    
C1    O1    A    
C25   N5    T    
C24   H2    S    
C13   O6    A    
C10   C11   A    
C28   H7    S    
N2    Zn1   S    
C15   C16   T    
C12   O9    S    
O4    Zn2   S    
C6    H1    S    
N1    Zn2   S    
C1    C31   S    
C2    C33   A    
C20   C32   S    
C10   N1    A    
C2    C13   S    
C5    H8    S    
O5    Zn1   S    
C16   C17   S    
C11   N2    A    
C1    O2    A    
C8    N2    A    
O6    Zn2   S    
C19   C30   A    
C11   C21   S    
C20   N3    T    
C22   H10   S    
C14   O7    A    
C25   C33   S    
C8    C9    A    
O8    Zn2   S    
