data_mof_unit_710.cif
_audit_creation_date              2012-12-10T16:42:55-0500
_audit_creation_method            fapswitch 2.2
_symmetry_space_group_name_H-M    P1
_symmetry_Int_Tables_number       1
_space_group_crystal_system       triclinic
_cell_length_a                    7.525008
_cell_length_b                    8.681724
_cell_length_c                    13.006938
_cell_angle_alpha                 86.924258
_cell_angle_beta                  78.728401
_cell_angle_gamma                 103.07931
_cell_volume                      807.461526317

loop_
_atom_site_label
_atom_site_type_symbol
_atom_type_description
_atom_site_fract_x
_atom_site_fract_y
_atom_site_fract_z
_atom_type_partial_charge
C1    C     C_R   0.452520 0.199741 0.503455 0.852622
C2    C     C_R   0.547480 0.800259 0.496544 0.852622
C3    C     C_R   0.465832 0.495820 0.701290 0.906223
C4    C     C_R   0.534168 0.504180 0.298710 0.906223
C5    C     C_R   0.554113 0.510520 0.184728 -0.422745
C6    C     C_R   0.445887 0.489480 0.815272 -0.422745
C7    C     C_R   0.254793 0.409778 0.990708 0.722601
C8    C     C_R   0.745207 0.590222 0.009291 0.722601
C9    C     C_R   0.271800 0.421488 0.882406 0.507541
C10   C     C_R   0.728200 0.578512 0.117594 0.507541
C11   C     C_R   0.602857 0.548281 0.857458 0.673874
C12   C     C_R   0.397143 0.451719 0.142542 0.673874
C13   C     C_R   0.587873 0.535062 0.966330 -0.367081
C14   C     C_R   0.412127 0.464938 0.033670 -0.367081
C15   C     C_2   0.426268 0.031398 0.505646 -0.285950
C16   C     C_2   0.573732 0.968602 0.494354 -0.285951
Cu1   Cu    Cu3+1 0.686350 0.517570 0.488220 1.160008
Cu2   Cu    Cu3+1 0.313650 0.482430 0.511780 1.160008
H1    H     H_    0.284448 0.958854 0.516771 0.208279
H2    H     H_    0.715552 0.041146 0.483229 0.208279
N1    N     N_2   0.033570 0.455950 0.529530 0.065001
N2    N     N_2   0.966430 0.544050 0.470470 0.065001
O1    O     O_R   0.621060 0.286250 0.492350 -0.581003
O2    O     O_R   0.378940 0.713750 0.507650 -0.581003
O3    O     O_R   0.306310 0.256580 0.512240 -0.565961
O4    O     O_R   0.693690 0.743420 0.487760 -0.565961
O5    O     O_R   0.631800 0.512400 0.642670 -0.527285
O6    O     O_R   0.368200 0.487600 0.357330 -0.527285
O7    O     O_R   0.317060 0.482730 0.662570 -0.510683
O8    O     O_R   0.682940 0.517270 0.337430 -0.510683
F1    F     F_    0.230596 0.379580 0.207531 -0.542322
F2    F     F_    0.769404 0.620420 0.792469 -0.542322
F3    F     F_    0.882169 0.637359 0.156343 -0.540534
F4    F     F_    0.117831 0.362640 0.843657 -0.540534
F5    F     F_    0.083881 0.343443 0.052759 -0.525333
F6    F     F_    0.916118 0.656557 0.947241 -0.525332
Br1   Br    Br    0.877219 0.298430 0.633586 -0.227252
Br2   Br    Br    0.122781 0.701570 0.366414 -0.227252

loop_
_geom_bond_atom_site_label_1
_geom_bond_atom_site_label_2
_ccdc_geom_bond_type
C1    O3    A    
C8    C13   A    
C1    C15   S    
Cu2   N1    S    
C2    C16   S    
Cu1   N2    S    
C16   H2    S    
C3    C6    S    
C6    C9    A    
C3    O5    A    
Cu1   Cu2   S    
N1    Br1   S    
C5    C10   A    
C2    O4    A    
Cu2   O7    S    
C13   C14   A    
C15   H1    S    
Cu1   O8    S    
C11   C13   A    
C3    O7    A    
Cu1   O1    S    
Cu2   O3    S    
Cu2   O2    S    
Cu1   O4    S    
C4    O6    A    
C12   C14   A    
C11   F2    S    
C1    O1    A    
C10   F3    S    
C12   F1    S    
C2    O2    A    
C9    F4    S    
C15   C16   D    
Cu1   O5    S    
Cu2   O6    S    
C5    C12   A    
C8    C10   A    
C8    F6    S    
C6    C11   A    
C7    C9    A    
N1    N2    D    
C7    F5    S    
C7    C14   A    
C4    O8    A    
C4    C5    S    
N2    Br2   S    
