data_mof_unit_461.cif
_audit_creation_date              2012-12-11T14:40:10-0500
_audit_creation_method            fapswitch 2.2
_symmetry_space_group_name_H-M    P1
_symmetry_Int_Tables_number       1
_space_group_crystal_system       triclinic
_cell_length_a                    19.600776
_cell_length_b                    10.845098
_cell_length_c                    19.477329
_cell_angle_alpha                 89.771007
_cell_angle_beta                  97.589004
_cell_angle_gamma                 89.624596
_cell_volume                      4103.93822769

loop_
_atom_site_label
_atom_site_type_symbol
_atom_type_description
_atom_site_fract_x
_atom_site_fract_y
_atom_site_fract_z
_atom_type_partial_charge
C1    C     C_R   0.707500 0.999945 0.366422 0.552657
C2    C     C_R   0.293298 0.002733 0.633944 0.559914
C3    C     C_R   0.206678 0.501971 0.366077 0.560834
C4    C     C_R   0.792632 0.500487 0.633348 0.545179
C5    C     C_3   0.728214 0.339123 0.488246 -0.115832
C6    C     C_3   0.271746 0.345722 0.513037 -0.118098
C7    C     C_3   0.197272 0.920531 0.480766 -0.119627
C8    C     C_3   0.809441 0.895207 0.511356 -0.134631
C9    C     C_3   0.752830 0.415139 0.429805 0.057722
C10   C     C_3   0.246191 0.421130 0.571048 0.057489
C11   C     C_3   0.251922 0.914650 0.431253 0.058425
C12   C     C_3   0.757579 0.881203 0.563026 0.060716
C13   C     C_3   0.728507 0.534690 0.459641 -0.139099
C14   C     C_3   0.269534 0.541053 0.540311 -0.134948
C15   C     C_3   0.281403 0.039330 0.455898 -0.145422
C16   C     C_3   0.727750 0.010380 0.545931 -0.114717
C17   C     C_3   0.801178 0.547729 0.501811 -0.153526
C18   C     C_3   0.196786 0.553738 0.497744 -0.147377
C19   C     C_3   0.331882 0.970693 0.511381 -0.132214
C20   C     C_3   0.674444 0.952071 0.489926 -0.127433
C21   C     C_3   0.824960 0.426946 0.470424 -0.112908
C22   C     C_3   0.174035 0.432848 0.530083 -0.114683
C23   C     C_3   0.302024 0.845564 0.486035 -0.101594
C24   C     C_3   0.704553 0.822792 0.508066 -0.113533
C25   C     C_3   0.800496 0.351294 0.529510 -0.107325
C26   C     C_3   0.199386 0.357049 0.471640 -0.112702
C27   C     C_3   0.247466 0.852665 0.535936 -0.113143
C28   C     C_3   0.756336 0.837160 0.455654 -0.113196
C29   C     C_3   0.776701 0.471447 0.560137 0.052380
C30   C     C_3   0.221991 0.476805 0.440071 0.053475
C31   C     C_3   0.277467 0.976515 0.560722 0.050451
C32   C     C_3   0.726036 0.965239 0.438086 0.052812
C33   C     C_3   0.531618 0.263401 0.966972 0.105070
C34   C     C_3   0.489256 0.281149 0.025837 0.109243
C35   C     C_3   0.048985 0.770638 0.966018 0.097415
C36   C     C_3   0.999365 0.773625 0.019585 0.115117
C37   C     C_3   0.571854 0.156957 0.005078 0.318395
C38   C     C_3   0.435888 0.188992 0.994255 0.315292
C39   C     C_3   0.093422 0.672656 0.008143 0.316659
C40   C     C_3   0.956974 0.671228 0.982166 0.390947
C41   C     C_3   0.529680 0.175283 0.065048 0.018388
C42   C     C_3   0.477861 0.171974 0.934150 0.015181
C43   C     C_3   0.043233 0.675932 0.062588 -0.018078
C44   C     C_3   0.006612 0.668853 0.927260 0.005830
C45   C     C_R   0.535035 0.179989 0.338026 0.543643
C46   C     C_R   0.465190 0.179893 0.662148 0.546260
C47   C     C_R   0.034941 0.679943 0.337954 0.545742
C48   C     C_R   0.964986 0.679849 0.661998 0.523619
C49   C     C_3   0.475713 0.080844 0.033415 -0.160724
C50   C     C_3   0.518181 0.062850 0.971841 -0.162484
C51   C     C_3   0.000465 0.571159 0.024531 -0.160571
C52   C     C_3   0.050824 0.568132 0.968741 -0.185958
C53   C     C_1   0.774640 0.454039 0.910979 0.055668
C54   C     C_1   0.236950 0.425662 0.095638 0.042106
C55   C     C_1   0.282298 0.976527 0.914876 0.042306
C56   C     C_1   0.737522 0.924319 0.096095 0.041163
C57   C     C_1   0.744332 0.391607 0.032100 0.004898
C58   C     C_1   0.251868 0.409023 0.965073 0.047857
C59   C     C_1   0.258293 0.939984 0.042012 0.012330
C60   C     C_1   0.752878 0.906531 0.965713 0.048829
C61   C     C_1   0.759892 0.425255 0.966561 -0.002850
C62   C     C_1   0.245303 0.415944 0.035908 0.045016
C63   C     C_1   0.271131 0.961142 0.973559 0.022151
C64   C     C_1   0.746227 0.913799 0.036509 0.040349
C65   C     C_1   0.733348 0.360119 0.088586 0.057767
C66   C     C_1   0.256900 0.395652 0.904764 0.046309
C67   C     C_1   0.247824 0.912649 0.099583 0.037614
C68   C     C_1   0.757580 0.893768 0.905298 0.054816
C69   C     C_R   0.740591 0.367339 0.360235 0.547868
C70   C     C_R   0.259007 0.368748 0.640192 0.536024
C71   C     C_R   0.239978 0.865547 0.361391 0.539592
C72   C     C_R   0.771430 0.824571 0.630817 0.525443
C73   C     C_R   0.722010 0.952382 0.163812 0.555983
C74   C     C_R   0.295479 0.998366 0.845369 0.565539
C75   C     C_R   0.221893 0.452669 0.163658 0.559791
C76   C     C_R   0.792797 0.491071 0.845721 0.606039
C77   C     C_R   0.559748 0.182366 0.136027 0.584864
C78   C     C_R   0.444222 0.181451 0.864650 0.589191
C79   C     C_R   0.063778 0.682876 0.136981 0.603870
C80   C     C_R   0.973765 0.677971 0.856508 0.584175
C81   C     C_R   0.723949 0.317120 0.155691 0.568252
C82   C     C_R   0.264008 0.360562 0.835585 0.544438
C83   C     C_R   0.236512 0.863150 0.165229 0.566096
C84   C     C_R   0.764175 0.860043 0.835798 0.566270
C85   C     C_1   0.486651 0.172251 0.595111 -0.015373
C86   C     C_1   0.514313 0.172049 0.405390 -0.017081
C87   C     C_1   0.985949 0.671847 0.594762 -0.015009
C88   C     C_1   0.013823 0.671717 0.405135 -0.017093
C89   C     C_1   0.504684 0.168885 0.465004 -0.062659
C90   C     C_1   0.496717 0.169051 0.535634 -0.062481
C91   C     C_1   0.003891 0.668173 0.464649 -0.063615
C92   C     C_1   0.995782 0.668249 0.535231 -0.063752
C93   C     C_3   0.704358 0.459550 0.519573 -0.105224
C94   C     C_3   0.294389 0.465882 0.480934 -0.104900
C95   C     C_3   0.226981 0.045799 0.507052 -0.130511
C96   C     C_3   0.779234 0.024885 0.492449 -0.125321
Cr1   Cr    Cr6+3 0.765830 0.160660 0.268180 1.027182
Cr2   Cr    Cr6+3 0.234170 0.160660 0.731820 1.028995
Cr3   Cr    Cr6+3 0.265830 0.660660 0.268180 1.035259
Cr4   Cr    Cr6+3 0.734170 0.660660 0.731820 1.037116
Cr5   Cr    Cr6+3 0.612110 0.009150 0.248770 1.030770
Cr6   Cr    Cr6+3 0.387890 0.009150 0.751230 1.028993
Cr7   Cr    Cr6+3 0.112110 0.509150 0.248770 1.032844
Cr8   Cr    Cr6+3 0.887890 0.509150 0.751230 1.035059
Cr9   Cr    Cr6+3 0.615930 0.324050 0.248450 1.040414
Cr10  Cr    Cr6+3 0.384070 0.324050 0.751550 1.044131
Cr11  Cr    Cr6+3 0.115930 0.824050 0.248450 1.021461
Cr12  Cr    Cr6+3 0.884070 0.824050 0.751550 1.061160
H1    H     H_    0.697097 0.253954 0.480547 0.103130
H2    H     H_    0.304965 0.262609 0.522115 0.107362
H3    H     H_    0.141856 0.899411 0.466594 0.126858
H4    H     H_    0.864938 0.870769 0.521980 0.120471
H5    H     H_    0.655197 0.473014 0.541165 0.130920
H6    H     H_    0.343552 0.479262 0.459453 0.130018
H7    H     H_    0.195018 0.124049 0.520744 0.129165
H8    H     H_    0.809895 0.106870 0.482415 0.125117
H9    H     H_    0.696995 0.603275 0.426897 0.119574
H10   H     H_    0.300634 0.611021 0.571472 0.119417
H11   H     H_    0.294547 0.114593 0.421252 0.119317
H12   H     H_    0.716911 0.080094 0.584721 0.129590
H13   H     H_    0.387326 0.990474 0.525777 0.123292
H14   H     H_    0.618929 0.976141 0.479333 0.121497
H15   H     H_    0.832885 0.631896 0.510213 0.099846
H16   H     H_    0.165062 0.638814 0.488849 0.105667
H17   H     H_    0.874086 0.413838 0.448692 0.130308
H18   H     H_    0.124920 0.419586 0.551688 0.129615
H19   H     H_    0.333095 0.762596 0.477078 0.131929
H20   H     H_    0.673233 0.740812 0.516849 0.126180
H21   H     H_    0.830162 0.276732 0.559416 0.131997
H22   H     H_    0.170210 0.282933 0.441866 0.132273
H23   H     H_    0.232186 0.782071 0.572121 0.125099
H24   H     H_    0.768819 0.771000 0.415765 0.129870
H25   H     H_    0.452567 0.006760 0.062134 0.151397
H26   H     H_    0.529983 0.973821 0.947916 0.152330
H27   H     H_    0.979373 0.489866 0.049169 0.154948
H28   H     H_    0.072582 0.484719 0.946648 0.139352
O1    O     O_R   0.783230 0.287800 0.346510 -0.525944
O2    O     O_R   0.216770 0.287800 0.653490 -0.529929
O3    O     O_R   0.283230 0.787800 0.346510 -0.529265
O4    O     O_R   0.716770 0.787800 0.653490 -0.517993
O5    O     O_R   0.554500 0.081650 0.170370 -0.499779
O6    O     O_R   0.445500 0.081650 0.829630 -0.521091
O7    O     O_R   0.054500 0.581650 0.170370 -0.494933
O8    O     O_R   0.945500 0.581650 0.829630 -0.503338
O9    O     O_R   0.545430 0.285140 0.163100 -0.495279
O10   O     O_R   0.454570 0.285140 0.836900 -0.476047
O11   O     O_R   0.045430 0.785140 0.163100 -0.530106
O12   O     O_R   0.954570 0.785140 0.836900 -0.460677
O13   O     O_R   0.677850 0.374730 0.185500 -0.501525
O14   O     O_R   0.322150 0.374730 0.814500 -0.494429
O15   O     O_R   0.177850 0.874730 0.185500 -0.509123
O16   O     O_R   0.822150 0.874730 0.814500 -0.466952
O17   O     O_3   0.664630 0.164620 0.255130 -0.310497
O18   O     O_3   0.335370 0.164620 0.744870 -0.312875
O19   O     O_3   0.164630 0.664620 0.255130 -0.293363
O20   O     O_3   0.835370 0.664620 0.744870 -0.305046
O21   O     O_R   0.760130 0.037060 0.338610 -0.497710
O22   O     O_R   0.239870 0.037060 0.661390 -0.490785
O23   O     O_R   0.260130 0.537060 0.338610 -0.505400
O24   O     O_R   0.739870 0.537060 0.661390 -0.506471
O25   O     O_R   0.666620 0.921370 0.332440 -0.512071
O26   O     O_R   0.333380 0.921370 0.667560 -0.507444
O27   O     O_R   0.166620 0.421370 0.332440 -0.517839
O28   O     O_R   0.833380 0.421370 0.667560 -0.506825
O29   O     O_R   0.557170 0.082420 0.312350 -0.509379
O30   O     O_R   0.442830 0.082420 0.687650 -0.511749
O31   O     O_R   0.057170 0.582420 0.312350 -0.507103
O32   O     O_R   0.942830 0.582420 0.687650 -0.519948
O33   O     O_R   0.548310 0.285980 0.316250 -0.502032
O34   O     O_R   0.451690 0.285980 0.683750 -0.499248
O35   O     O_R   0.048310 0.785980 0.316250 -0.505992
O36   O     O_R   0.951690 0.785980 0.683750 -0.516137
O37   O     O_R   0.680520 0.375500 0.327470 -0.498420
O38   O     O_R   0.319480 0.375500 0.672530 -0.500853
O39   O     O_R   0.180520 0.875500 0.327470 -0.506311
O40   O     O_R   0.819480 0.875500 0.672530 -0.497081
O41   O     O_R   0.780350 0.286970 0.193350 -0.503637
O42   O     O_R   0.219650 0.286970 0.806650 -0.517248
O43   O     O_R   0.280350 0.786970 0.193350 -0.496146
O44   O     O_R   0.719650 0.786970 0.806650 -0.511683
O45   O     O_R   0.757460 0.036290 0.196640 -0.502478
O46   O     O_R   0.242540 0.036290 0.803360 -0.485063
O47   O     O_R   0.257460 0.536290 0.196640 -0.480425
O48   O     O_R   0.742540 0.536290 0.803360 -0.491956
O49   O     O_R   0.663740 0.920540 0.179290 -0.499953
O50   O     O_R   0.336260 0.920540 0.820710 -0.502488
O51   O     O_R   0.163740 0.420540 0.179290 -0.512134
O52   O     O_R   0.836260 0.420540 0.820710 -0.494992
F1    F     F_    0.642491 0.141999 0.011962 -0.669793
F2    F     F_    0.365438 0.206368 0.987613 -0.675003
F3    F     F_    0.164336 0.675709 0.022652 -0.657593
F4    F     F_    0.885886 0.671591 0.968428 -0.642579
N1    N     N_3   0.562695 0.362979 0.931635 -0.567965
H29   H     H_    0.595534 0.410327 0.969012 0.246154
H30   H     H_    0.593707 0.322577 0.898082 0.258510
N2    N     N_3   0.472336 0.401044 0.052982 -0.569202
H31   H     H_    0.447698 0.452837 0.011465 0.253619
H32   H     H_    0.435825 0.386567 0.086688 0.261684
N3    N     N_3   0.075703 0.878640 0.934077 -0.570349
H33   H     H_    0.103972 0.929047 0.973554 0.241629
H34   H     H_    0.110626 0.847334 0.901774 0.245063
N4    N     N_3   0.968801 0.886318 0.042904 -0.557164
H35   H     H_    0.008600 0.941819 0.066194 0.243081
H36   H     H_    0.938030 0.862156 0.080689 0.259400

loop_
_geom_bond_atom_site_label_1
_geom_bond_atom_site_label_2
_ccdc_geom_bond_type
C58   C62   S    
Cr9   O17   S    
Cr2   O18   S    
C67   C83   S    
Cr10  O14   S    
Cr3   O23   S    
N3    H34   S    
C17   C29   S    
C9    C21   S    
C14   C18   S    
C37   F1    S    
C35   C36   S    
C8    C96   S    
C44   C80   S    
C19   C31   S    
C2    O26   A    
C94   H6    S    
C35   N3    S    
C38   C49   S    
Cr11  O35   S    
C10   C22   S    
C15   C19   S    
N1    H29   S    
Cr6   O50   S    
N4    H36   S    
Cr2   O2    S    
C33   C42   S    
C23   H19   S    
C9    C69   S    
C38   C42   S    
C40   F4    S    
C78   O6    A    
C15   C95   S    
C11   C71   S    
C13   H9    S    
C22   H18   S    
C66   C82   S    
C43   C79   S    
C71   O39   A    
C7    C27   S    
C41   C49   S    
C57   C61   S    
C84   O44   A    
C9    C13   S    
C49   H25   S    
Cr4   O4    S    
C38   F2    S    
C48   O36   A    
C55   C74   S    
C51   H27   S    
C17   H15   S    
C79   O7    A    
C12   C16   S    
C95   H7    S    
C80   O8    A    
C55   C63   T    
C4    O28   A    
C18   C30   S    
Cr1   O17   S    
Cr2   O42   S    
C18   C22   S    
C24   C28   S    
C73   O45   A    
Cr6   O18   S    
C20   H14   S    
C4    C29   S    
C76   O52   A    
C16   C20   S    
C46   C85   S    
Cr11  O15   S    
C44   C52   S    
C11   C15   S    
C72   O40   A    
C39   C52   S    
C12   C72   S    
C75   O47   A    
N3    H33   S    
Cr6   O30   S    
Cr9   O37   S    
C87   C92   T    
C25   C29   S    
C6    H2    S    
Cr3   O3    S    
C34   C41   S    
C53   C61   T    
C1    O25   A    
Cr5   O49   S    
Cr1   O1    S    
C73   O49   A    
C29   C93   S    
C58   C66   T    
C7    C11   S    
C83   O15   A    
C81   O13   A    
C69   O1    A    
Cr8   O52   S    
Cr1   O41   S    
C16   C96   S    
N4    H35   S    
C27   C31   S    
C51   C52   S    
C68   C84   S    
C20   C24   S    
C36   C40   S    
Cr7   O51   S    
N2    H32   S    
C10   C14   S    
C96   H8    S    
C91   C92   S    
Cr12  O16   S    
C19   C23   S    
C79   O11   A    
C54   C62   T    
Cr10  O18   S    
Cr11  O11   S    
C69   O37   A    
C33   C37   S    
C27   H23   S    
C46   O34   A    
Cr7   O7    S    
C2    C31   S    
C28   H24   S    
Cr1   O21   S    
Cr3   O43   S    
Cr2   O46   S    
C3    C30   S    
C35   C39   S    
Cr5   O25   S    
Cr8   O28   S    
C5    C9    S    
Cr8   O32   S    
C47   O31   A    
Cr4   O24   S    
C59   C67   T    
C47   O35   A    
Cr12  O20   S    
C88   C91   T    
C28   C32   S    
C8    C12   S    
Cr9   O9    S    
C82   O42   A    
N1    H30   S    
C33   C34   S    
Cr10  O38   S    
C48   C87   S    
C1    O21   A    
C3    O23   A    
C93   H5    S    
Cr7   O31   S    
Cr8   O20   S    
Cr5   O29   S    
C35   C44   S    
C70   O38   A    
C60   C68   T    
C82   O14   A    
C22   C26   S    
Cr9   O33   S    
C42   C50   S    
C5    C25   S    
C10   C70   S    
Cr7   O19   S    
C32   C96   S    
C80   O12   A    
C70   O2    A    
C23   C27   S    
Cr12  O36   S    
C50   H26   S    
C52   H28   S    
Cr6   O6    S    
Cr3   O19   S    
C59   C63   S    
C53   C76   S    
Cr4   O20   S    
Cr5   O17   S    
C21   H17   S    
Cr4   O44   S    
C71   O3    A    
C7    C95   S    
Cr6   O26   S    
C42   C78   S    
C14   H10   S    
C20   C32   S    
C34   N2    S    
C21   C25   S    
C19   H13   S    
C56   C73   S    
C46   O30   A    
Cr5   O5    S    
C34   C38   S    
Cr3   O47   S    
C84   O16   A    
C75   O51   A    
C72   O4    A    
C57   C65   T    
N2    H31   S    
C86   C89   T    
C26   H22   S    
C6    C10   S    
C5    C93   S    
C85   C90   T    
Cr1   O45   S    
C6    C26   S    
C74   O46   A    
C3    O27   A    
C7    H3    S    
C40   C51   S    
Cr9   O13   S    
C12   C24   S    
Cr7   O27   S    
C83   O43   A    
Cr10  O10   S    
C13   C17   S    
C60   C64   S    
C47   C88   S    
C16   H12   S    
C45   C86   S    
C81   O41   A    
C30   C94   S    
C41   C77   S    
C37   C50   S    
C6    C94   S    
C56   C64   T    
C4    O24   A    
C77   O9    A    
Cr11  O39   S    
C43   C51   S    
C31   C95   S    
Cr12  O40   S    
C11   C23   S    
C8    H4    S    
C15   H11   S    
C1    C32   S    
C37   C41   S    
Cr4   O48   S    
C77   O5    A    
Cr8   O8    S    
C78   O10   A    
C33   N1    S    
C54   C75   S    
C14   C94   S    
Cr2   O22   S    
C40   C44   S    
C2    O22   A    
C39   C43   S    
C8    C28   S    
C49   C50   S    
Cr10  O34   S    
C13   C93   S    
C24   H20   S    
C65   C81   S    
C39   F3    S    
C36   C43   S    
C25   H21   S    
C5    H1    S    
Cr12  O12   S    
C89   C90   S    
C76   O48   A    
C45   O29   A    
C48   O32   A    
C36   N4    S    
Cr11  O19   S    
C45   O33   A    
C18   H16   S    
C74   O50   A    
C26   C30   S    
C17   C21   S    
