data_mof_unit_2189.cif
_audit_creation_date              2012-12-11T16:08:36-0500
_audit_creation_method            fapswitch 2.2
_symmetry_space_group_name_H-M    P1
_symmetry_Int_Tables_number       1
_space_group_crystal_system       triclinic
_cell_length_a                    12.963341
_cell_length_b                    13.253117
_cell_length_c                    27.684614
_cell_angle_alpha                 94.805247
_cell_angle_beta                  90.197463
_cell_angle_gamma                 119.137776
_cell_volume                      4134.48525668

loop_
_atom_site_label
_atom_site_type_symbol
_atom_type_description
_atom_site_fract_x
_atom_site_fract_y
_atom_site_fract_z
_atom_type_partial_charge
C1    C     C_R   0.628995 0.893900 0.428299 0.548894
C2    C     C_R   0.614741 0.389954 0.234858 -0.110509
C3    C     C_R   0.608061 0.376918 0.284510 -0.158457
C4    C     C_R   0.677439 0.338085 0.307052 0.023558
C5    C     C_R   0.689288 0.362261 0.207124 -0.014815
C6    C     C_1   0.697525 0.378607 0.156220 -0.051338
C7    C     C_1   0.657463 0.310252 0.356664 0.024601
C8    C     C_1   0.705502 0.400560 0.114551 -0.008729
C9    C     C_R   0.139928 0.735208 0.358382 -0.119328
C10   C     C_R   0.095199 0.713388 0.310612 0.007056
C11   C     C_R   0.032519 0.677284 0.211302 0.021601
C12   C     C_R   0.601345 0.223060 0.440881 0.548462
C13   C     C_R   0.021723 0.585253 0.236189 -0.081533
C14   C     C_R   0.052566 0.603070 0.285635 -0.083835
C15   C     C_R   0.011028 0.662319 0.161180 -0.112045
C16   C     C_R   0.026716 0.755934 0.136167 -0.003032
C17   C     C_R   0.190881 0.937869 0.358984 -0.133798
C18   C     C_R   0.146162 0.917383 0.311118 0.013939
C19   C     C_R   0.101491 0.805504 0.286379 0.063357
C20   C     C_R   0.153537 0.008674 0.286488 -0.132698
C21   C     C_R   0.121979 0.990538 0.237040 -0.130486
C22   C     C_R   0.081980 0.880804 0.211792 0.012632
C23   C     C_R   0.267647 0.875695 0.426074 0.548159
C24   C     C_R   0.070008 0.787370 0.236639 0.063606
C25   C     C_R   0.058222 0.863951 0.161770 -0.126031
C26   C     C_R   0.193894 0.848483 0.381646 -0.004840
C27   C     C_R   0.760583 0.921316 0.360740 -0.094753
C28   C     C_R   0.767006 0.907327 0.310730 0.045083
C29   C     C_R   0.764819 0.899446 0.209944 0.008239
C30   C     C_R   0.861539 0.987654 0.238112 -0.076020
C31   C     C_R   0.864275 0.989524 0.288216 -0.056625
C32   C     C_R   0.766420 0.896796 0.160118 -0.150196
C33   C     C_R   0.685101 0.797871 0.131114 0.025746
C34   C     C_R   0.627519 0.898264 0.564651 0.548301
C35   C     C_R   0.565284 0.752013 0.355630 -0.129080
C36   C     C_R   0.571370 0.735831 0.305524 -0.042493
C37   C     C_R   0.669532 0.816990 0.282589 0.049640
C38   C     C_R   0.474489 0.647867 0.277962 -0.108581
C39   C     C_R   0.470160 0.640575 0.227193 0.255543
C40   C     C_R   0.571981 0.719284 0.202968 0.007726
C41   C     C_R   0.668692 0.811158 0.231740 0.002672
C42   C     C_R   0.586848 0.707903 0.152146 0.093806
C43   C     C_R   0.655228 0.850619 0.382377 -0.000309
C44   C     C_R   0.740038 0.297835 0.651931 -0.128781
C45   C     C_R   0.602997 0.227214 0.578458 0.548758
C46   C     C_R   0.752986 0.319011 0.702521 0.005997
C47   C     C_R   0.768474 0.346550 0.804510 0.018058
C48   C     C_R   0.859173 0.341793 0.778664 -0.109261
C49   C     C_R   0.850785 0.326688 0.727935 -0.127290
C50   C     C_R   0.777977 0.367313 0.855125 -0.122409
C51   C     C_R   0.687597 0.375427 0.879971 -0.005231
C52   C     C_R   0.557118 0.306931 0.653224 -0.123872
C53   C     C_R   0.565481 0.321901 0.703424 0.009022
C54   C     C_R   0.662860 0.326426 0.728342 0.058491
C55   C     C_R   0.474139 0.325393 0.728994 -0.130252
C56   C     C_R   0.271349 0.879289 0.563293 0.553461
C57   C     C_R   0.478273 0.331727 0.779320 -0.135039
C58   C     C_R   0.575342 0.337837 0.804448 -0.000203
C59   C     C_R   0.668788 0.336455 0.779110 0.056900
C60   C     C_R   0.583097 0.351746 0.854645 -0.125233
C61   C     C_R   0.638925 0.285941 0.627542 -0.002479
C62   C     C_1   0.220751 0.862467 0.609810 0.024214
C63   C     C_R   0.071474 0.750658 0.717673 -0.120089
C64   C     C_R   0.056161 0.739355 0.767535 0.080262
C65   C     C_R   0.237307 0.925244 0.785730 0.110073
C66   C     C_R   0.250455 0.935032 0.735715 -0.048832
C67   C     C_1   0.635886 0.276752 0.396490 0.037734
C68   C     C_R   0.168506 0.847710 0.701893 0.000642
C69   C     C_R   0.140103 0.826717 0.801608 0.098588
C70   C     C_1   0.124068 0.814624 0.852777 0.008399
C71   C     C_1   0.191335 0.853850 0.651141 -0.016074
C72   C     C_1   0.100926 0.797632 0.894425 0.003142
C73   C     C_1   0.647069 0.859703 0.608809 0.036379
C74   C     C_R   0.774478 0.820246 0.715027 -0.159640
C75   C     C_R   0.788402 0.806179 0.763607 -0.123441
C76   C     C_R   0.585406 0.758940 0.776008 -0.080737
C77   C     C_R   0.570630 0.773778 0.727392 0.287803
C78   C     C_R   0.755726 0.313974 0.279553 0.289488
C79   C     C_R   0.666497 0.805344 0.696776 0.021950
C80   C     C_R   0.694179 0.776219 0.794200 -0.014552
C81   C     C_1   0.710390 0.767380 0.844751 -0.052728
C82   C     C_1   0.658151 0.832390 0.648092 0.017123
C83   C     C_1   0.725951 0.761273 0.887075 -0.005331
C84   C     C_R   0.005487 0.738376 0.083502 0.562855
C85   C     C_R   0.717334 0.442083 0.067585 0.539574
C86   C     C_R   0.721313 0.780987 0.081972 0.564535
C87   C     C_R   0.056927 0.766489 0.941345 0.551486
C88   C     C_R   0.710045 0.433454 0.929163 0.540146
C89   C     C_R   0.759822 0.324782 0.229502 -0.097386
C90   C     C_R   0.748851 0.754345 0.936989 0.560431
Cr1   Cr    Cr6+3 0.416430 0.829200 0.492370 1.059055
Cr2   Cr    Cr6+3 0.674630 0.087020 0.504170 1.057095
Cr3   Cr    Cr6+3 0.408920 0.083740 0.503490 1.028252
Cr4   Cr    Cr6+3 0.914010 0.832750 0.013970 1.032807
Cr5   Cr    Cr6+3 0.922310 0.578600 0.003000 1.036660
Cr6   Cr    Cr6+3 0.656280 0.574630 0.003870 1.050652
H1    H     H_    0.132007 0.063083 0.218267 0.122386
H2    H     H_    0.187468 0.094909 0.305054 0.114279
H3    H     H_    0.231578 0.025205 0.377099 0.131106
H4    H     H_    0.840854 0.966354 0.144297 0.142198
H5    H     H_    0.831992 0.995645 0.381709 0.148794
H6    H     H_    0.935697 0.054868 0.221273 0.128923
H7    H     H_    0.939560 0.058878 0.309436 0.126332
H8    H     H_    0.398327 0.588643 0.296573 0.172662
H9    H     H_    0.817918 0.304326 0.207910 0.159856
H10   H     H_    0.484960 0.695067 0.372748 0.132718
H11   H     H_    0.858341 0.384431 0.874684 0.136952
H12   H     H_    0.804147 0.283052 0.632058 0.131571
H13   H     H_    0.936393 0.349748 0.797653 0.128023
H14   H     H_    0.920686 0.321189 0.708606 0.122959
H15   H     H_    0.511847 0.355612 0.873614 0.147313
H16   H     H_    0.406591 0.333747 0.798611 0.126724
H17   H     H_    0.398465 0.320850 0.710047 0.125208
H18   H     H_    0.479923 0.300105 0.634579 0.141501
H19   H     H_    0.009296 0.682822 0.691202 0.118003
H20   H     H_    0.560865 0.420535 0.217999 0.143755
H21   H     H_    0.326182 0.009445 0.723080 0.138321
H22   H     H_    0.848956 0.845798 0.692020 0.119766
H23   H     H_    0.873375 0.821225 0.777544 0.125765
H24   H     H_    0.513253 0.736395 0.800061 0.170032
H25   H     H_    0.547071 0.395042 0.305149 0.122802
H26   H     H_    0.983469 0.578203 0.141472 0.137399
H27   H     H_    0.140177 0.665518 0.376226 0.148737
H28   H     H_    0.993840 0.500794 0.217003 0.133650
H29   H     H_    0.048285 0.532041 0.303808 0.188682
H30   H     H_    0.067953 0.936099 0.142741 0.139646
O1    O     O_R   0.296680 0.802170 0.437540 -0.515842
O2    O     O_R   0.662610 0.183990 0.557860 -0.500610
O3    O     O_R   0.500730 0.201280 0.562180 -0.518519
O4    O     O_R   0.312500 0.978850 0.548170 -0.502465
O5    O     O_3   0.499990 0.999990 0.500010 -0.249735
O6    O     O_R   0.820790 0.857990 0.068830 -0.533286
O7    O     O_R   0.016700 0.827330 0.062850 -0.499398
O8    O     O_R   0.041970 0.673520 0.060040 -0.482631
O9    O     O_R   0.817980 0.483660 0.048840 -0.517146
O10   O     O_R   0.637200 0.461990 0.052510 -0.486769
O11   O     O_R   0.664790 0.681920 0.057970 -0.455913
O12   O     O_R   0.525380 0.838530 0.443500 -0.506639
O13   O     O_R   0.815840 0.852920 0.961840 -0.494183
O14   O     O_R   0.012100 0.822630 0.963670 -0.504938
O15   O     O_R   0.037010 0.668460 0.953040 -0.493676
O16   O     O_R   0.813390 0.478970 0.949660 -0.501372
O17   O     O_R   0.632250 0.456930 0.945520 -0.521816
O18   O     O_R   0.660200 0.677230 0.958780 -0.484027
O19   O     O_3   0.830870 0.661990 0.006950 -0.304254
O20   O     O_R   0.702130 0.995190 0.446810 -0.501253
O21   O     O_R   0.661770 0.181390 0.458760 -0.467156
O22   O     O_R   0.499820 0.198480 0.455280 -0.521896
O23   O     O_R   0.311660 0.976250 0.449080 -0.504117
O24   O     O_R   0.297580 0.804960 0.544440 -0.482728
O25   O     O_R   0.526220 0.841130 0.542590 -0.475545
O26   O     O_R   0.703030 0.997990 0.553710 -0.520474
S1    S     S_3+6 0.845946 0.266732 0.306798 -0.034723
O27   O     O_2   0.911983 0.348287 0.350868 -0.321768
O28   O     O_2   0.768038 0.147787 0.322250 -0.274560
O29   O     O_3   0.942742 0.262558 0.267464 -0.578002
H31   H     H_    0.007794 0.266664 0.287895 0.360158
N1    N     N_3   0.519227 0.599065 0.123444 -0.562809
H32   H     H_    0.436981 0.587037 0.112223 0.310935
H33   H     H_    0.515082 0.531391 0.141671 0.265832
S2    S     S_3+6 0.326975 0.548561 0.198843 -0.026390
O30   O     O_2   0.299407 0.611657 0.162653 -0.270979
O31   O     O_2   0.319879 0.439785 0.174153 -0.326402
O32   O     O_3   0.224005 0.509738 0.240695 -0.544413
H34   H     H_    0.152527 0.442333 0.224532 0.378203
N2    N     N_3   0.957675 0.638064 0.783792 -0.620862
H35   H     H_    0.905376 0.581637 0.754122 0.236765
H36   H     H_    0.904212 0.664698 0.802830 0.222713
N3    N     N_3   0.322353 0.014224 0.820446 -0.625090
H37   H     H_    0.385530 0.083159 0.802800 0.235666
H38   H     H_    0.367660 0.978814 0.837548 0.251211
S3    S     S_3+6 0.433629 0.757108 0.706330 -0.008661
O33   O     O_2   0.452158 0.871429 0.691975 -0.292619
O34   O     O_2   0.387033 0.668895 0.662719 -0.288006
O35   O     O_3   0.335102 0.712973 0.749913 -0.543269
H39   H     H_    0.257180 0.683598 0.732752 0.373138

loop_
_geom_bond_atom_site_label_1
_geom_bond_atom_site_label_2
_ccdc_geom_bond_type
C50   H11   S    
C66   C68   A    
C45   O3    A    
C15   H26   S    
Cr4   O14   S    
N3    H37   S    
C53   C55   A    
Cr3   O23   S    
C35   C36   A    
Cr5   O19   S    
C90   O18   A    
C87   O14   A    
C25   H30   S    
C72   C87   S    
C90   O13   A    
Cr6   O10   S    
C53   C54   A    
C52   C53   A    
Cr6   O19   S    
C46   C49   A    
C84   O8    A    
C76   H24   S    
C14   H29   S    
Cr1   O1    S    
C5    C6    S    
C33   C42   A    
C12   O21   A    
O29   H31   S    
C8    C85   S    
C29   C32   A    
C2    C3    A    
C52   C61   A    
C77   S3    S    
C38   C39   A    
C65   C69   A    
C57   H16   S    
Cr1   O5    S    
C45   O2    A    
C58   C60   A    
C15   C16   A    
C11   C24   A    
C16   C84   S    
Cr4   O7    S    
Cr3   O22   S    
C18   C19   A    
C23   C26   S    
C38   H8    S    
C86   O11   A    
C81   C83   T    
C11   C15   A    
C1    C43   S    
O35   H39   S    
S3    O34   D    
C66   H21   S    
C85   O10   A    
Cr2   O26   S    
C64   N2    S    
S1    O28   D    
C35   C43   A    
C75   C80   A    
C88   O17   A    
C18   C20   A    
S3    O35   S    
C63   H19   S    
Cr4   O19   S    
C40   C42   A    
C48   H13   S    
C23   O23   A    
C21   C22   A    
Cr2   O21   S    
N1    H33   S    
Cr4   O13   S    
N3    H38   S    
C46   C54   A    
C1    O20   A    
C42   N1    S    
C2    H20   S    
C4    C7    S    
Cr3   O3    S    
Cr2   O2    S    
C88   O16   A    
S2    O31   D    
C44   C46   A    
C9    C26   A    
S2    O30   D    
C47   C50   A    
C54   C59   A    
C44   H12   S    
C78   C89   A    
C74   H22   S    
C12   C67   S    
C84   O7    A    
C74   C75   A    
Cr2   O20   S    
N2    H36   S    
C75   H23   S    
C76   C77   A    
C10   C14   A    
Cr6   O11   S    
C13   H28   S    
C34   O26   A    
C6    C8    T    
C55   H17   S    
C50   C51   A    
C58   C59   A    
C47   C59   A    
C22   C25   A    
Cr5   O8    S    
Cr4   O6    S    
C3    C4    A    
C32   H4    S    
C65   N3    S    
C31   H7    S    
C33   C86   S    
C4    C78   A    
C29   C30   A    
Cr6   O18   S    
Cr1   O12   S    
C21   H1    S    
C47   C48   A    
C10   C19   A    
C30   H6    S    
Cr5   O9    S    
C17   C18   A    
C77   C79   A    
C64   C69   A    
C87   O15   A    
S1    O29   S    
C17   H3    S    
C85   O9    A    
C40   C41   A    
Cr5   O15   S    
C74   C79   A    
C55   C57   A    
N1    H32   S    
C22   C24   A    
C2    C5    A    
C39   S2    S    
C17   C26   A    
C56   O24   A    
Cr3   O4    S    
C73   C82   T    
C39   C40   A    
S2    O32   S    
S3    O33   D    
C23   O1    A    
C9    C10   A    
C16   C25   A    
C83   C90   S    
C63   C68   A    
O32   H34   S    
C29   C41   A    
C28   C31   A    
C76   C80   A    
C80   C81   S    
C51   C88   S    
C79   C82   S    
C34   O25   A    
C78   S1    S    
Cr2   O5    S    
C52   H18   S    
C44   C61   A    
C32   C33   A    
C12   O22   A    
C36   C38   A    
Cr1   O24   S    
C35   H10   S    
Cr3   O5    S    
Cr6   O17   S    
Cr1   O25   S    
C11   C13   A    
C86   O6    A    
C57   C58   A    
C30   C31   A    
N2    H35   S    
C28   C37   A    
C68   C71   S    
C48   C49   A    
C45   C61   S    
C9    H27   S    
C27   H5    S    
C62   C71   T    
C19   C24   A    
C56   C62   S    
C37   C41   A    
C69   C70   S    
C56   O4    A    
C34   C73   S    
C7    C67   T    
C63   C64   A    
C27   C43   A    
C20   H2    S    
C20   C21   A    
Cr5   O16   S    
C36   C37   A    
C65   C66   A    
C89   H9    S    
C27   C28   A    
C60   H15   S    
C70   C72   T    
C51   C60   A    
S1    O27   D    
C13   C14   A    
C5    C89   A    
C1    O12   A    
C3    H25   S    
C49   H14   S    
