data_mof_unit_189.cif
_audit_creation_date              2012-12-10T18:50:49-0500
_audit_creation_method            fapswitch 2.2
_symmetry_space_group_name_H-M    P1
_symmetry_Int_Tables_number       1
_space_group_crystal_system       triclinic
_cell_length_a                    10.607176
_cell_length_b                    9.998051
_cell_length_c                    15.737206
_cell_angle_alpha                 89.817805
_cell_angle_beta                  92.574992
_cell_angle_gamma                 90.121348
_cell_volume                      1667.25092914

loop_
_atom_site_label
_atom_site_type_symbol
_atom_type_description
_atom_site_fract_x
_atom_site_fract_y
_atom_site_fract_z
_atom_type_partial_charge
C1    C     C_R   0.261012 0.499876 0.499801 0.851179
C2    C     C_3   0.638792 0.494653 0.955297 0.546804
C3    C     C_3   0.638899 0.506703 0.055557 0.699189
C4    C     C_1   0.499155 0.499235 0.825286 0.298532
C5    C     C_1   0.497386 0.500847 0.174948 0.144393
C6    C     C_1   0.498695 0.500642 0.250159 -0.203311
C7    C     C_R   0.070122 0.499196 0.578805 0.444895
C8    C     C_R   0.059705 0.500294 0.420786 0.411013
C9    C     C_R   0.939453 0.499551 0.578461 0.097187
C10   C     C_R   0.929020 0.500782 0.421152 0.096486
C11   C     C_R   0.871605 0.500339 0.499827 -0.197670
C12   C     C_R   0.128501 0.499584 0.499800 -0.316794
C13   C     C_R   0.571481 0.070628 0.559135 0.445720
C14   C     C_R   0.570399 0.929077 0.559694 0.446850
C15   C     C_R   0.499640 0.500194 0.338776 0.863212
C16   C     C_R   0.429679 0.927914 0.439293 0.148040
C17   C     C_R   0.425900 0.071667 0.441308 0.162262
C18   C     C_R   0.738863 0.500119 0.499945 0.928519
C19   C     C_R   0.501063 0.499813 0.661344 0.847809
C20   C     C_3   0.421906 0.633386 0.046573 0.153172
C21   C     C_3   0.432244 0.361438 0.048207 0.110929
C22   C     C_3   0.422859 0.370250 0.946461 0.685267
C23   C     C_3   0.431798 0.633693 0.945347 0.660527
C24   C     C_1   0.500348 0.499393 0.750073 -0.099003
C25   C     C_3   0.495637 0.500653 0.083042 -0.013948
C26   C     C_3   0.497276 0.499399 0.917307 -0.083884
N1    N     N_R   0.499970 0.857200 0.499980 -0.192769
N2    N     N_R   0.499970 0.142800 0.499980 -0.192191
O1    O     O_R   0.316750 0.614620 0.499990 -0.610322
O2    O     O_R   0.316750 0.385380 0.499990 -0.612174
O3    O     O_R   0.499990 0.614720 0.377140 -0.621011
O4    O     O_R   0.499990 0.385280 0.377140 -0.621719
O5    O     O_R   0.683220 0.614710 0.500000 -0.636941
O6    O     O_R   0.683220 0.385290 0.500000 -0.636055
O7    O     O_R   0.499980 0.614620 0.622860 -0.601143
O8    O     O_R   0.499980 0.385380 0.622860 -0.608622
Zn1   Zn    Zn3+2 0.499980 0.653120 0.500000 0.955197
Zn2   Zn    Zn3+2 0.499980 0.346880 0.500000 0.955848
O9    O     O_3   0.312212 0.643761 0.902159 -0.765637
H1    H     H_    0.274813 0.731807 0.915300 0.342906
O10   O     O_3   0.297451 0.371679 0.911546 -0.717434
H2    H     H_    0.244841 0.432601 0.943211 0.360791
C27   C     C_3   0.363343 0.853487 0.366340 -0.739305
H3    H     H_    0.315565 0.763255 0.388290 0.274554
H4    H     H_    0.287192 0.909688 0.332188 0.202945
H5    H     H_    0.433016 0.828347 0.318458 0.231318
C28   C     C_3   0.337702 0.142689 0.378127 -0.754269
H6    H     H_    0.331215 0.249859 0.386491 0.284344
H7    H     H_    0.367527 0.125031 0.312339 0.209756
H8    H     H_    0.239725 0.106363 0.385152 0.217781
C29   C     C_3   0.281347 0.639307 0.073961 -0.873611
H9    H     H_    0.213232 0.587429 0.031096 0.239982
H10   H     H_    0.272075 0.603294 0.140166 0.257785
H11   H     H_    0.242324 0.742353 0.072234 0.239663
C30   C     C_3   0.303014 0.325830 0.087842 -0.844252
H12   H     H_    0.224721 0.395115 0.077491 0.233599
H13   H     H_    0.265821 0.229964 0.061158 0.253251
H14   H     H_    0.314985 0.312431 0.157895 0.244773
C31   C     C_3   0.513291 0.236031 0.077533 -0.663546
H15   H     H_    0.460925 0.140643 0.066626 0.195119
H16   H     H_    0.599841 0.222163 0.042019 0.318686
H17   H     H_    0.539287 0.239784 0.146665 0.244886
C32   C     C_3   0.477720 0.767416 0.085950 -0.691952
H18   H     H_    0.489419 0.761285 0.156283 0.235533
H19   H     H_    0.567400 0.801628 0.060257 0.304598
H20   H     H_    0.415131 0.854219 0.071170 0.182273
O11   O     O_3   0.479776 0.257377 0.910433 -0.704337
H21   H     H_    0.421943 0.179917 0.916369 0.367653
O12   O     O_3   0.506898 0.741358 0.917682 -0.682912
H22   H     H_    0.458204 0.825759 0.920402 0.339444
O13   O     O_3   0.695293 0.627558 0.083396 -0.768322
H23   H     H_    0.787490 0.624023 0.075409 0.341543
O14   O     O_3   0.709844 0.403162 0.096060 -0.774263
H24   H     H_    0.797230 0.406066 0.075966 0.352367
O15   O     O_3   0.708719 0.601098 0.921083 -0.704808
H25   H     H_    0.799788 0.581234 0.931683 0.342133
O16   O     O_3   0.695988 0.372671 0.933171 -0.754603
H26   H     H_    0.713057 0.376144 0.871680 0.365182
O17   O     O_3   0.136572 0.498541 0.656804 -0.720239
H27   H     H_    0.228542 0.497928 0.649813 0.341727
O18   O     O_3   0.115951 0.500649 0.342814 -0.779301
H28   H     H_    0.208913 0.499071 0.349804 0.316443
C33   C     C_3   0.871351 0.499035 0.661350 -0.728703
H29   H     H_    0.936118 0.498792 0.718643 0.295926
H30   H     H_    0.811070 0.589327 0.664685 0.221194
H31   H     H_    0.810856 0.408596 0.664638 0.213206
C34   C     C_3   0.849877 0.501634 0.338293 -0.717685
H32   H     H_    0.907000 0.502101 0.280992 0.284495
H33   H     H_    0.788787 0.411311 0.334861 0.225383
H34   H     H_    0.789363 0.592166 0.335181 0.222535
O19   O     O_3   0.647826 0.132021 0.620367 -0.687678
H35   H     H_    0.656583 0.226491 0.605081 0.371658
O20   O     O_3   0.645456 0.867220 0.621544 -0.680114
H36   H     H_    0.657271 0.773868 0.604948 0.372066

loop_
_geom_bond_atom_site_label_1
_geom_bond_atom_site_label_2
_ccdc_geom_bond_type
C30   H12   S    
C32   H19   S    
C11   C18   S    
O20   H36   S    
O10   H2    S    
C23   O12   S    
C34   H32   S    
O18   H28   S    
C15   O4    A    
C28   H7    S    
O16   H26   S    
O7    Zn1   S    
C21   C31   S    
C20   C29   S    
C19   O8    A    
C5    C6    T    
C4    C24   T    
C22   O10   S    
C20   C25   S    
O2    Zn2   S    
O14   H24   S    
C23   C26   S    
C8    O18   S    
O15   H25   S    
C6    C15   S    
C28   H6    S    
C16   C17   A    
C13   N2    A    
O4    Zn2   S    
C14   N1    A    
C14   O20   S    
C9    C11   A    
C16   N1    A    
C32   H20   S    
C31   H15   S    
C21   C22   S    
C13   O19   S    
C1    C12   S    
C27   H5    S    
C28   H8    S    
C7    C12   A    
C10   C34   S    
C31   H16   S    
O11   H21   S    
C3    C25   S    
O17   H27   S    
O9    H1    S    
C21   C30   S    
O5    Zn1   S    
C29   H9    S    
C29   H10   S    
C3    O13   S    
C27   H3    S    
C18   O6    A    
C33   H29   S    
C20   C23   S    
N2    Zn2   S    
C8    C12   A    
C1    O1    A    
C2    C26   S    
C27   H4    S    
C16   C27   S    
C9    C33   S    
C5    C25   S    
C33   H30   S    
C30   H13   S    
C30   H14   S    
O19   H35   S    
C7    O17   S    
C7    C9    A    
C21   C25   S    
C31   H17   S    
O6    Zn2   S    
C17   N2    A    
C17   C28   S    
C4    C26   S    
C15   O3    A    
C29   H11   S    
C20   C32   S    
O8    Zn2   S    
C2    C3    S    
O13   H23   S    
C2    O16   S    
C19   O7    A    
N1    Zn1   S    
C23   O9    S    
C1    O2    A    
C19   C24   S    
O12   H22   S    
C3    O14   S    
C18   O5    A    
C22   O11   S    
C10   C11   A    
C32   H18   S    
O3    Zn1   S    
C33   H31   S    
C8    C10   A    
C22   C26   S    
C34   H34   S    
O1    Zn1   S    
C34   H33   S    
C13   C14   A    
C2    O15   S    
