data_mof_unit_1961.cif
_audit_creation_date              2013-03-05T16:09:55-0500
_audit_creation_method            fapswitch 2.2
_symmetry_space_group_name_H-M    P1
_symmetry_Int_Tables_number       1
_space_group_crystal_system       triclinic
_cell_length_a                    10.881279
_cell_length_b                    10.071999
_cell_length_c                    10.980848
_cell_angle_alpha                 91.119564
_cell_angle_beta                  97.422958
_cell_angle_gamma                 89.843275
_cell_volume                      1193.14609013

loop_
_atom_site_label
_atom_site_type_symbol
_atom_site_description
_atom_site_fract_x
_atom_site_fract_y
_atom_site_fract_z
_atom_type_partial_charge
O1    O     O_R   0.316770 0.614620 0.499990 -0.547442
O2    O     O_R   0.683230 0.614620 0.500010 -0.561050
O3    O     O_R   0.316800 0.385290 0.500000 -0.642757
O4    O     O_R   0.683200 0.385290 0.500000 -0.639617
C1    C     C_R   0.260126 0.500767 0.497143 0.890134
C2    C     C_R   0.739744 0.500486 0.501545 0.894756
O5    O     O_R   0.500010 0.614690 0.316770 -0.583453
O6    O     O_R   0.499990 0.614690 0.683230 -0.585794
O7    O     O_R   0.500040 0.385360 0.316770 -0.650586
O8    O     O_R   0.499960 0.385360 0.683230 -0.642087
C3    C     C_R   0.504159 0.499636 0.260897 0.873829
C4    C     C_R   0.497764 0.501405 0.739678 0.878899
Zn1   Zn    Zn3+2 0.500000 0.653120 0.500000 1.078622
Zn2   Zn    Zn3+2 0.500000 0.346880 0.500000 0.924757
C5    C     C_R   0.606998 0.728923 0.118062 0.183662
C6    C     C_R   0.441151 0.748159 0.900295 0.191147
C7    C     C_R   0.580673 0.852662 0.064154 -0.078629
C8    C     C_R   0.487581 0.862927 0.964897 0.006887
H1    H     H_    0.627120 0.941903 0.102527 0.126139
H2    H     H_    0.457575 0.960342 0.933586 0.131879
C9    C     C_R   0.487217 0.623499 0.942692 -0.014491
C10   C     C_R   0.537606 0.617301 0.066901 0.062363
C11   C     C_R   0.510741 0.499969 0.128625 -0.187826
C12   C     C_R   0.491760 0.503529 0.872453 -0.180325
C13   C     C_R   0.473924 0.387220 0.055239 0.098976
C14   C     C_R   0.506904 0.384232 0.938380 0.184210
C15   C     C_R   0.061848 0.384672 0.488663 -0.230054
C16   C     C_R   0.934550 0.385530 0.480197 -0.240957
H3    H     H_    0.108649 0.290918 0.487737 0.197784
H4    H     H_    0.885407 0.293987 0.459110 0.193920
C17   C     C_R   0.872449 0.503436 0.500372 -0.202258
C18   C     C_R   0.126926 0.504116 0.494578 -0.203754
C19   C     C_R   0.938968 0.623505 0.515004 0.258342
C20   C     C_R   0.062210 0.624980 0.498538 0.246290
C21   C     C_R   0.581954 0.072414 0.580845 0.079633
C22   C     C_R   0.419417 0.068460 0.417802 0.086854
C23   C     C_R   0.572228 0.930370 0.589785 0.291545
C24   C     C_R   0.429332 0.926107 0.409710 0.322809
N1    N     N_R   0.500000 0.857200 0.500000 -0.212498
N2    N     N_R   0.500000 0.142810 0.500000 -0.147716
C25   C     C_3   0.393990 0.277450 0.092346 -0.409970
C26   C     C_3   0.302170 0.220344 0.986546 -0.867818
H5    H     H_    0.243906 0.300992 0.941873 0.268415
H6    H     H_    0.351042 0.168747 0.916755 0.251045
H7    H     H_    0.240500 0.147316 0.022764 0.265147
H8    H     H_    0.455714 0.197713 0.133349 0.221864
H9    H     H_    0.335022 0.319797 0.158194 0.219609
C27   C     C_3   0.589772 0.270611 0.909418 -0.384807
C28   C     C_3   0.723511 0.319894 0.913368 -0.867130
H10   H     H_    0.733040 0.384799 0.834628 0.260419
H11   H     H_    0.751619 0.377053 0.999759 0.263300
H12   H     H_    0.788530 0.235036 0.912221 0.258847
H13   H     H_    0.591755 0.192166 0.979518 0.210617
H14   H     H_    0.552266 0.219948 0.822995 0.226264
C29   C     C_3   0.722064 0.716937 0.210685 -0.375319
C30   C     C_3   0.810366 0.609362 0.174413 -0.840707
H15   H     H_    0.828333 0.621740 0.077955 0.279751
H16   H     H_    0.899847 0.616445 0.235418 0.282978
H17   H     H_    0.770933 0.509449 0.185108 0.233900
H18   H     H_    0.773911 0.812370 0.219479 0.242851
H19   H     H_    0.697728 0.697303 0.302012 0.264917
C31   C     C_3   0.329965 0.761112 0.803841 -0.368296
C32   C     C_3   0.219429 0.818768 0.859998 -0.756738
H20   H     H_    0.238007 0.922406 0.893285 0.247484
H21   H     H_    0.136934 0.819698 0.789770 0.311580
H22   H     H_    0.198444 0.757138 0.937586 0.272029
H23   H     H_    0.354082 0.826794 0.730415 0.247164
H24   H     H_    0.300343 0.663098 0.762417 0.211473
N3    N     N_R   0.887057 0.744789 0.554006 0.257879
O9    O     O_R   0.832666 0.824877 0.472484 -0.413197
O10   O     O_R   0.928711 0.791617 0.662632 -0.391449
N4    N     N_R   0.112633 0.749325 0.469174 0.261084
O11   O     O_R   0.173973 0.822011 0.555287 -0.413488
O12   O     O_R   0.062071 0.806264 0.369789 -0.380601
C33   C     C_3   0.691451 0.142731 0.652242 -0.386517
C34   C     C_3   0.811751 0.108295 0.602819 -0.729183
H25   H     H_    0.798672 0.104872 0.500872 0.264498
H26   H     H_    0.884377 0.181127 0.638954 0.229706
H27   H     H_    0.843938 0.010552 0.636789 0.333695
H28   H     H_    0.677574 0.249611 0.655020 0.264205
H29   H     H_    0.704680 0.117733 0.749016 0.247181
C35   C     C_3   0.317054 0.135195 0.335518 -0.418314
C36   C     C_3   0.188513 0.091872 0.358874 -0.733450
H30   H     H_    0.182961 0.082624 0.458628 0.279489
H31   H     H_    0.118447 0.163613 0.317281 0.221724
H32   H     H_    0.166102 0.995899 0.311425 0.328496
H33   H     H_    0.324195 0.242745 0.343332 0.258290
H34   H     H_    0.323831 0.110235 0.239445 0.238910
N5    N     N_R   0.636826 0.865920 0.695558 0.225836
O13   O     O_R   0.691753 0.753085 0.686734 -0.298734
O14   O     O_R   0.643257 0.920916 0.803782 -0.489030
N6    N     N_R   0.368154 0.856079 0.303559 0.223260
O15   O     O_R   0.295229 0.756881 0.314092 -0.320640
O16   O     O_R   0.379258 0.896067 0.193990 -0.480664

loop_
_geom_bond_atom_site_label_1
_geom_bond_atom_site_label_2
_geom_bond_distance
_ccdc_geom_bond_type
C29   C30   1.527139 S    
C32   H21   1.105417 S    
C6    C9    1.415480 A    
C15   H3    1.072129 S    
C25   C26   1.534889 S    
C34   H27   1.099857 S    
O7    Zn2   2.056488 S    
C27   H14   1.099846 S    
C21   C33   1.509114 S    
O6    Zn1   2.056341 S    
C6    C31   1.508634 S    
C31   H23   1.110447 S    
O1    C1    1.301291 A    
C21   C23   1.441055 A    
C12   C14   1.413186 A    
C24   N1    1.372210 A    
C35   H33   1.087168 S    
C24   N6    1.438491 S    
C30   H15   1.111052 S    
C3    C11   1.463506 S    
N3    O10   1.300066 A    
O2    Zn1   2.030080 S    
C5    C10   1.421285 A    
C22   C35   1.506122 S    
C28   H11   1.108858 S    
C25   H8    1.109887 S    
C17   C19   1.406894 A    
N5    O14   1.294984 A    
C33   H28   1.087006 S    
C19   N3    1.425839 S    
C1    C18   1.446328 S    
C2    C17   1.446116 S    
C32   H22   1.111326 S    
C9    C10   1.405248 A    
O2    C2    1.301588 A    
C26   H6    1.108348 S    
C19   C20   1.376287 A    
C27   H13   1.112041 S    
C22   N2    1.384560 A    
C34   H25   1.109954 S    
N4    O12   1.300068 A    
O8    Zn2   2.041615 S    
C13   C25   1.503112 S    
C23   N5    1.442396 S    
C33   H29   1.088162 S    
C13   C14   1.376132 A    
C26   H7    1.110211 S    
C18   C20   1.407429 A    
O5    C3    1.304002 A    
C33   C34   1.517255 S    
C31   C32   1.529041 S    
C36   H30   1.110545 S    
O6    C4    1.310860 A    
C28   H12   1.108942 S    
N6    O16   1.296598 A    
C7    C8    1.394015 A    
C25   H9    1.105797 S    
O7    C3    1.318403 A    
O3    Zn2   2.029604 S    
O8    C4    1.313872 A    
O4    C2    1.313572 A    
C27   C28   1.533892 S    
C36   H31   1.109905 S    
C35   C36   1.520825 S    
O1    Zn1   2.032162 S    
C26   H5    1.111201 S    
C20   N4    1.427850 S    
C5    C7    1.403140 A    
C15   C18   1.393809 A    
C16   C17   1.392840 A    
C34   H26   1.109444 S    
N4    O11   1.299290 A    
O3    C1    1.313983 A    
C14   C27   1.509330 S    
C4    C12   1.467585 S    
C30   H17   1.109321 S    
C31   H24   1.109809 S    
C16   H4    1.073332 S    
C21   N2    1.379358 A    
C23   N1    1.381089 A    
C35   H34   1.091433 S    
C29   H19   1.091596 S    
C22   C24   1.439414 A    
N6    O15   1.293772 A    
C7    H1    1.083298 S    
C30   H16   1.109881 S    
C8    H2    1.081630 S    
C11   C13   1.408114 A    
O4    Zn2   2.031681 S    
N3    O9    1.300386 A    
Zn1   N1    2.055494 S    
Zn2   N2    2.055394 S    
C32   H20   1.109600 S    
O5    Zn1   2.041489 S    
C36   H32   1.101857 S    
C6    C8    1.404716 A    
C28   H10   1.109643 S    
C9    C12   1.424951 A    
C15   C16   1.376255 A    
C10   C11   1.423308 A    
N5    O13   1.290401 A    
C29   H18   1.112102 S    
C5    C29   1.513810 S    
