data_mof_unit_1710.cif
_audit_creation_date              2012-12-10T18:12:37-0500
_audit_creation_method            fapswitch 2.2
_symmetry_space_group_name_H-M    P1
_symmetry_Int_Tables_number       1
_space_group_crystal_system       triclinic
_cell_length_a                    12.614857
_cell_length_b                    13.07327
_cell_length_c                    15.707527
_cell_angle_alpha                 91.586591
_cell_angle_beta                  103.313748
_cell_angle_gamma                 80.587033
_cell_volume                      2486.74659472

loop_
_atom_site_label
_atom_site_type_symbol
_atom_type_description
_atom_site_fract_x
_atom_site_fract_y
_atom_site_fract_z
_atom_type_partial_charge
C1    C     C_R   0.437339 0.691924 0.487356 0.850385
C2    C     C_3   0.503505 0.494630 0.917782 0.214844
C3    C     C_3   0.452758 0.415151 0.016277 -0.167240
C4    C     C_3   0.498102 0.494806 0.082114 0.208482
C5    C     C_3   0.559120 0.404699 0.981325 -0.169877
C6    C     C_3   0.604451 0.484353 0.048985 -0.164114
C7    C     C_1   0.505163 0.495557 0.827057 -0.083948
C8    C     C_1   0.495844 0.495791 0.172830 -0.083449
C9    C     C_R   0.703950 0.052195 0.448718 -0.236908
C10   C     C_R   0.606206 0.194923 0.515718 -0.113123
C11   C     C_R   0.294599 0.844622 0.497556 -0.188212
C12   C     C_R   0.501688 0.499575 0.661955 0.912270
C13   C     C_R   0.264968 0.951642 0.503299 -0.144312
C14   C     C_R   0.340086 0.016947 0.497043 -0.223839
C15   C     C_R   0.445128 0.975567 0.482627 0.095529
C16   C     C_R   0.463236 0.870883 0.457836 0.107028
C17   C     C_R   0.531353 0.034744 0.488043 0.014620
C18   C     C_R   0.618964 0.995999 0.447054 0.091791
C19   C     C_R   0.624025 0.899005 0.407783 -0.256046
C20   C     C_R   0.548341 0.836170 0.414544 -0.194461
C21   C     C_R   0.536173 0.129234 0.534113 0.082033
C22   C     C_R   0.701958 0.150237 0.486208 0.124763
C23   C     C_R   0.563406 0.307473 0.511069 0.844797
C24   C     C_R   0.395445 0.803403 0.476970 -0.124139
C25   C     C_R   0.088513 0.351530 0.371928 -0.322816
C26   C     C_R   0.799721 0.629440 0.604955 0.488829
C27   C     C_R   0.895007 0.675266 0.609873 0.300430
C28   C     C_R   0.974689 0.628413 0.566858 -0.349770
C29   C     C_R   0.956623 0.542028 0.513134 -0.054488
C30   C     C_R   0.851875 0.510772 0.498046 0.124422
C31   C     C_R   0.037768 0.486516 0.472928 0.041224
C32   C     C_R   0.009216 0.408370 0.411269 0.195091
C33   C     C_R   0.902512 0.385990 0.391202 -0.286376
C34   C     C_R   0.498497 0.499359 0.338022 0.878858
C35   C     C_R   0.826175 0.434102 0.436306 -0.175740
C36   C     C_R   0.147876 0.502472 0.493960 -0.060085
C37   C     C_R   0.195866 0.371182 0.395422 0.006200
C38   C     C_3   0.442548 0.584702 0.018500 -0.163014
C39   C     C_3   0.548868 0.574251 0.983628 -0.166590
C40   C     C_1   0.504822 0.497316 0.751581 -0.202016
C41   C     C_1   0.495793 0.497283 0.248331 -0.185648
C42   C     C_3   0.397198 0.505082 0.950913 -0.158393
H1    H     H_    0.588260 0.639228 0.968179 0.135222
H2    H     H_    0.239841 0.794285 0.510593 0.151677
H3    H     H_    0.314949 0.099481 0.502618 0.140832
H4    H     H_    0.185727 0.983757 0.516528 0.143827
H5    H     H_    0.556006 0.760683 0.384382 0.162829
H6    H     H_    0.258610 0.328505 0.365536 0.137977
H7    H     H_    0.879592 0.327322 0.343477 0.143053
H8    H     H_    0.067967 0.291963 0.324443 0.146121
H9    H     H_    0.177680 0.558366 0.541371 0.129908
H10   H     H_    0.394754 0.658247 0.035747 0.134646
H11   H     H_    0.048187 0.663175 0.574579 0.180154
H12   H     H_    0.749072 0.406523 0.424234 0.201752
H13   H     H_    0.689126 0.475882 0.091243 0.134610
H14   H     H_    0.606880 0.331212 0.963932 0.132154
H15   H     H_    0.413334 0.350196 0.031725 0.133234
H16   H     H_    0.312524 0.513570 0.908654 0.137222
H17   H     H_    0.689685 0.869638 0.375208 0.145445
H18   H     H_    0.772041 0.019512 0.419800 0.147786
N1    N     N_R   0.222180 0.444680 0.455580 -0.104560
N2    N     N_R   0.776980 0.554790 0.543960 -0.178448
O1    O     O_R   0.366730 0.627160 0.478790 -0.617002
O2    O     O_R   0.544830 0.662520 0.507160 -0.567460
O3    O     O_R   0.410960 0.482330 0.609040 -0.613470
O4    O     O_R   0.589060 0.517690 0.637410 -0.553187
O5    O     O_R   0.455170 0.337480 0.492840 -0.609882
O6    O     O_R   0.633270 0.372840 0.521210 -0.649931
O7    O     O_R   0.410940 0.482310 0.362590 -0.606847
O8    O     O_R   0.589040 0.517670 0.390960 -0.638256
Zn1   Zn    Zn3+2 0.381080 0.476390 0.481050 0.936895
Zn2   Zn    Zn3+2 0.618920 0.523610 0.518950 0.958965
C43   C     C_3   0.484079 0.153702 0.612793 -0.410496
C44   C     C_3   0.566552 0.182904 0.693989 -0.864012
H19   H     H_    0.640365 0.121440 0.709581 0.260555
H20   H     H_    0.592666 0.257895 0.684182 0.248880
H21   H     H_    0.527232 0.191212 0.750754 0.246762
H22   H     H_    0.412579 0.217367 0.596640 0.227944
H23   H     H_    0.454749 0.084877 0.633150 0.219240
O9    O     O_3   0.723609 0.663245 0.655319 -0.582539
C45   C     C_3   0.776023 0.673641 0.744673 0.144082
H24   H     H_    0.784063 0.756073 0.758031 0.182987
H25   H     H_    0.859122 0.624647 0.764479 0.131423
C46   C     C_3   0.705662 0.642656 0.803000 -0.856985
H26   H     H_    0.708542 0.557425 0.800769 0.260837
H27   H     H_    0.738823 0.664343 0.871683 0.198914
H28   H     H_    0.619094 0.682665 0.781370 0.266032
O10   O     O_3   0.913746 0.762516 0.659166 -0.625513
C47   C     C_3   0.843921 0.850043 0.615087 0.116816
H29   H     H_    0.755969 0.838607 0.595778 0.173547
H30   H     H_    0.871459 0.867989 0.555519 0.144846
C48   C     C_3   0.849402 0.942743 0.675602 -0.848243
H31   H     H_    0.934638 0.961014 0.692452 0.258120
H32   H     H_    0.791513 0.010848 0.642868 0.233358
H33   H     H_    0.825202 0.925891 0.736701 0.244001
C49   C     C_3   0.802972 0.201421 0.492497 -0.397890
C50   C     C_3   0.909866 0.136059 0.542823 -0.891096
H34   H     H_    0.906714 0.127804 0.612224 0.264345
H35   H     H_    0.925682 0.058301 0.513908 0.253905
H36   H     H_    0.980502 0.176221 0.541238 0.254124
H37   H     H_    0.810957 0.215498 0.425197 0.197616
H38   H     H_    0.798340 0.274591 0.528474 0.246179

loop_
_geom_bond_atom_site_label_1
_geom_bond_atom_site_label_2
_ccdc_geom_bond_type
C3    C42   S    
C49   H38   S    
C43   C44   S    
C5    H14   S    
C19   C20   A    
C46   H28   S    
C6    H13   S    
C4    C8    S    
C42   H16   S    
C45   H24   S    
C10   C22   A    
C26   C27   A    
C44   H20   S    
C30   C35   A    
C5    C6    S    
C28   C29   A    
C46   H27   S    
C38   C42   S    
C31   C36   A    
C13   H4    S    
C9    C22   A    
C38   H10   S    
C33   H7    S    
C15   C16   A    
C21   C43   S    
C11   C24   A    
C18   C19   A    
C23   O5    A    
O7    Zn1   S    
C25   H8    S    
C50   H35   S    
C2    C39   S    
O4    Zn2   S    
C2    C7    S    
C44   H21   S    
C7    C40   T    
C47   H30   S    
C34   O8    A    
C16   C20   A    
C25   C37   A    
N1    Zn1   S    
C25   C32   A    
C16   C24   A    
C49   H37   S    
C35   H12   S    
C34   C41   S    
C1    O1    A    
C45   H25   S    
C50   H34   S    
C14   H3    S    
C10   C21   A    
C44   H19   S    
C8    C41   T    
C4    C6    S    
C39   H1    S    
C19   H17   S    
O3    Zn1   S    
C43   H22   S    
C12   O4    A    
C48   H33   S    
C26   O9    S    
C37   H6    S    
C23   O6    A    
C12   C40   S    
C29   C30   A    
C31   C32   A    
O6    Zn2   S    
C49   C50   S    
C48   H32   S    
C17   C18   A    
C43   H23   S    
N2    Zn2   S    
C11   H2    S    
C46   H26   S    
C47   C48   S    
C34   O7    A    
C36   H9    S    
C3    H15   S    
C4    C38   S    
C30   N2    A    
C2    C5    S    
C36   N1    A    
C1    O2    A    
C45   C46   S    
C15   C17   A    
C50   H36   S    
C14   C15   A    
C22   C49   S    
O1    Zn1   S    
O9    C45   S    
C3    C5    S    
C37   N1    A    
C28   H11   S    
C10   C23   S    
C12   O3    A    
C9    H18   S    
C32   C33   A    
C26   N2    A    
C29   C31   A    
C11   C13   A    
C38   C39   S    
C2    C42   S    
C48   H31   S    
C33   C35   A    
O5    Zn1   S    
O2    Zn2   S    
C27   O10   S    
C17   C21   A    
C20   H5    S    
C9    C18   A    
O10   C47   S    
C1    C24   S    
C27   C28   A    
C6    C39   S    
O8    Zn2   S    
C47   H29   S    
C13   C14   A    
C3    C4    S    
