data_mof_unit_4855.cif
_audit_creation_date              2012-12-10T17:14:11-0500
_audit_creation_method            fapswitch 2.2
_symmetry_space_group_name_H-M    P1
_symmetry_Int_Tables_number       1
_space_group_crystal_system       triclinic
_cell_length_a                    15.90793
_cell_length_b                    13.00283
_cell_length_c                    11.736238
_cell_angle_alpha                 100.388818
_cell_angle_beta                  94.268505
_cell_angle_gamma                 91.174459
_cell_volume                      2379.77447288

loop_
_atom_site_label
_atom_site_type_symbol
_atom_type_description
_atom_site_fract_x
_atom_site_fract_y
_atom_site_fract_z
_atom_type_partial_charge
C1    C     C_R   0.501458 0.299303 0.478343 0.813185
C2    C     C_3   0.952160 0.415327 0.554764 -0.579785
C3    C     C_3   0.916741 0.505481 0.496025 0.124331
C4    C     C_3   0.955416 0.608874 0.573446 0.163637
C5    C     C_3   0.054138 0.614171 0.568557 0.542610
C6    C     C_1   0.824520 0.503033 0.499081 -0.025875
C7    C     C_1   0.175376 0.503037 0.499524 0.102678
C8    C     C_1   0.250757 0.501198 0.499570 -0.154955
C9    C     C_R   0.506041 0.814626 0.535788 -0.090385
C10   C     C_R   0.504237 0.185719 0.466487 -0.068658
C11   C     C_R   0.460033 0.015447 0.358088 -0.199329
C12   C     C_R   0.340246 0.499864 0.499839 0.834872
C13   C     C_R   0.464065 0.123000 0.367352 -0.232269
C14   C     C_R   0.543474 0.139917 0.556478 0.108087
C15   C     C_R   0.526540 0.032506 0.556376 0.136061
C16   C     C_R   0.489424 0.969940 0.451979 0.094562
C17   C     C_R   0.481438 0.862029 0.441931 -0.245619
C18   C     C_R   0.534320 0.875880 0.642709 -0.207971
C19   C     C_R   0.543297 0.984626 0.655600 0.179118
C20   C     C_R   0.410996 0.410370 0.021590 -0.004224
C21   C     C_R   0.423929 0.414663 0.144484 0.617712
C22   C     C_R   0.537895 0.536630 0.157796 -0.071335
C23   C     C_R   0.501637 0.700936 0.521917 0.805111
C24   C     C_R   0.532893 0.528953 0.034886 -0.032821
C25   C     C_R   0.467711 0.466860 0.965547 -0.039688
C26   C     C_R   0.461478 0.462608 0.842365 -0.009990
C27   C     C_R   0.579884 0.580663 0.858611 0.373402
C28   C     C_R   0.591695 0.582483 0.980788 0.106773
C29   C     C_R   0.659725 0.500138 0.500139 0.808227
C30   C     C_3   0.049216 0.411162 0.550307 0.081101
C31   C     C_3   0.044056 0.489221 0.370642 0.172515
C32   C     C_3   0.944382 0.492672 0.366469 0.286471
C33   C     C_1   0.749190 0.501432 0.500355 -0.199077
C34   C     C_3   0.082986 0.505896 0.499496 0.138690
Cu1   Cu    Cu3+1 0.506190 0.507730 0.615930 0.938100
Cu2   Cu    Cu3+1 0.493810 0.492270 0.384070 0.985266
H1    H     H_    0.922117 0.338484 0.513374 0.187347
H2    H     H_    0.935821 0.427081 0.646782 0.210727
H3    H     H_    0.455644 0.814755 0.360584 0.163796
H4    H     H_    0.549250 0.838806 0.717001 0.161455
H5    H     H_    0.430500 0.968036 0.279205 0.148231
H6    H     H_    0.435647 0.157246 0.296804 0.175290
H7    H     H_    0.413666 0.413390 0.787011 0.161509
H8    H     H_    0.063620 0.337369 0.491132 0.120330
H9    H     H_    0.584485 0.587073 0.213920 0.167723
H10   H     H_    0.062972 0.410038 0.327788 0.075903
H11   H     H_    0.941007 0.607046 0.664948 0.089897
N1    N     N_R   0.515490 0.519350 0.790130 -0.200198
N2    N     N_R   0.484510 0.480650 0.209890 -0.210326
O1    O     O_R   0.504390 0.354460 0.582000 -0.581122
O2    O     O_R   0.493940 0.341410 0.386200 -0.549765
O3    O     O_R   0.384660 0.506540 0.597940 -0.585139
O4    O     O_R   0.374210 0.493480 0.402140 -0.513959
O5    O     O_R   0.506060 0.658590 0.613800 -0.598126
O6    O     O_R   0.495610 0.645540 0.418000 -0.587781
O7    O     O_R   0.625790 0.506520 0.597860 -0.585737
O8    O     O_R   0.615340 0.493460 0.402060 -0.584338
O9    O     O_3   0.088995 0.408381 0.660639 -0.728437
H12   H     H_    0.074857 0.338727 0.678950 0.336997
O10   O     O_3   0.918275 0.698296 0.542201 -0.738729
H13   H     H_    0.864679 0.708430 0.580448 0.323483
C35   C     C_3   0.559598 0.045485 0.778064 -0.877374
H14   H     H_    0.544836 0.996929 0.843301 0.227822
H15   H     H_    0.626867 0.070934 0.796718 0.235950
H16   H     H_    0.517956 0.113325 0.791990 0.239355
C36   C     C_3   0.614327 0.200307 0.636095 -0.823171
H17   H     H_    0.644046 0.260552 0.594431 0.224034
H18   H     H_    0.590732 0.239929 0.718801 0.247408
H19   H     H_    0.666225 0.147868 0.652412 0.224674
C37   C     C_3   0.640537 0.649520 0.809462 -0.792127
H20   H     H_    0.704403 0.616644 0.811589 0.207070
H21   H     H_    0.625627 0.661853 0.721634 0.263287
H22   H     H_    0.642817 0.729955 0.861627 0.192999
C38   C     C_3   0.335565 0.350657 0.952162 -0.893955
H23   H     H_    0.288822 0.324198 0.007035 0.247850
H24   H     H_    0.300899 0.402249 0.900540 0.251735
H25   H     H_    0.357011 0.281526 0.892729 0.231575
C39   C     C_3   0.667194 0.640044 0.055051 -0.907970
H26   H     H_    0.716546 0.669507 0.006578 0.242175
H27   H     H_    0.645262 0.708026 0.115746 0.234648
H28   H     H_    0.700005 0.586037 0.105444 0.232534
O11   O     O_3   0.376103 0.353326 0.200967 -0.708717
H29   H     H_    0.366430 0.283830 0.150302 0.293821
O12   O     O_3   0.079619 0.562265 0.311057 -0.663263
H30   H     H_    0.072826 0.531547 0.226926 0.322887
C40   C     C_3   0.906431 0.389223 0.290614 -0.916960
H31   H     H_    0.836455 0.386625 0.287426 0.255022
H32   H     H_    0.924589 0.382093 0.199938 0.231236
H33   H     H_    0.929989 0.319187 0.322725 0.217937
C41   C     C_3   0.910871 0.582452 0.305500 -0.627564
H34   H     H_    0.944147 0.658354 0.341166 0.300847
H35   H     H_    0.920671 0.565725 0.211259 0.192385
H36   H     H_    0.842185 0.591828 0.313131 0.207643
C42   C     C_3   0.097213 0.641241 0.694254 -0.858973
H37   H     H_    0.077148 0.586420 0.749862 0.262448
H38   H     H_    0.166971 0.642148 0.693987 0.249954
H39   H     H_    0.079358 0.720268 0.736869 0.208686
O13   O     O_3   0.077959 0.693776 0.508496 -0.641116
H40   H     H_    0.065275 0.762820 0.554415 0.355644

loop_
_geom_bond_atom_site_label_1
_geom_bond_atom_site_label_2
_ccdc_geom_bond_type
C27   N1    A    
C36   H18   S    
Cu1   Cu2   S    
C2    H1    S    
C3    C6    S    
Cu2   O2    S    
C21   N2    A    
C5    C42   S    
C7    C8    T    
C15   C19   A    
C38   H24   S    
C41   H36   S    
C39   H27   S    
C5    O13   S    
C36   H19   S    
C20   C25   A    
C19   C35   S    
C15   C16   A    
C29   C33   S    
C18   C19   A    
C17   H3    S    
C18   H4    S    
C35   H15   S    
Cu2   O4    S    
C32   C41   S    
C16   C17   A    
C38   H25   S    
C37   H20   S    
C28   C39   S    
C1    O1    A    
C12   O4    A    
C26   N1    A    
C36   H17   S    
Cu1   O5    S    
C30   H8    S    
C3    C32   S    
Cu1   O1    S    
Cu1   N1    S    
C13   H6    S    
C12   O3    A    
C26   H7    S    
C38   H23   S    
C30   C34   S    
C24   C25   A    
Cu2   O8    S    
C10   C14   A    
C39   H26   S    
C9    C23   S    
C42   H39   S    
O9    H12   S    
C31   H10   S    
C31   O12   S    
C40   H33   S    
O10   H13   S    
C35   H14   S    
C11   C16   A    
C2    H2    S    
C41   H35   S    
C31   C32   S    
C8    C12   S    
C32   C40   S    
C5    C34   S    
C4    O10   S    
C37   H22   S    
C14   C36   S    
C31   C34   S    
C20   C38   S    
O12   H30   S    
C42   H38   S    
C1    O2    A    
C27   C37   S    
C22   N2    A    
C9    C17   A    
C29   O8    A    
O11   H29   S    
C7    C34   S    
C22   C24   A    
C3    C4    S    
Cu1   O3    S    
C23   O5    A    
C35   H16   S    
Cu1   O7    S    
C40   H31   S    
C1    C10   S    
C24   C28   A    
C4    C5    S    
C10   C13   A    
C23   O6    A    
C29   O7    A    
C6    C33   T    
C2    C30   S    
C2    C3    S    
C25   C26   A    
Cu2   O6    S    
C11   C13   A    
C39   H28   S    
C41   H34   S    
C30   O9    S    
C11   H5    S    
C40   H32   S    
C42   H37   S    
C9    C18   A    
C22   H9    S    
C21   O11   S    
C20   C21   A    
O13   H40   S    
C27   C28   A    
C14   C15   A    
C37   H21   S    
Cu2   N2    S    
C4    H11   S    
