data_mof_unit_1960.cif
_audit_creation_date              2012-12-10T17:24:12-0500
_audit_creation_method            fapswitch 2.2
_symmetry_space_group_name_H-M    P1
_symmetry_Int_Tables_number       1
_space_group_crystal_system       triclinic
_cell_length_a                    19.340728
_cell_length_b                    10.839484
_cell_length_c                    9.595949
_cell_angle_alpha                 89.804836
_cell_angle_beta                  90.425324
_cell_angle_gamma                 93.99368
_cell_volume                      2006.77973296

loop_
_atom_site_label
_atom_site_type_symbol
_atom_type_description
_atom_site_fract_x
_atom_site_fract_y
_atom_site_fract_z
_atom_type_partial_charge
C1    C     C_R   0.504035 0.262551 0.501103 0.780679
C2    C     C_R   0.291443 0.497689 0.497876 -0.021103
C3    C     C_R   0.930632 0.509015 0.493707 0.472886
C4    C     C_R   0.070703 0.507718 0.491412 0.378016
C5    C     C_R   0.818146 0.501703 0.624752 0.350131
C6    C     C_R   0.745951 0.498736 0.625129 -0.169068
C7    C     C_R   0.708420 0.498710 0.499842 -0.153262
C8    C     C_R   0.743930 0.500379 0.373241 -0.269834
C9    C     C_R   0.816209 0.508499 0.370420 0.433034
C10   C     C_R   0.854289 0.507130 0.496795 -0.143955
C11   C     C_R   0.525585 0.113578 0.762365 -0.151063
C12   C     C_R   0.367481 0.498463 0.499506 0.785231
C13   C     C_R   0.508851 0.052948 0.886695 -0.238692
C14   C     C_R   0.469553 0.940940 0.884323 -0.236480
C15   C     C_R   0.452062 0.882520 0.756502 0.471662
C16   C     C_R   0.480153 0.935235 0.630935 0.034162
C17   C     C_R   0.504623 0.060713 0.632814 0.044304
C18   C     C_R   0.506722 0.127615 0.504967 -0.089904
C19   C     C_R   0.501356 0.063292 0.378633 -0.198121
C20   C     C_R   0.494093 0.935591 0.378047 -0.225918
C21   C     C_R   0.485053 0.869806 0.503237 -0.089932
C22   C     C_R   0.582081 0.679021 0.152413 -0.151984
C23   C     C_R   0.492950 0.736267 0.500410 0.890712
C24   C     C_R   0.609480 0.786204 0.092596 -0.332666
C25   C     C_R   0.607308 0.798462 0.951429 -0.179746
C26   C     C_R   0.582249 0.699819 0.867563 0.402021
C27   C     C_R   0.540661 0.593894 0.926670 0.124658
C28   C     C_R   0.540432 0.589971 0.077038 0.157098
C29   C     C_R   0.461645 0.414243 0.073353 -0.067850
C30   C     C_R   0.462018 0.413710 0.925704 -0.088353
C31   C     C_R   0.632384 0.497923 0.500152 0.887034
C32   C     C_R   0.255480 0.520541 0.620433 -0.196881
C33   C     C_R   0.183734 0.525117 0.617894 -0.159196
C34   C     C_R   0.146487 0.503854 0.493222 0.074484
C35   C     C_R   0.182157 0.477435 0.371255 -0.153790
C36   C     C_R   0.254124 0.474867 0.373487 -0.197307
Cu1   Cu    Cu3+1 0.500000 0.499990 0.640660 0.994244
Cu2   Cu    Cu3+1 0.500000 0.500010 0.359340 0.935155
H1    H     H_    0.282733 0.535580 0.718201 0.155428
H2    H     H_    0.557107 0.199566 0.769632 0.177053
H3    H     H_    0.524588 0.094775 0.985275 0.158830
H4    H     H_    0.453938 0.898796 0.982359 0.143686
H5    H     H_    0.495656 0.888466 0.278864 0.170638
H6    H     H_    0.429972 0.343916 0.128166 0.134067
H7    H     H_    0.595078 0.671854 0.259175 0.223731
H8    H     H_    0.636626 0.857084 0.155637 0.186060
H9    H     H_    0.633929 0.881053 0.907635 0.200912
H10   H     H_    0.157381 0.543823 0.713950 0.154738
H11   H     H_    0.430702 0.342997 0.870331 0.142323
H12   H     H_    0.154575 0.460216 0.273850 0.155849
H13   H     H_    0.280490 0.454354 0.278052 0.146792
H14   H     H_    0.719209 0.494920 0.724028 0.203825
H15   H     H_    0.715670 0.496542 0.275332 0.178577
H16   H     H_    0.504071 0.111486 0.279516 0.159047
N1    N     N_R   0.031804 0.448226 0.390740 -0.232183
N2    N     N_R   0.963046 0.448654 0.392090 -0.169623
N3    N     N_R   0.969697 0.570357 0.592703 -0.166804
N4    N     N_R   0.038376 0.569233 0.592052 -0.226324
N5    N     N_R   0.500660 0.501210 0.147910 -0.188368
N6    N     N_R   0.500680 0.501290 0.852040 -0.181250
O1    O     O_R   0.499990 0.319640 0.618810 -0.600653
O2    O     O_R   0.500000 0.319660 0.381240 -0.585062
O3    O     O_R   0.400140 0.499970 0.618820 -0.567803
O4    O     O_R   0.400150 0.500000 0.381250 -0.587387
O5    O     O_R   0.500000 0.680340 0.618760 -0.495608
O6    O     O_R   0.500010 0.680360 0.381190 -0.620556
O7    O     O_R   0.599850 0.500000 0.618750 -0.537575
O8    O     O_R   0.599860 0.500030 0.381180 -0.615898
O9    O     O_3   0.408409 0.775051 0.751752 -0.606110
C37   C     C_3   0.346843 0.784772 0.828869 0.031329
H17   H     H_    0.302477 0.758738 0.758367 0.167162
H18   H     H_    0.338362 0.880067 0.865660 0.127646
C38   C     C_3   0.345261 0.694165 0.951874 -0.334381
H19   H     H_    0.352292 0.599372 0.913457 0.229094
H20   H     H_    0.388425 0.719371 0.025494 0.212747
C39   C     C_3   0.276785 0.693945 0.029679 -0.912057
H21   H     H_    0.269031 0.787752 0.070385 0.261912
H22   H     H_    0.277469 0.628761 0.118831 0.259224
H23   H     H_    0.232903 0.664034 0.959446 0.254240
Cl1   Cl    Cl    0.628889 0.721649 0.711738 -0.661727
Cl2   Cl    Cl    0.859997 0.490898 0.787832 -0.597453
O10   O     O_3   0.849040 0.510243 0.242696 -0.571824
C40   C     C_3   0.861089 0.633784 0.195517 0.101286
H24   H     H_    0.907977 0.636903 0.129046 0.205951
H25   H     H_    0.873043 0.701020 0.281781 0.108896
C41   C     C_3   0.799778 0.673507 0.107372 -0.356990
H26   H     H_    0.782956 0.598839 0.032931 0.275465
H27   H     H_    0.755549 0.690348 0.176220 0.200184
C42   C     C_3   0.818845 0.791910 0.025830 -0.810865
H28   H     H_    0.835364 0.868263 0.098257 0.247752
H29   H     H_    0.773038 0.818747 0.965350 0.270387
H30   H     H_    0.861433 0.777258 0.951945 0.281263

loop_
_geom_bond_atom_site_label_1
_geom_bond_atom_site_label_2
_ccdc_geom_bond_type
N1    N2    A    
C16   C21   A    
C38   H19   S    
C35   C36   A    
C39   H23   S    
C2    C12   S    
C1    O2    A    
C13   H3    S    
C7    C8    A    
C31   O7    A    
C1    C18   S    
Cu1   Cu2   S    
C23   O6    A    
C39   H22   S    
C18   C19   A    
C27   N6    A    
C5    C6    A    
C12   O4    A    
C41   H27   S    
C15   C16   A    
C2    C32   A    
C34   C35   A    
C32   H1    S    
Cu2   O6    S    
C8    C9    A    
C30   N6    A    
C37   H17   S    
C42   H29   S    
C9    C10   A    
C25   H9    S    
C9    O10   S    
C14   H4    S    
C22   C28   A    
C13   C14   A    
C38   H20   S    
C11   H2    S    
C35   H12   S    
Cu1   O3    S    
C33   C34   A    
Cu2   O4    S    
C31   O8    A    
C15   O9    S    
C4    C34   S    
C7    C31   S    
C29   N5    A    
C24   C25   A    
C12   O3    A    
C41   H26   S    
C16   C17   A    
C25   C26   A    
C26   Cl1   S    
Cu1   O5    S    
C29   C30   A    
C5    Cl2   S    
C3    N2    A    
C40   H24   S    
C22   H7    S    
C37   C38   S    
C17   C18   A    
C26   C27   A    
C39   H21   S    
C42   H30   S    
C36   H13   S    
C3    N3    A    
C19   H16   S    
C40   H25   S    
C30   H11   S    
Cu2   O8    S    
C21   C23   S    
C29   H6    S    
C38   C39   S    
C22   C24   A    
C20   H5    S    
C28   N5    A    
C2    C36   A    
C11   C17   A    
C41   C42   S    
C1    O1    A    
C8    H15   S    
Cu1   O1    S    
C6    C7    A    
C24   H8    S    
C32   C33   A    
C23   O5    A    
C19   C20   A    
C5    C10   A    
C4    N1    A    
C3    C10   S    
C11   C13   A    
N3    N4    A    
Cu1   O7    S    
O9    C37   S    
Cu1   N6    S    
Cu2   N5    S    
C40   C41   S    
C20   C21   A    
O10   C40   S    
C4    N4    A    
C27   C28   A    
C33   H10   S    
C14   C15   A    
C37   H18   S    
C6    H14   S    
C42   H28   S    
Cu2   O2    S    
