data_mof_unit_4126.cif
_audit_creation_date              2012-12-10T19:05:50-0500
_audit_creation_method            fapswitch 2.2
_symmetry_space_group_name_H-M    P1
_symmetry_Int_Tables_number       1
_space_group_crystal_system       triclinic
_cell_length_a                    19.383057
_cell_length_b                    10.824293
_cell_length_c                    9.523247
_cell_angle_alpha                 89.83069
_cell_angle_beta                  90.386764
_cell_angle_gamma                 89.660252
_cell_volume                      1997.96273148

loop_
_atom_site_label
_atom_site_type_symbol
_atom_type_description
_atom_site_fract_x
_atom_site_fract_y
_atom_site_fract_z
_atom_type_partial_charge
C1    C     C_R   0.499052 0.262230 0.500118 0.803840
C2    C     C_R   0.291505 0.499460 0.498388 -0.032051
C3    C     C_R   0.930378 0.505958 0.496694 0.438028
C4    C     C_R   0.070333 0.503006 0.496087 0.410057
C5    C     C_R   0.819098 0.505357 0.626153 -0.256756
C6    C     C_R   0.746769 0.506750 0.629927 0.439535
C7    C     C_R   0.708959 0.503807 0.502275 -0.117747
C8    C     C_R   0.744620 0.505794 0.374262 -0.264011
C9    C     C_R   0.816418 0.507921 0.372107 -0.161958
C10   C     C_R   0.854323 0.506859 0.497999 0.004054
C11   C     C_R   0.492187 0.063044 0.625996 0.135525
C12   C     C_R   0.367421 0.499725 0.499567 0.787468
C13   C     C_R   0.492757 0.129147 0.499908 -0.097210
C14   C     C_R   0.483995 0.064886 0.372942 -0.214866
C15   C     C_R   0.484093 0.936156 0.372687 -0.217686
C16   C     C_R   0.492801 0.870824 0.499407 -0.095532
C17   C     C_R   0.492274 0.935880 0.625680 0.122556
C18   C     C_3   0.540508 0.928093 0.748470 -0.466723
C19   C     C_3   0.540319 0.068359 0.749052 -0.478164
C20   C     C_R   0.477536 0.600807 0.073040 0.257607
C21   C     C_R   0.530751 0.406402 0.075199 -0.097756
C22   C     C_R   0.530849 0.406506 0.926185 -0.069099
C23   C     C_R   0.499022 0.737724 0.499790 0.797965
C24   C     C_R   0.477390 0.600642 0.925610 0.234868
C25   C     C_3   0.406908 0.656020 0.918336 -0.491862
C26   C     C_3   0.406992 0.656217 0.077764 -0.499914
C27   C     C_R   0.632715 0.500869 0.500661 0.815074
C28   C     C_R   0.254942 0.498577 0.625042 -0.185848
C29   C     C_R   0.183107 0.499650 0.624148 -0.153616
C30   C     C_R   0.146357 0.501306 0.496492 0.056916
C31   C     C_R   0.182937 0.501243 0.369723 -0.154584
C32   C     C_R   0.254840 0.500188 0.370700 -0.184149
Cu1   Cu    Cu3+1 0.500000 0.499980 0.640670 0.953164
Cu2   Cu    Cu3+1 0.500000 0.500020 0.359330 0.935831
H1    H     H_    0.281691 0.496904 0.725103 0.142902
H2    H     H_    0.480694 0.888527 0.273100 0.157577
H3    H     H_    0.515646 0.887343 0.842547 0.193887
H4    H     H_    0.591396 0.887035 0.721059 0.197704
H5    H     H_    0.515119 0.108034 0.843371 0.192127
H6    H     H_    0.591129 0.109093 0.722299 0.200380
H7    H     H_    0.554009 0.329734 0.131469 0.143469
H8    H     H_    0.554451 0.330319 0.870973 0.149903
H9    H     H_    0.407094 0.750297 0.871802 0.193259
H10   H     H_    0.368192 0.592277 0.872679 0.211564
H11   H     H_    0.407106 0.750667 0.123083 0.188464
H12   H     H_    0.156486 0.499206 0.723739 0.153716
H13   H     H_    0.368318 0.592621 0.123253 0.211333
H14   H     H_    0.156133 0.502103 0.269597 0.153221
H15   H     H_    0.281566 0.499868 0.271344 0.142782
H16   H     H_    0.847645 0.501599 0.724127 0.157332
H17   H     H_    0.717025 0.505287 0.275009 0.179033
H18   H     H_    0.842144 0.509247 0.271536 0.163277
H19   H     H_    0.480346 0.113355 0.273470 0.162436
N1    N     N_R   0.034118 0.503904 0.373534 -0.240335
N2    N     N_R   0.965467 0.505331 0.373816 -0.239632
N3    N     N_R   0.966656 0.505207 0.619046 -0.240454
N4    N     N_R   0.035205 0.503771 0.618770 -0.241149
N5    N     N_R   0.500440 0.500930 0.147930 -0.181303
N6    N     N_R   0.500440 0.500890 0.852020 -0.187220
O1    O     O_R   0.500000 0.319640 0.618810 -0.582366
O2    O     O_R   0.500010 0.319680 0.381230 -0.590104
O3    O     O_R   0.400140 0.499970 0.618830 -0.583339
O4    O     O_R   0.400150 0.500010 0.381250 -0.582406
O5    O     O_R   0.499990 0.680320 0.618770 -0.583580
O6    O     O_R   0.500000 0.680360 0.381190 -0.586060
O7    O     O_R   0.599850 0.499990 0.618750 -0.531962
O8    O     O_R   0.599860 0.500030 0.381170 -0.590211
O9    O     O_3   0.712843 0.500728 0.757535 -0.599514
C33   C     C_3   0.727889 0.606073 0.839566 0.052542
H20   H     H_    0.729181 0.692172 0.774701 0.128672
H21   H     H_    0.778391 0.593172 0.893934 0.147318
C34   C     C_3   0.671756 0.621429 0.950117 -0.306916
H22   H     H_    0.621647 0.638878 0.896341 0.225732
H23   H     H_    0.667680 0.535063 0.012861 0.222587
C35   C     C_3   0.686861 0.728870 0.048712 -0.941056
H24   H     H_    0.736450 0.713071 0.105306 0.261575
H25   H     H_    0.644925 0.736750 0.127163 0.262923
H26   H     H_    0.689561 0.816790 0.988581 0.258936

loop_
_geom_bond_atom_site_label_1
_geom_bond_atom_site_label_2
_ccdc_geom_bond_type
C8    C9    A    
C2    C12   S    
C25   H9    S    
C7    C8    A    
C22   H8    S    
C11   C19   S    
C28   C29   A    
C18   H3    S    
Cu1   O5    S    
C30   C31   A    
C15   C16   A    
C7    C27   S    
N3    N4    A    
Cu2   O6    S    
C2    C32   A    
C18   C19   S    
C33   H21   S    
C26   H11   S    
O9    C33   S    
C3    N2    A    
C20   C24   A    
C28   H1    S    
C16   C17   A    
C4    N4    A    
C9    C10   A    
C6    O9    S    
Cu1   N6    S    
C13   C14   A    
C9    H18   S    
C34   C35   S    
C25   H10   S    
Cu1   O7    S    
C17   C18   S    
C27   O7    A    
C24   C25   S    
C34   H23   S    
C1    O1    A    
C22   N6    A    
C12   O4    A    
Cu1   O3    S    
C25   C26   S    
Cu2   O2    S    
C33   C34   S    
C35   H24   S    
C29   C30   A    
C12   O3    A    
C3    N3    A    
C31   C32   A    
Cu1   Cu2   S    
C35   H25   S    
C8    H17   S    
C19   H5    S    
C26   H13   S    
C21   H7    S    
C23   O5    A    
Cu1   O1    S    
C31   H14   S    
C5    H16   S    
C1    C13   S    
C20   N5    A    
C15   H2    S    
N1    N2    A    
C11   C17   A    
C4    N1    A    
C34   H22   S    
C1    O2    A    
Cu2   O8    S    
C6    C7    A    
C16   C23   S    
C29   H12   S    
C23   O6    A    
C18   H4    S    
C5    C10   A    
C3    C10   S    
C11   C13   A    
C5    C6    A    
C20   C26   S    
C24   N6    A    
Cu2   O4    S    
C33   H20   S    
C35   H26   S    
C32   H15   S    
C27   O8    A    
C19   H6    S    
C21   N5    A    
C14   H19   S    
Cu2   N5    S    
C14   C15   A    
C2    C28   A    
C21   C22   A    
C4    C30   S    
