data_mof_unit_1060.cif
_audit_creation_date              2012-12-11T17:43:22-0500
_audit_creation_method            fapswitch 2.2
_symmetry_space_group_name_H-M    P1
_symmetry_Int_Tables_number       1
_space_group_crystal_system       triclinic
_cell_length_a                    14.613784
_cell_length_b                    15.212202
_cell_length_c                    16.957545
_cell_angle_alpha                 109.812139
_cell_angle_beta                  104.932466
_cell_angle_gamma                 108.401781
_cell_volume                      3071.6967841

loop_
_atom_site_label
_atom_site_type_symbol
_atom_type_description
_atom_site_fract_x
_atom_site_fract_y
_atom_site_fract_z
_atom_type_partial_charge
C1    C     C_R   0.086127 0.288671 0.076905 -0.156518
C2    C     C_R   0.907193 0.723224 0.970273 -0.075326
C3    C     C_R   0.027024 0.571578 0.741608 0.116661
C4    C     C_R   0.969366 0.534849 0.274605 0.086835
C5    C     C_R   0.722561 0.196117 0.725077 0.118445
C6    C     C_R   0.342065 0.775596 0.245359 0.126263
C7    C     C_R   0.269566 0.441742 0.944913 0.080884
C8    C     C_R   0.638101 0.450427 0.957674 0.156854
C9    C     C_R   0.911111 0.939192 0.052037 -0.132114
C10   C     C_R   0.087995 0.093364 0.064089 -0.129089
C11   C     C_R   0.000430 0.923140 0.052309 0.062785
C12   C     C_R   0.997579 0.106905 0.057987 0.065327
C13   C     C_R   0.091949 0.003998 0.062505 0.175682
C14   C     C_R   0.909463 0.031844 0.056525 0.160518
C15   C     C_R   0.725636 0.000917 0.973447 0.414494
C16   C     C_R   0.281659 0.061198 0.155056 0.460183
C17   C     C_R   0.649375 0.104911 0.048883 -0.232998
C18   C     C_R   0.395165 0.018368 0.083621 -0.231927
C19   C     C_R   0.196843 0.022499 0.731269 -0.116234
C20   C     C_R   0.537870 0.688062 0.826434 0.004385
C21   C     C_R   0.277097 0.123294 0.790442 -0.038147
C22   C     C_R   0.531894 0.593015 0.821728 -0.110347
C23   C     C_R   0.934889 0.513381 0.744783 -0.102336
C24   C     C_R   0.063406 0.548810 0.264497 -0.087753
C25   C     C_R   0.258889 0.198122 0.852525 0.188709
C26   C     C_R   0.531246 0.572923 0.896576 0.090171
C27   C     C_R   0.157197 0.168969 0.852093 -0.231514
C28   C     C_R   0.550465 0.653347 0.979670 -0.210686
C29   C     C_R   0.076672 0.068374 0.791518 0.293251
C30   C     C_R   0.556971 0.748511 0.984313 0.235670
C31   C     C_R   0.096357 0.995440 0.730964 -0.097457
C32   C     C_R   0.545466 0.763475 0.906232 -0.108629
C33   C     C_R   0.449214 0.332864 0.933645 0.398901
C34   C     C_R   0.364001 0.428368 0.844306 0.430055
C35   C     C_R   0.520748 0.417984 0.927449 -0.118522
C36   C     C_R   0.309986 0.380690 0.885723 -0.092785
C37   C     C_R   0.474035 0.465413 0.880403 -0.120284
C38   C     C_R   0.340442 0.309352 0.905044 -0.114226
C39   C     C_R   0.645314 0.032520 0.969658 -0.247729
C40   C     C_R   0.381129 0.068884 0.161601 -0.204037
C41   C     C_R   0.959916 0.580219 0.361883 0.074743
C42   C     C_R   0.034874 0.609182 0.673409 0.077557
C43   C     C_R   0.141077 0.680519 0.601717 0.205895
C44   C     C_R   0.854498 0.565165 0.450038 0.241738
C45   C     C_R   0.752965 0.202604 0.812048 -0.093931
C46   C     C_R   0.282516 0.778972 0.170360 -0.117619
C47   C     C_R   0.133553 0.657880 0.673132 -0.129787
C48   C     C_R   0.861247 0.550983 0.366523 -0.185329
C49   C     C_R   0.943197 0.590334 0.604648 -0.160811
C50   C     C_R   0.051729 0.640586 0.443189 -0.196465
C51   C     C_R   0.947706 0.603698 0.528186 0.032201
C52   C     C_R   0.047733 0.646206 0.525610 0.041806
C53   C     C_R   0.663433 0.101098 0.638322 -0.057166
C54   C     C_R   0.450871 0.852425 0.308395 -0.028932
C55   C     C_R   0.551991 0.037692 0.395558 0.548532
C56   C     C_R   0.613880 0.917997 0.548303 0.547598
C57   C     C_R   0.485120 0.951286 0.312557 -0.238503
C58   C     C_R   0.665396 0.007783 0.632261 -0.237541
C59   C     C_R   0.509707 0.837866 0.378343 0.230564
C60   C     C_R   0.609147 0.105053 0.560072 0.224256
C61   C     C_R   0.569804 0.924709 0.466696 -0.157756
C62   C     C_R   0.578789 0.023923 0.474548 -0.141806
C63   C     C_R   0.733772 0.147052 0.133257 0.231424
C64   C     C_R   0.310204 0.960311 0.997662 0.250225
C65   C     C_R   0.817889 0.119584 0.137881 0.154762
C66   C     C_R   0.208647 0.950745 0.989541 0.149536
C67   C     C_R   0.249470 0.523886 0.939765 -0.073560
C68   C     C_R   0.699871 0.416305 0.005884 -0.104484
C69   C     C_R   0.814658 0.047542 0.056959 -0.158391
C70   C     C_R   0.194337 0.001896 0.068953 -0.210842
C71   C     C_R   0.763589 0.296839 0.734391 -0.083279
C72   C     C_R   0.278402 0.688765 0.249318 -0.121431
C73   C     C_R   0.243122 0.428844 0.015074 -0.105433
C74   C     C_R   0.703581 0.504997 0.925827 -0.138037
C75   C     C_R   0.109033 0.600146 0.822231 -0.078803
C76   C     C_R   0.888031 0.463666 0.188410 -0.108079
C77   C     C_R   0.913000 0.202869 0.993901 -0.068351
C78   C     C_R   0.080749 0.802479 0.056230 -0.091602
C79   C     C_R   0.997702 0.196023 0.044604 0.082859
C80   C     C_R   0.993713 0.820021 0.033370 0.069366
H1    H     H_    0.163950 0.314936 0.127742 0.138197
H2    H     H_    0.826243 0.707917 0.936263 0.119835
H3    H     H_    0.033807 0.917801 0.683702 0.167751
H4    H     H_    0.539555 0.832123 0.906414 0.178214
H5    H     H_    0.211934 0.966079 0.683992 0.165274
H6    H     H_    0.530143 0.700788 0.766487 0.199678
H7    H     H_    0.352349 0.143633 0.784949 0.157169
H8    H     H_    0.515791 0.531296 0.756872 0.175044
H9    H     H_    0.138696 0.224316 0.896208 0.141214
H10   H     H_    0.548382 0.638176 0.037335 0.163720
H11   H     H_    0.127335 0.671319 0.440506 0.154232
H12   H     H_    0.867571 0.556554 0.606609 0.156547
H13   H     H_    0.789064 0.510888 0.304980 0.159111
H14   H     H_    0.205262 0.673607 0.725697 0.174748
H15   H     H_    0.854716 0.490039 0.700600 0.114023
H16   H     H_    0.143140 0.597924 0.315809 0.111429
H17   H     H_    0.580519 0.002445 0.904505 0.217514
H18   H     H_    0.448165 0.114973 0.227311 0.239355
H19   H     H_    0.702753 0.003114 0.693652 0.214488
H20   H     H_    0.452952 0.963095 0.254286 0.165342
H21   H     H_    0.586808 0.128941 0.044451 0.226736
H22   H     H_    0.472823 0.024941 0.090222 0.206518
H23   H     H_    0.732001 0.139515 0.829836 0.132999
H24   H     H_    0.311019 0.826720 0.139010 0.113877
H25   H     H_    0.261943 0.557254 0.894707 0.163112
H26   H     H_    0.675987 0.363201 0.032975 0.177972
H27   H     H_    0.757128 0.320294 0.680621 0.141714
H28   H     H_    0.302755 0.657458 0.294893 0.143093
H29   H     H_    0.249024 0.372025 0.038043 0.119477
H30   H     H_    0.679002 0.526728 0.872689 0.116543
H31   H     H_    0.189358 0.658875 0.849615 0.126445
H32   H     H_    0.804582 0.434083 0.171474 0.118073
H33   H     H_    0.831410 0.150068 0.961604 0.125454
H34   H     H_    0.159294 0.856579 0.107245 0.116765
H35   H     H_    0.842089 0.878993 0.046621 0.141456
H36   H     H_    0.155709 0.150811 0.065096 0.136022
N1    N     N_R   0.055660 0.348550 0.045620 -0.047082
N2    N     N_R   0.944340 0.651450 0.954380 -0.045905
N3    N     N_R   0.960830 0.507850 0.823700 -0.048331
N4    N     N_R   0.039170 0.492150 0.176300 -0.044873
N5    N     N_R   0.811290 0.303410 0.871650 -0.050023
N6    N     N_R   0.188710 0.696590 0.128350 -0.051532
N7    N     N_R   0.205200 0.552990 0.997670 -0.054437
N8    N     N_R   0.794800 0.447010 0.002330 -0.059309
N9    N     N_R   0.814800 0.361830 0.823700 -0.052143
N10   N     N_R   0.185200 0.638170 0.176300 -0.051427
N11   N     N_R   0.201680 0.494570 0.045620 -0.043303
N12   N     N_R   0.798320 0.505430 0.954380 -0.050867
N13   N     N_R   0.068420 0.560530 0.871650 -0.051574
N14   N     N_R   0.931580 0.439470 0.128350 -0.049346
N15   N     N_R   0.948070 0.295860 0.997670 -0.050378
N16   N     N_R   0.051930 0.704140 0.002330 -0.046422
Ni1   Ni    Ni4+2 0.119340 0.493420 0.109960 0.244984
Ni2   Ni    Ni4+2 0.880660 0.506580 0.890040 0.237173
Ni3   Ni    Ni4+2 0.872590 0.372590 0.000000 0.232828
Ni4   Ni    Ni4+2 0.127410 0.627410 0.000000 0.233436
Cl1   Cl    Cl    0.722862 0.919137 0.869305 -0.642807
Cl2   Cl    Cl    0.268633 0.126197 0.256428 -0.552176
I1    I     I_    0.924150 0.027518 0.788783 -0.311134
I2    I     I_    0.570227 0.863366 0.105222 -0.418307
Cl3   Cl    Cl    0.485746 0.250600 0.973527 -0.705113
Cl4   Cl    Cl    0.295616 0.452928 0.757994 -0.637305
I3    I     I_    0.296399 0.752042 0.609324 -0.307636
I4    I     I_    0.700028 0.511297 0.447602 -0.154769
I5    I     I_    0.528342 0.202382 0.571825 -0.247573
I6    I     I_    0.522621 0.694286 0.334159 -0.239146
Cl5   Cl    Cl    0.602453 0.160345 0.397202 -0.557289
Cl6   Cl    Cl    0.601119 0.802124 0.555249 -0.505989
I7    I     I_    0.729323 0.253904 0.249406 -0.258490
I8    I     I_    0.343649 0.894503 0.883646 -0.415887
I9    I     I_    0.950900 0.188519 0.265217 -0.212934
I10   I     I_    0.077291 0.858164 0.859439 -0.386594

loop_
_geom_bond_atom_site_label_1
_geom_bond_atom_site_label_2
_ccdc_geom_bond_type
N9    Ni2   S    
C71   N9    A    
C63   C65   A    
C3    C42   S    
N6    N10   A    
C71   H27   S    
C27   C29   A    
C34   C37   A    
C7    C36   S    
C41   C50   A    
C43   I3    S    
N14   Ni3   S    
N1    Ni1   S    
C56   Cl6   S    
C68   N8    A    
C21   H7    S    
C2    N2    A    
C7    C73   A    
C6    C72   A    
C21   C25   A    
N4    N14   A    
C5    C53   S    
C35   C37   A    
N15   Ni3   S    
C24   H16   S    
C18   H22   S    
C4    C24   A    
C77   H33   S    
C43   C52   A    
C39   H17   S    
C4    C41   S    
C1    H1    S    
C12   C79   S    
C31   H3    S    
C60   C62   A    
N4    Ni1   S    
C77   N15   A    
C78   N16   A    
C63   I7    S    
C17   H21   S    
C45   H23   S    
N3    N13   A    
C66   I10   S    
C3    C23   A    
C41   C48   A    
C74   N12   A    
C72   H28   S    
N10   Ni1   S    
C56   C58   A    
C49   C51   A    
C20   H6    S    
C50   C52   A    
C22   H8    S    
C3    C75   A    
C76   N14   A    
N2    Ni2   S    
C76   H32   S    
N8    N12   A    
C19   C31   A    
C78   H34   S    
C68   H26   S    
C6    C54   S    
C15   C69   A    
C53   C60   A    
C54   C59   A    
C77   C79   A    
C29   I1    S    
C24   N4    A    
N3    Ni2   S    
C59   C61   A    
C48   H13   S    
C51   C52   A    
C9    H35   S    
C16   C70   A    
C67   H25   S    
C45   N5    A    
C73   N11   A    
C57   H20   S    
C5    C45   A    
C10   C13   A    
C64   I8    S    
C8    C35   S    
C64   C66   A    
C65   I9    S    
C9    C14   A    
N5    N9    A    
N12   Ni2   S    
C25   C38   S    
N13   Ni4   S    
C55   Cl5   S    
C44   I4    S    
C40   H18   S    
C15   C39   A    
C8    C74   A    
N2    N16   A    
C1    N1    A    
N5    Ni3   S    
C9    C11   A    
N6    Ni4   S    
C10   C12   A    
C16   C40   A    
C44   C51   A    
C17   C39   A    
C12   C14   A    
C8    C68   A    
C55   C57   A    
C22   C26   A    
C1    C79   A    
C14   C69   S    
C2    H2    S    
C60   I5    S    
C49   H12   S    
N7    N11   A    
C10   H36   S    
C20   C32   A    
N16   Ni4   S    
C34   Cl4   S    
C6    C46   A    
N8    Ni3   S    
C19   C21   A    
C26   C28   A    
C16   Cl2   S    
C58   H19   S    
N11   Ni1   S    
C32   H4    S    
C20   C22   A    
C19   H5    S    
C30   I2    S    
C67   N7    A    
C74   H30   S    
C53   C58   A    
C26   C37   S    
C73   H29   S    
C25   C27   A    
C75   H31   S    
C33   C38   A    
N7    Ni4   S    
C33   Cl3   S    
C28   C30   A    
C5    C71   A    
C17   C63   A    
C30   C32   A    
C11   C13   A    
C18   C64   A    
C66   C70   A    
C46   H24   S    
C65   C69   A    
C36   C38   A    
C33   C35   A    
C47   H14   S    
C23   H15   S    
C27   H9    S    
C78   C80   A    
C42   C47   A    
C61   C62   A    
N1    N15   A    
C4    C76   A    
C2    C80   A    
C11   C80   S    
C42   C49   A    
C7    C67   A    
C59   I6    S    
C44   C48   A    
C50   H11   S    
C18   C40   A    
C55   C62   A    
C34   C36   A    
C29   C31   A    
C13   C70   S    
C72   N10   A    
C56   C61   A    
C46   N6    A    
C23   N3    A    
C28   H10   S    
C43   C47   A    
C75   N13   A    
C15   Cl1   S    
C54   C57   A    
