data_mof_unit_1919.cif
_audit_creation_date              2012-12-11T14:17:50-0500
_audit_creation_method            fapswitch 2.2
_symmetry_space_group_name_H-M    P1
_symmetry_Int_Tables_number       1
_space_group_crystal_system       triclinic
_cell_length_a                    6.937948
_cell_length_b                    13.656269
_cell_length_c                    20.459727
_cell_angle_alpha                 102.045006
_cell_angle_beta                  89.891442
_cell_angle_gamma                 91.139284
_cell_volume                      1895.4296232

loop_
_atom_site_label
_atom_site_type_symbol
_atom_type_description
_atom_site_fract_x
_atom_site_fract_y
_atom_site_fract_z
_atom_type_partial_charge
O1    O     O_R   0.506860 0.599390 0.449240 -0.539878
O2    O     O_R   0.180220 0.594600 0.586780 -0.544536
O3    O     O_R   0.004500 0.400610 0.550760 -0.545083
C1    C     C_R   0.350038 0.617328 0.612849 0.728530
O4    O     O_R   0.177490 0.611290 0.451970 -0.539314
O5    O     O_R   0.001750 0.417420 0.414990 -0.546948
C2    C     C_R   0.348046 0.638305 0.435809 0.688635
O6    O     O_R   0.509610 0.582580 0.585010 -0.540576
O7    O     O_3   0.337420 0.436370 0.488020 -0.370988
V1    V     V_3+5 0.064680 0.511800 0.502220 1.433360
O8    O     O_R   0.671710 0.405400 0.413220 -0.542512
C3    C     C_R   0.839468 0.388228 0.385205 0.634527
O9    O     O_R   0.674440 0.388710 0.548030 -0.535322
C4    C     C_R   0.841412 0.363960 0.566620 0.704450
V2    V     V_3+5 0.564010 0.488200 0.497780 1.446212
O10   O     O_3   0.841140 0.563630 0.511980 -0.366226
C5    C     C_R   0.734374 0.120358 0.616426 -0.113895
H1    H     H_    0.730637 0.173574 0.525310 0.136890
H2    H     H_    0.684679 0.046366 0.591356 0.197335
C6    C     C_R   0.840447 0.286745 0.607170 -0.129609
C7    C     C_R   0.898312 0.315586 0.927948 0.208022
C8    C     C_R   0.856191 0.393894 0.894769 0.289464
C9    C     C_R   0.806971 0.371090 0.826400 0.143128
C10   C     C_R   0.819987 0.270600 0.789213 0.017626
C11   C     C_R   0.821517 0.192845 0.825721 -0.094504
C12   C     C_R   0.818585 0.243761 0.717664 0.018125
C13   C     C_R   0.762829 0.144415 0.685951 0.044254
C14   C     C_R   0.739096 0.070089 0.723740 0.356038
C15   C     C_R   0.779728 0.093686 0.792370 -0.217337
C16   C     C_R   0.881989 0.310469 0.676686 0.295573
C17   C     C_R   0.764516 0.192191 0.578194 -0.238658
C18   C     C_R   0.863159 0.215983 0.895071 -0.136050
H3    H     H_    0.773515 0.033850 0.819681 0.127585
C19   C     C_2   0.000264 0.290110 0.282450 0.141339
C20   C     C_2   0.842010 0.336284 0.313145 0.233364
C21   C     C_2   0.994913 0.245374 0.209399 0.167187
C22   C     C_2   0.869542 0.168712 0.184762 0.225152
C23   C     C_2   0.224407 0.809911 0.775066 0.335798
C24   C     C_2   0.354443 0.805023 0.823705 0.151120
C25   C     C_2   0.211266 0.731614 0.711561 -0.165520
C26   C     C_2   0.366108 0.690307 0.677315 -0.265834
H4    H     H_    0.068344 0.712927 0.690474 0.134423
H5    H     H_    0.510308 0.713473 0.695421 0.174800
C27   C     C_R   0.467285 0.888728 0.392932 0.131430
C28   C     C_R   0.365659 0.719889 0.399924 -0.156269
C29   C     C_R   0.352293 0.693036 0.079677 -0.155336
C30   C     C_R   0.353923 0.618399 0.116116 -0.119162
C31   C     C_R   0.358263 0.642947 0.185404 -0.125262
C32   C     C_R   0.355749 0.743994 0.220653 0.073275
C33   C     C_R   0.351241 0.821927 0.183679 -0.022781
C34   C     C_R   0.365609 0.768817 0.291735 0.002604
C35   C     C_R   0.406649 0.868864 0.324776 -0.077812
C36   C     C_R   0.375271 0.946205 0.289838 0.360046
C37   C     C_R   0.340968 0.923281 0.220317 0.037596
C38   C     C_R   0.335245 0.696730 0.331093 -0.238124
C39   C     C_R   0.438949 0.815322 0.431224 0.352102
C40   C     C_R   0.352876 0.793943 0.111885 -0.052687
H6    H     H_    0.283985 0.621763 0.309603 0.115784
H7    H     H_    0.353636 0.671895 0.025562 0.117026
H8    H     H_    0.371397 0.580886 0.210047 0.109702
H9    H     H_    0.356635 0.540627 0.090385 0.128964
O11   O     O_R   0.203230 0.917310 0.915020 -0.515129
O12   O     O_R   0.535500 0.888690 0.048040 -0.545916
O13   O     O_R   0.711080 0.082610 0.085000 -0.544098
C41   C     C_R   0.365969 0.866030 0.067953 0.687088
O14   O     O_R   0.532630 0.905370 0.913230 -0.556149
O15   O     O_R   0.708190 0.099410 0.949230 -0.547161
C42   C     C_R   0.363260 0.882553 0.887098 0.694202
O16   O     O_R   0.206120 0.900510 0.050790 -0.545267
O17   O     O_3   0.375360 0.063570 0.011990 -0.371748
V3    V     V_3+5 0.648170 0.988200 0.997780 1.447886
O18   O     O_R   0.038240 0.111390 0.951940 -0.524843
C43   C     C_R   0.870632 0.137002 0.934223 0.817318
O19   O     O_R   0.041120 0.094710 0.086750 -0.550493
C44   C     C_R   0.873727 0.114508 0.113717 0.634442
V4    V     V_3+5 0.148810 0.011930 0.002180 1.477438
O20   O     O_3   0.871750 0.936430 0.988010 -0.370370
O21   O     O_3   0.680606 0.339885 0.273859 -0.630883
H10   H     H_    0.587362 0.387257 0.299082 0.281828
C45   C     C_3   0.136307 0.287395 0.165521 -0.795199
H11   H     H_    0.205809 0.357669 0.193505 0.212461
H12   H     H_    0.252132 0.233133 0.148431 0.232325
H13   H     H_    0.060563 0.305307 0.121856 0.232507
O22   O     O_3   0.744692 0.135532 0.228767 -0.620677
H14   H     H_    0.682083 0.072040 0.205528 0.290307
O23   O     O_3   0.095595 0.887630 0.785472 -0.659202
H15   H     H_    0.014255 0.881119 0.744956 0.292418
O24   O     O_3   0.477336 0.724694 0.815145 -0.662897
H16   H     H_    0.552585 0.728480 0.856754 0.293937
O25   O     O_3   0.485888 0.839889 0.498559 -0.639136
H17   H     H_    0.441644 0.786366 0.521305 0.279681
O26   O     O_3   0.357156 0.044366 0.323506 -0.644093
H18   H     H_    0.284935 0.044103 0.365328 0.291733
C46   C     C_3   0.578766 0.983105 0.424826 -0.701741
H19   H     H_    0.640374 0.022728 0.387257 0.230733
H20   H     H_    0.484788 0.033818 0.460079 0.207014
H21   H     H_    0.704443 0.963955 0.452984 0.222407
O27   O     O_3   0.684316 0.973873 0.692231 -0.646196
H22   H     H_    0.668531 0.931827 0.726059 0.284480
C47   C     C_3   0.267711 0.006368 0.189016 -0.645600
H23   H     H_    0.235328 0.075877 0.225384 0.233220
H24   H     H_    0.374364 0.028010 0.154034 0.188895
H25   H     H_    0.127805 0.981502 0.164654 0.190445
O28   O     O_3   0.990377 0.394502 0.705491 -0.651541
H26   H     H_    0.039695 0.429263 0.670961 0.291821
O29   O     O_3   0.961829 0.334023 0.993416 -0.660378
H27   H     H_    0.035683 0.398271 0.002705 0.292029
C48   C     C_3   0.704886 0.451570 0.799394 -0.564697
H28   H     H_    0.807133 0.513656 0.795462 0.241463
H29   H     H_    0.634078 0.422408 0.750507 0.182183
H30   H     H_    0.587320 0.482764 0.834030 0.204033
O30   O     O_3   0.849741 0.492753 0.928423 -0.647372
H31   H     H_    0.822180 0.495124 0.976224 0.296007
C49   C     C_3   0.188564 0.283879 0.318364 -0.745432
H32   H     H_    0.294405 0.238460 0.284960 0.252250
H33   H     H_    0.254629 0.359658 0.334752 0.203985
H34   H     H_    0.164523 0.248155 0.361810 0.218438

loop_
_geom_bond_atom_site_label_1
_geom_bond_atom_site_label_2
_ccdc_geom_bond_type
O14   C42   A    
O12   C41   A    
C29   H7    S    
C24   C42   S    
O18   V4    S    
C37   C47   S    
C49   H32   S    
C6    C16   A    
C36   C37   A    
C12   C13   A    
C33   C37   A    
O19   V4    S    
C23   O23   S    
C2    C28   S    
C14   C15   A    
C10   C12   A    
O5    C3    A    
C23   C24   D    
C1    C26   S    
V2    O10   S    
O27   H22   S    
C15   H3    S    
C48   H28   S    
C34   C38   A    
O16   V4    S    
C19   C20   D    
O13   V3    S    
O30   H31   S    
O8    V2    S    
O14   V3    S    
C28   C39   A    
C32   C34   A    
C9    C10   A    
C22   O22   S    
O17   V3    S    
O15   C43   A    
O7    V1    S    
O15   V3    S    
C7    O29   S    
C1    O6    A    
C27   C35   A    
C11   C18   A    
C25   H4    S    
C22   C44   S    
O1    C2    A    
O9    C4    A    
C26   H5    S    
O11   V4    S    
C24   O24   S    
C45   H13   S    
O28   H26   S    
C31   H8    S    
V4    O20   S    
C11   C15   A    
C7    C18   A    
O19   C44   A    
C34   C35   A    
C5    C13   A    
C4    C6    S    
C10   C11   A    
C45   H12   S    
C21   C45   S    
C18   C43   S    
O4    C2    A    
O21   H10   S    
O18   C43   A    
C46   H21   S    
C47   H25   S    
O2    C1    A    
C30   H9    S    
C27   C39   A    
C30   C31   A    
C36   O26   S    
C47   H24   S    
O22   H14   S    
C3    C20   S    
C46   H20   S    
O3    C4    A    
O1    V2    S    
C31   C32   A    
O12   V3    S    
C12   C16   A    
O6    V2    S    
C8    O30   S    
O9    V2    S    
C29   C40   A    
O17   V4    S    
C5    C17   A    
O2    V1    S    
V3    O20   S    
C35   C36   A    
C14   O27   S    
C29   C30   A    
C25   C26   D    
O23   H15   S    
C33   C40   A    
C40   C41   S    
C45   H11   S    
O5    V1    S    
C49   H33   S    
O8    C3    A    
C19   C49   S    
C20   O21   S    
C48   H30   S    
O11   C42   A    
O7    V2    S    
O4    V1    S    
O3    V1    S    
V1    O10   S    
C23   C25   S    
O25   H17   S    
C41   O16   A    
C9    C48   S    
C39   O25   S    
O26   H18   S    
C5    H2    S    
O13   C44   A    
C48   H29   S    
C19   C21   S    
C46   H19   S    
C49   H34   S    
C27   C46   S    
O24   H16   S    
C28   C38   A    
C21   C22   D    
C32   C33   A    
O29   H27   S    
C38   H6    S    
C16   O28   S    
C13   C14   A    
C8    C9    A    
C47   H23   S    
H1    C17   S    
C7    C8    A    
C6    C17   A    
