data_mof_unit_384.cif
_audit_creation_date              2012-12-11T15:59:36-0500
_audit_creation_method            fapswitch 2.2
_symmetry_space_group_name_H-M    P1
_symmetry_Int_Tables_number       1
_space_group_crystal_system       triclinic
_cell_length_a                    10.683374
_cell_length_b                    10.695908
_cell_length_c                    17.043843
_cell_angle_alpha                 99.161167
_cell_angle_beta                  99.900222
_cell_angle_gamma                 61.244511
_cell_volume                      1675.36192925

loop_
_atom_site_label
_atom_site_type_symbol
_atom_type_description
_atom_site_fract_x
_atom_site_fract_y
_atom_site_fract_z
_atom_type_partial_charge
C1    C     C_R   0.377900 0.718581 0.388034 0.563508
C2    C     C_R   0.862901 0.201410 0.201829 -0.020414
C3    C     C_R   0.880490 0.206561 0.286402 0.029740
C4    C     C_R   0.832822 0.455705 0.293055 0.097079
C5    C     C_R   0.817493 0.449518 0.211149 -0.144906
C6    C     C_R   0.871370 0.074335 0.157688 -0.077039
C7    C     C_R   0.920293 0.949945 0.195048 -0.168512
C8    C     C_R   0.954967 0.950654 0.277426 -0.117862
C9    C     C_R   0.934226 0.078373 0.324204 0.265314
C10   C     C_R   0.847212 0.339813 0.330754 0.044699
C11   C     C_R   0.360729 0.803612 0.152770 -0.000655
C12   C     C_R   0.366238 0.343697 0.358544 0.539892
C13   C     C_R   0.453016 0.836005 0.212977 0.014906
C14   C     C_R   0.439474 0.833837 0.293335 0.031800
C15   C     C_R   0.298395 0.705773 0.247834 -0.157266
C16   C     C_R   0.292253 0.729906 0.170070 -0.140888
C17   C     C_R   0.551988 0.877957 0.196133 -0.107151
C18   C     C_R   0.618077 0.936729 0.256701 -0.145690
C19   C     C_R   0.591334 0.950520 0.335115 -0.117950
C20   C     C_R   0.499269 0.904240 0.353310 -0.079192
C21   C     C_R   0.365647 0.762168 0.309927 0.018623
C22   C     C_R   0.334244 0.340631 0.823458 -0.010474
C23   C     C_R   0.780115 0.376400 0.404943 0.602708
C24   C     C_R   0.459141 0.242501 0.787103 0.005453
C25   C     C_R   0.445941 0.212615 0.704196 0.023483
C26   C     C_R   0.220523 0.433929 0.695219 -0.120946
C27   C     C_R   0.216254 0.443393 0.777895 0.117435
C28   C     C_R   0.593051 0.164128 0.831728 -0.063489
C29   C     C_R   0.702316 0.043541 0.795938 -0.104885
C30   C     C_R   0.678050 0.998130 0.716240 -0.118247
C31   C     C_R   0.550203 0.080852 0.670690 -0.062847
C32   C     C_R   0.334948 0.320271 0.657889 -0.036653
C33   C     C_1   0.846753 0.328721 0.705544 -0.037710
C34   C     C_R   0.357977 0.770299 0.627314 0.564353
C35   C     C_1   0.893741 0.294114 0.772332 -0.029746
C36   C     C_1   0.339176 0.811293 0.709372 -0.036403
C37   C     C_1   0.312837 0.838981 0.777351 -0.034579
C38   C     C_R   0.892364 0.307678 0.088020 0.545228
C39   C     C_R   0.291696 0.260914 0.122207 0.578484
C40   C     C_R   0.299649 0.883795 0.082451 0.544185
C41   C     C_R   0.943656 0.273948 0.854772 0.573811
C42   C     C_R   0.309331 0.296357 0.894278 0.541574
C43   C     C_R   0.278808 0.885001 0.857130 0.545485
C44   C     C_R   0.368126 0.344587 0.583374 0.540101
C45   C     C_R   0.778082 0.378298 0.629026 0.556824
C46   C     C_1   0.325122 0.317742 0.276696 -0.051999
C47   C     C_1   0.306127 0.292325 0.206150 -0.036727
C48   C     C_R   0.840252 0.322766 0.164831 -0.029387
Cr1   Cr    Cr6+3 0.608100 0.610860 0.522250 1.013348
Cr2   Cr    Cr6+3 0.288890 0.599990 0.488420 0.980768
Cr3   Cr    Cr6+3 0.603040 0.289190 0.489390 1.023152
Cr4   Cr    Cr6+3 0.053960 0.052250 0.967380 0.985600
Cr5   Cr    Cr6+3 0.059890 0.373160 0.992710 1.011376
Cr6   Cr    Cr6+3 0.373370 0.061690 0.991710 0.996767
H1    H     H_    0.688656 0.973209 0.242593 0.138433
H2    H     H_    0.644424 0.994482 0.382314 0.146968
H3    H     H_    0.474356 0.928015 0.414333 0.145642
H4    H     H_    0.138179 0.517469 0.659795 0.136594
H5    H     H_    0.611631 0.194059 0.894752 0.128396
H6    H     H_    0.803453 0.982626 0.830839 0.120712
H7    H     H_    0.759242 0.900883 0.688882 0.099605
H8    H     H_    0.534505 0.042337 0.608970 0.128845
H9    H     H_    0.837676 0.069583 0.094296 0.144270
H10   H     H_    0.801812 0.541946 0.184115 0.138521
H11   H     H_    0.930244 0.852489 0.159957 0.108809
H12   H     H_    0.995199 0.851903 0.304976 0.107419
H13   H     H_    0.246310 0.646367 0.259868 0.125967
H14   H     H_    0.583266 0.862091 0.136923 0.142278
H15   H     H_    0.226392 0.698785 0.123973 0.138806
O1    O     O_R   0.749810 0.499790 0.438040 -0.493374
O2    O     O_R   0.298970 0.468800 0.557390 -0.504916
O3    O     O_R   0.489400 0.255930 0.561910 -0.523993
O4    O     O_R   0.723890 0.306050 0.584610 -0.481632
O5    O     O_3   0.500010 0.500010 0.500020 -0.261913
O6    O     O_R   0.171100 0.914680 0.053100 -0.515716
O7    O     O_R   0.941680 0.184840 0.050710 -0.506413
O8    O     O_R   0.922080 0.403420 0.072610 -0.526315
O9    O     O_R   0.196880 0.369150 0.083850 -0.507210
O10   O     O_R   0.411730 0.181020 0.091530 -0.515575
O11   O     O_R   0.365010 0.944360 0.063320 -0.526795
O12   O     O_R   0.477660 0.726260 0.439290 -0.510355
O13   O     O_R   0.159380 0.906670 0.876210 -0.525774
O14   O     O_R   0.930820 0.177420 0.886730 -0.505262
O15   O     O_R   0.910360 0.395420 0.895720 -0.494888
O16   O     O_R   0.186010 0.361730 0.919870 -0.487676
O17   O     O_R   0.400000 0.173010 0.914630 -0.520737
O18   O     O_R   0.354140 0.936940 0.899340 -0.494399
O19   O     O_3   0.162410 0.162370 0.983930 -0.279906
O20   O     O_R   0.260150 0.743000 0.412270 -0.530884
O21   O     O_R   0.297740 0.466550 0.394720 -0.535106
O22   O     O_R   0.488080 0.253500 0.386430 -0.518358
O23   O     O_R   0.722670 0.303800 0.421940 -0.468279
O24   O     O_R   0.751130 0.502220 0.613520 -0.525036
O25   O     O_R   0.478890 0.728510 0.601960 -0.494434
O26   O     O_R   0.261470 0.745430 0.587750 -0.510696
N1    N     N_2   0.831957 0.581063 0.337177 -0.489791
H16   H     H_    0.778551 0.671104 0.306477 0.252376
C49   C     C_3   0.971647 0.561929 0.373642 -0.254392
H17   H     H_    0.040402 0.541535 0.326262 0.141181
H18   H     H_    0.023232 0.471344 0.412061 0.168336
H19   H     H_    0.960111 0.660775 0.411458 0.127340
N2    N     N_2   0.097989 0.555418 0.816850 -0.485566
H20   H     H_    0.126342 0.601021 0.870274 0.259871
C50   C     C_3   0.970885 0.653162 0.770516 -0.295413
H21   H     H_    0.995787 0.724626 0.742727 0.136761
H22   H     H_    0.885919 0.719579 0.810506 0.142433
H23   H     H_    0.929043 0.593039 0.724064 0.173202
O27   O     O_3   0.975155 0.077956 0.405685 -0.698451
H24   H     H_    0.005902 0.981755 0.422331 0.332412

loop_
_geom_bond_atom_site_label_1
_geom_bond_atom_site_label_2
_ccdc_geom_bond_type
C19   H2    S    
C25   C31   A    
C1    C21   S    
C33   C45   S    
C12   O22   A    
Cr5   O8    S    
C19   C20   A    
C31   H8    S    
Cr3   O5    S    
Cr4   O6    S    
C45   O24   A    
C50   H22   S    
C7    C8    A    
C38   O7    A    
C9    O27   S    
C8    H12   S    
C26   C27   A    
Cr5   O15   S    
C14   C21   A    
C12   O21   A    
C28   C29   A    
Cr2   O5    S    
C30   C31   A    
Cr3   O4    S    
Cr2   O26   S    
C1    O12   A    
C15   C16   A    
C41   O14   A    
O27   H24   S    
C44   O2    A    
C45   O4    A    
C18   C19   A    
Cr1   O12   S    
Cr3   O22   S    
C4    N1    S    
Cr2   O21   S    
C8    C9    A    
N1    C49   S    
C22   C42   S    
C40   O11   A    
C42   O17   A    
Cr1   O25   S    
C24   C28   A    
C38   C48   S    
C25   C32   A    
C13   C14   A    
C23   O1    A    
C2    C6    A    
C50   H21   S    
Cr6   O11   S    
C5    C48   A    
C11   C40   S    
C39   O9    A    
C14   C20   A    
Cr4   O19   S    
C24   C25   A    
C12   C46   S    
Cr6   O17   S    
C26   C32   A    
C2    C48   A    
C41   O15   A    
C5    H10   S    
C39   O10   A    
C6    H9    S    
C37   C43   S    
Cr4   O14   S    
N2    C50   S    
Cr2   O2    S    
C29   C30   A    
C3    C9    A    
Cr3   O23   S    
C7    H11   S    
C11   C16   A    
Cr2   O20   S    
C29   H6    S    
C15   H13   S    
N1    H16   S    
C17   C18   A    
C32   C44   S    
C42   O16   A    
C34   O26   A    
Cr4   O13   S    
C26   H4    S    
C18   H1    S    
C49   H18   S    
Cr1   O1    S    
C22   C24   A    
Cr3   O3    S    
C4    C10   A    
C39   C47   S    
Cr6   O10   S    
C28   H5    S    
C46   C47   T    
C36   C37   T    
C17   H14   S    
C1    O20   A    
C23   O23   A    
C16   H15   S    
C34   O25   A    
C4    C5    A    
Cr4   O7    S    
C6    C7    A    
C38   O8    A    
C10   C23   S    
C49   H19   S    
C27   N2    S    
C40   O6    A    
C13   C17   A    
C22   C27   A    
C43   O18   A    
C2    C3    A    
C3    C10   A    
Cr6   O19   S    
C11   C13   A    
Cr6   O18   S    
C33   C35   T    
C44   O3    A    
Cr5   O19   S    
C34   C36   S    
N2    H20   S    
C35   C41   S    
Cr5   O9    S    
C15   C21   A    
C49   H17   S    
C30   H7    S    
C43   O13   A    
Cr1   O5    S    
Cr5   O16   S    
Cr1   O24   S    
C20   H3    S    
C50   H23   S    
