data_mof_unit_3533.cif
_audit_creation_date              2012-12-11T17:00:18-0500
_audit_creation_method            fapswitch 2.2
_symmetry_space_group_name_H-M    P1
_symmetry_Int_Tables_number       1
_space_group_crystal_system       triclinic
_cell_length_a                    6.962233
_cell_length_b                    13.556785
_cell_length_c                    20.268926
_cell_angle_alpha                 103.020136
_cell_angle_beta                  90.185933
_cell_angle_gamma                 90.372936
_cell_volume                      1863.8475552

loop_
_atom_site_label
_atom_site_type_symbol
_atom_type_description
_atom_site_fract_x
_atom_site_fract_y
_atom_site_fract_z
_atom_type_partial_charge
O1    O     O_R   0.506770 0.599700 0.449550 -0.538913
O2    O     O_R   0.179980 0.595740 0.587960 -0.545484
O3    O     O_R   0.004580 0.400300 0.550450 -0.537091
C1    C     C_R   0.348452 0.617727 0.615068 0.693266
O4    O     O_R   0.177380 0.611700 0.452380 -0.541076
O5    O     O_R   0.001970 0.416370 0.413900 -0.542257
C2    C     C_R   0.345977 0.638128 0.435531 0.693345
O6    O     O_R   0.509390 0.583630 0.586100 -0.537803
O7    O     O_3   0.337530 0.435890 0.487530 -0.370234
V1    V     V_3+5 0.064660 0.511890 0.502310 1.410102
O8    O     O_R   0.671950 0.404260 0.412040 -0.541305
C3    C     C_R   0.840380 0.383107 0.384666 0.693216
O9    O     O_R   0.674540 0.388300 0.547620 -0.540090
C4    C     C_R   0.843301 0.361478 0.564200 0.697338
V2    V     V_3+5 0.564030 0.488110 0.497690 1.414492
O10   O     O_3   0.841030 0.564110 0.512470 -0.371610
C5    C     C_R   0.895882 0.110818 0.611769 -0.159240
H1    H     H_    0.892198 0.159979 0.518258 0.103604
H2    H     H_    0.924698 0.987082 0.695642 0.117486
H3    H     H_    0.918298 0.032416 0.586392 0.112053
C6    C     C_R   0.852532 0.284500 0.604325 -0.032921
C7    C     C_R   0.830196 0.321010 0.932136 -0.016131
C8    C     C_R   0.804847 0.394535 0.894432 -0.156825
C9    C     C_R   0.811873 0.369842 0.824162 -0.188011
C10   C     C_R   0.844575 0.269484 0.788049 0.086870
C11   C     C_R   0.866709 0.193168 0.825702 0.056504
C12   C     C_R   0.854845 0.242390 0.715737 0.076536
C13   C     C_R   0.884082 0.139426 0.682686 0.141781
C14   C     C_R   0.902604 0.065767 0.720510 -0.206709
C15   C     C_R   0.894568 0.091998 0.790699 -0.188624
C16   C     C_R   0.839163 0.314022 0.674840 -0.212444
C17   C     C_R   0.880839 0.183050 0.572862 -0.176110
C18   C     C_R   0.859445 0.219145 0.897692 -0.156068
H4    H     H_    0.819545 0.393640 0.695867 0.090987
H5    H     H_    0.790649 0.431800 0.799833 0.115888
H6    H     H_    0.781588 0.472911 0.919684 0.149241
H7    H     H_    0.910867 0.031717 0.817290 0.103451
C19   C     C_R   0.708553 0.182589 0.226912 0.112539
C20   C     C_R   0.866900 0.183023 0.184574 -0.119038
C21   C     C_R   0.023194 0.246129 0.211143 -0.191800
H8    H     H_    0.146560 0.250589 0.179831 0.149052
C22   C     C_R   0.015682 0.309909 0.276406 -0.177382
H9    H     H_    0.134097 0.361312 0.293561 0.131821
C23   C     C_R   0.851456 0.312593 0.317181 -0.109244
C24   C     C_R   0.701179 0.245635 0.291703 0.107800
C25   C     C_3   0.495559 0.269829 0.283707 -0.416742
C26   C     C_3   0.503958 0.202437 0.213182 -0.407834
H10   H     H_    0.473869 0.351070 0.283813 0.167381
H11   H     H_    0.401666 0.239085 0.318677 0.173905
H12   H     H_    0.488435 0.244533 0.172293 0.179422
C27   C     C_R   0.500549 0.679384 0.730060 0.100947
C28   C     C_R   0.351996 0.683775 0.684219 -0.109309
C29   C     C_R   0.196061 0.747865 0.708125 -0.176293
H13   H     H_    0.077028 0.753253 0.674797 0.128719
C30   C     C_R   0.197412 0.810555 0.773825 -0.173634
H14   H     H_    0.080418 0.862587 0.788955 0.123832
C31   C     C_R   0.355025 0.811381 0.817553 -0.106707
C32   C     C_R   0.502557 0.742070 0.794879 0.103079
C33   C     C_3   0.713523 0.760096 0.792285 -0.400061
C34   C     C_3   0.711166 0.691610 0.721774 -0.407531
H15   H     H_    0.793923 0.727788 0.829852 0.172808
H16   H     H_    0.789690 0.619552 0.718598 0.166831
H17   H     H_    0.744392 0.731991 0.681114 0.168977
C35   C     C_R   0.330902 0.890072 0.388653 -0.159926
H18   H     H_    0.328337 0.840592 0.481971 0.102761
H19   H     H_    0.315265 0.014901 0.305311 0.123546
H20   H     H_    0.318840 0.969097 0.414259 0.112750
C36   C     C_R   0.352813 0.715157 0.395558 -0.031069
C37   C     C_R   0.370993 0.681422 0.068708 -0.163499
C38   C     C_R   0.372777 0.604905 0.104206 -0.063478
C39   C     C_R   0.366332 0.628260 0.174745 -0.155250
C40   C     C_R   0.355737 0.730027 0.211890 0.071013
C41   C     C_R   0.348481 0.807862 0.174948 0.069402
C42   C     C_R   0.351936 0.757273 0.284274 0.076148
C43   C     C_R   0.337372 0.861198 0.317695 0.142181
C44   C     C_R   0.327480 0.935637 0.280211 -0.206673
C45   C     C_R   0.332629 0.909420 0.210060 -0.193632
C46   C     C_R   0.361252 0.685186 0.324927 -0.212265
C47   C     C_R   0.337118 0.817335 0.427306 -0.175736
C48   C     C_R   0.358628 0.782653 0.103318 -0.081722
H21   H     H_    0.371958 0.605101 0.303547 0.090333
H22   H     H_    0.379513 0.661670 0.013932 0.107313
H23   H     H_    0.369443 0.564758 0.198453 0.109772
H24   H     H_    0.380627 0.526647 0.076841 0.160023
H25   H     H_    0.322503 0.969543 0.183256 0.112825
O11   O     O_R   0.203450 0.916320 0.913910 -0.545346
O12   O     O_R   0.535520 0.888300 0.047620 -0.539818
O13   O     O_R   0.710860 0.083650 0.086100 -0.538987
C49   C     C_R   0.366680 0.860981 0.063828 0.685048
O14   O     O_R   0.532860 0.904250 0.912040 -0.544501
O15   O     O_R   0.708190 0.099710 0.949550 -0.542241
C50   C     C_R   0.364198 0.882621 0.884805 0.689569
O16   O     O_R   0.206120 0.900260 0.050460 -0.541291
O17   O     O_3   0.375280 0.064080 0.012470 -0.367017
V3    V     V_3+5 0.648180 0.988110 0.997690 1.431384
O18   O     O_R   0.038220 0.111740 0.952370 -0.526265
C51   C     C_R   0.869345 0.139131 0.936209 0.756154
O19   O     O_R   0.040880 0.095790 0.087940 -0.537562
C52   C     C_R   0.872745 0.117215 0.115265 0.740790
V4    V     V_3+5 0.148800 0.011950 0.002300 1.446222
O20   O     O_3   0.871820 0.935920 0.987530 -0.377328
H26   H     H_    0.412624 0.133860 0.207292 0.165938
H27   H     H_    0.747901 0.840363 0.792551 0.166502
C53   C     C_2   0.826539 0.353871 0.007326 0.717192
O21   O     O_2   0.733391 0.428092 0.034460 -0.571686
O22   O     O_R   0.934244 0.302929 0.047299 -0.674009
H28   H     H_    0.922944 0.334895 0.097381 0.283687

loop_
_geom_bond_atom_site_label_1
_geom_bond_atom_site_label_2
_ccdc_geom_bond_type
C30   H14   S    
H18   C47   S    
C31   C50   S    
C1    O6    A    
C53   O22   S    
O14   V3    S    
C29   H13   S    
C23   C24   A    
C6    C16   A    
C25   H11   S    
C1    C28   S    
C34   H17   S    
C4    C6    S    
C13   C14   A    
O5    C3    A    
C19   C20   A    
O22   H28   S    
V2    O10   S    
O19   C52   A    
C5    H3    S    
C7    C53   S    
C34   H16   S    
C48   C49   S    
C19   C24   A    
C37   H22   S    
C2    C36   S    
O14   C50   A    
C35   C43   A    
O12   V3    S    
C8    C9    A    
C38   C39   A    
O1    V2    S    
C38   H24   S    
O7    V1    S    
O8    V2    S    
C36   C47   A    
C21   C22   A    
O13   V3    S    
C45   H25   S    
C33   C34   S    
C26   H26   S    
O9    C4    A    
C49   O16   A    
O17   V3    S    
C22   C23   A    
C53   O21   D    
C26   H12   S    
C39   H23   S    
C29   C30   A    
C36   C46   A    
C6    C17   A    
C25   H10   S    
C33   H15   S    
C9    H5    S    
C42   C43   A    
C12   C16   A    
C27   C28   A    
C35   H20   S    
C9    C10   A    
C40   C42   A    
C20   C21   A    
O4    C2    A    
C10   C11   A    
C24   C25   S    
O15   C51   A    
C15   H7    S    
O2    C1    A    
C43   C44   A    
C14   C15   A    
C11   C18   A    
C20   C52   S    
O9    V2    S    
O17   V4    S    
H19   C44   S    
O18   C51   A    
C16   H4    S    
C27   C32   A    
C44   C45   A    
O16   V4    S    
C19   C26   S    
O3    C4    A    
C21   H8    S    
C11   C15   A    
O6    V2    S    
O19   V4    S    
C30   C31   A    
C35   C47   A    
H1    C17   S    
C22   H9    S    
O2    V1    S    
O11   V4    S    
C28   C29   A    
C7    C18   A    
C25   C26   S    
O1    C2    A    
C5    C13   A    
C40   C41   A    
O5    V1    S    
O8    C3    A    
C10   C12   A    
C33   H27   S    
O12   C49   A    
C32   C33   S    
O4    V1    S    
C3    C23   S    
O3    V1    S    
O11   C50   A    
C46   H21   S    
C31   C32   A    
O18   V4    S    
V4    O20   S    
C41   C48   A    
C18   C51   S    
O7    V2    S    
C37   C38   A    
O13   C52   A    
O15   V3    S    
C39   C40   A    
C8    H6    S    
C42   C46   A    
C12   C13   A    
C5    C17   A    
C41   C45   A    
C7    C8    A    
C37   C48   A    
V1    O10   S    
C27   C34   S    
V3    O20   S    
H2    C14   S    
