data_mof_unit_84.cif
_audit_creation_date              2012-12-10T19:08:33-0500
_audit_creation_method            fapswitch 2.2
_symmetry_space_group_name_H-M    P1
_symmetry_Int_Tables_number       1
_space_group_crystal_system       triclinic
_cell_length_a                    15.960919
_cell_length_b                    10.902476
_cell_length_c                    9.626056
_cell_angle_alpha                 91.551524
_cell_angle_beta                  90.237395
_cell_angle_gamma                 92.07985
_cell_volume                      1673.3248098

loop_
_atom_site_label
_atom_site_type_symbol
_atom_type_description
_atom_site_fract_x
_atom_site_fract_y
_atom_site_fract_z
_atom_type_partial_charge
C1    C     C_R   0.498699 0.262653 0.497452 0.798077
C2    C     C_R   0.043004 0.405798 0.556075 -0.100239
C3    C     C_1   0.822686 0.502149 0.502584 -0.064593
C4    C     C_1   0.177360 0.503092 0.499273 -0.033674
C5    C     C_1   0.252434 0.501324 0.499263 -0.096969
C6    C     C_1   0.747580 0.501912 0.501206 -0.111675
C7    C     C_R   0.513920 0.066851 0.610189 -0.140352
C8    C     C_R   0.494455 0.129167 0.491471 -0.192654
C9    C     C_R   0.468677 0.056815 0.371277 -0.104031
C10   C     C_R   0.459771 0.927371 0.380971 0.480417
C11   C     C_R   0.490173 0.868769 0.500398 -0.241970
C12   C     C_R   0.341525 0.499887 0.499718 0.785362
C13   C     C_R   0.516192 0.943216 0.612402 -0.128638
C14   C     C_3   0.556995 0.946637 0.755764 0.894111
C15   C     C_3   0.551212 0.088637 0.751770 -0.260379
C16   C     C_R   0.571031 0.529259 0.073795 0.222915
C17   C     C_R   0.433840 0.448882 0.072139 -0.020085
C18   C     C_R   0.434566 0.447084 0.922873 0.036125
C19   C     C_R   0.571538 0.527109 0.928823 0.210160
C20   C     C_3   0.631539 0.635592 0.926817 -0.447523
C21   C     C_3   0.632079 0.636162 0.088654 0.794366
C22   C     C_R   0.497213 0.736735 0.501116 0.803428
C23   C     C_R   0.658466 0.500893 0.500331 0.810693
C24   C     C_R   0.955146 0.402293 0.559249 -0.005990
C25   C     C_R   0.912450 0.501264 0.504349 0.020327
C26   C     C_R   0.957044 0.601206 0.448829 -0.142289
C27   C     C_R   0.044910 0.604619 0.445455 0.008533
C28   C     C_R   0.087603 0.505340 0.499698 0.013805
Cu1   Cu    Cu3+1 0.500000 0.499980 0.640670 0.982493
Cu2   Cu    Cu3+1 0.500000 0.500020 0.359330 1.002857
H1    H     H_    0.077212 0.330688 0.597538 0.196914
H2    H     H_    0.601500 0.714044 0.879657 0.217278
H3    H     H_    0.922863 0.676551 0.407919 0.169241
H4    H     H_    0.506081 0.128324 0.826734 0.152897
N1    N     N_R   0.500520 0.500930 0.147930 -0.240064
N2    N     N_R   0.500520 0.500890 0.852020 -0.228392
O1    O     O_R   0.500000 0.319640 0.618810 -0.584991
O2    O     O_R   0.500010 0.319680 0.381230 -0.636367
O3    O     O_R   0.380300 0.499950 0.618760 -0.568246
O4    O     O_R   0.380310 0.499990 0.381180 -0.595078
O5    O     O_R   0.499990 0.680320 0.618770 -0.591592
O6    O     O_R   0.500000 0.680360 0.381190 -0.478149
O7    O     O_R   0.619690 0.500010 0.618820 -0.556386
O8    O     O_R   0.619700 0.500050 0.381240 -0.533617
C29   C     C_2   0.633610 0.160512 0.747996 0.494443
H5    H     H_    0.679403 0.141489 0.667953 0.065006
O9    O     O_2   0.649139 0.241833 0.834845 -0.507664
C30   C     C_2   0.363740 0.385388 0.143628 0.474378
H6    H     H_    0.376011 0.318972 0.221462 0.094994
O10   O     O_2   0.291209 0.411000 0.121121 -0.494747
C31   C     C_2   0.369880 0.372027 0.846070 0.492423
H7    H     H_    0.386996 0.289997 0.788708 0.049604
O11   O     O_2   0.296882 0.401816 0.845291 -0.491943
C32   C     C_2   0.714722 0.606811 0.861977 0.457966
H8    H     H_    0.753744 0.680736 0.821263 0.058544
O12   O     O_2   0.740351 0.502520 0.858634 -0.473330
O13   O     O_3   0.704993 0.592821 0.154189 -0.566258
C33   C     C_3   0.768226 0.684856 0.175811 -0.239534
H9    H     H_    0.754329 0.741846 0.269572 0.160954
H10   H     H_    0.779025 0.741901 0.083380 0.132757
H11   H     H_    0.827859 0.639441 0.196612 0.197341
O14   O     O_3   0.592628 0.734102 0.160325 -0.550860
C34   C     C_3   0.625240 0.852120 0.127506 -0.228058
H12   H     H_    0.572191 0.912817 0.110693 0.246036
H13   H     H_    0.665486 0.855326 0.033901 0.165888
H14   H     H_    0.661048 0.892054 0.217836 0.135048
C35   C     C_2   0.909029 0.295583 0.619743 0.418577
H15   H     H_    0.841073 0.292060 0.623812 0.090273
O15   O     O_2   0.946482 0.209847 0.666152 -0.519558
C36   C     C_2   0.091021 0.711444 0.385278 0.396219
H16   H     H_    0.158985 0.715263 0.381966 0.056346
O16   O     O_2   0.053553 0.796947 0.338353 -0.530284
C37   C     C_2   0.456421 0.110258 0.232704 0.367548
H17   H     H_    0.501852 0.176546 0.192884 0.085542
O17   O     O_2   0.396639 0.078007 0.159253 -0.545654
O18   O     O_3   0.428366 0.858606 0.268025 -0.520437
C38   C     C_3   0.343411 0.826822 0.293477 -0.161774
H18   H     H_    0.336200 0.768079 0.385678 0.100955
H19   H     H_    0.317860 0.773232 0.202262 0.191824
H20   H     H_    0.305469 0.909938 0.307074 0.173483
O19   O     O_3   0.509212 0.894488 0.866144 -0.599670
C39   C     C_3   0.421226 0.892318 0.846837 -0.247762
H21   H     H_    0.401370 0.823010 0.765633 0.171365
H22   H     H_    0.397765 0.983841 0.822014 0.151138
H23   H     H_    0.391197 0.864360 0.945331 0.236278
O20   O     O_3   0.642530 0.912810 0.767666 -0.614526
C40   C     C_3   0.678818 0.867810 0.643660 -0.413120
H24   H     H_    0.746654 0.856846 0.662713 0.204436
H25   H     H_    0.673986 0.933086 0.557550 0.162790
H26   H     H_    0.651615 0.775930 0.614052 0.176965

loop_
_geom_bond_atom_site_label_1
_geom_bond_atom_site_label_2
_ccdc_geom_bond_type
C40   H24   S    
C34   H13   S    
C16   C21   S    
C1    C8    S    
C37   H17   S    
C19   C20   S    
C17   C30   S    
C3    C6    T    
O19   C39   S    
C7    C8    A    
C38   H18   S    
Cu1   N2    S    
C26   C27   A    
O14   C34   S    
Cu2   N1    S    
C19   N2    A    
C16   N1    A    
C22   O5    A    
C33   H10   S    
C23   O7    A    
Cu2   O2    S    
C24   C35   S    
C10   O18   S    
C8    C9    A    
C36   H16   S    
C9    C10   A    
C15   H4    S    
C1    O1    A    
C33   H11   S    
C30   O10   D    
C34   H14   S    
C13   C14   S    
Cu1   O7    S    
C37   O17   D    
Cu2   O8    S    
C9    C37   S    
C4    C28   S    
C18   C31   S    
C29   O9    D    
C32   O12   D    
C35   H15   S    
C3    C25   S    
O18   C38   S    
C14   O20   S    
C5    C12   S    
C20   C32   S    
O20   C40   S    
C25   C26   A    
C29   H5    S    
C23   O8    A    
C31   H7    S    
C2    H1    S    
C35   O15   D    
C12   O4    A    
C21   O13   S    
Cu1   Cu2   S    
C26   H3    S    
Cu1   O3    S    
C17   C18   A    
C38   H19   S    
Cu2   O4    S    
C24   C25   A    
C21   O14   S    
C27   C36   S    
C1    O2    A    
C30   H6    S    
C39   H22   S    
C40   H25   S    
C2    C24   A    
C15   C29   S    
C20   H2    S    
C38   H20   S    
C32   H8    S    
Cu1   O5    S    
C4    C5    T    
C36   O16   D    
C39   H23   S    
C11   C22   S    
C12   O3    A    
C33   H9    S    
C11   C13   A    
O13   C33   S    
C22   O6    A    
C16   C19   A    
C6    C23   S    
C7    C15   S    
C10   C11   A    
C34   H12   S    
C7    C13   A    
C20   C21   S    
C39   H21   S    
C40   H26   S    
Cu1   O1    S    
C27   C28   A    
C14   C15   S    
Cu2   O6    S    
C2    C28   A    
C17   N1    A    
C14   O19   S    
C31   O11   D    
C18   N2    A    
