data_mof_unit_2385.cif
_audit_creation_date              2012-12-10T16:44:38-0500
_audit_creation_method            fapswitch 2.2
_symmetry_space_group_name_H-M    P1
_symmetry_Int_Tables_number       1
_space_group_crystal_system       triclinic
_cell_length_a                    15.138054
_cell_length_b                    8.760353
_cell_length_c                    7.593499
_cell_angle_alpha                 103.42319
_cell_angle_beta                  93.125731
_cell_angle_gamma                 95.135315
_cell_volume                      972.61660195

loop_
_atom_site_label
_atom_site_type_symbol
_atom_type_description
_atom_site_fract_x
_atom_site_fract_y
_atom_site_fract_z
_atom_type_partial_charge
C1    C     C_R   0.492537 0.199930 0.454303 0.829426
C2    C     C_R   0.504872 0.800137 0.546314 0.854442
C3    C     C_R   0.025513 0.218475 0.301251 0.411154
C4    C     C_R   0.973684 0.779482 0.617195 0.389591
C5    C     C_2   0.477484 0.030740 0.438361 0.276027
C6    C     C_2   0.517997 0.969764 0.565124 0.198236
C7    C     C_R   0.329195 0.489980 0.501485 0.890479
C8    C     C_R   0.670768 0.501040 0.496657 0.779599
C9    C     C_R   0.826122 0.633398 0.583551 0.481350
C10   C     C_R   0.177163 0.353277 0.400453 0.415343
C11   C     C_R   0.767830 0.501724 0.487198 -0.222893
C12   C     C_R   0.232132 0.485231 0.505105 -0.218699
C13   C     C_R   0.802696 0.372775 0.375428 -0.162791
C14   C     C_R   0.194925 0.616044 0.604546 -0.050176
C15   C     C_R   0.895788 0.360338 0.388960 -0.041404
C16   C     C_R   0.103006 0.628296 0.576075 -0.045745
C17   C     C_R   0.953532 0.495446 0.479130 -0.059398
C18   C     C_R   0.046565 0.491819 0.483828 -0.067904
C19   C     C_R   0.918075 0.635724 0.563484 -0.001539
C20   C     C_R   0.083218 0.353417 0.394312 -0.031165
C21   C     C_R   0.932523 0.218508 0.310850 -0.106504
C22   C     C_R   0.067270 0.776024 0.624690 -0.124019
Cu1   Cu    Cu3+1 0.510010 0.517380 0.684380 1.011013
Cu2   Cu    Cu3+1 0.489990 0.482620 0.315620 0.999947
N1    N     N_2   0.474890 0.456420 0.038520 -0.247879
N2    N     N_2   0.525110 0.543580 0.961480 -0.245842
O1    O     O_R   0.506510 0.286130 0.619770 -0.544416
O2    O     O_R   0.493490 0.713870 0.380230 -0.545687
O3    O     O_R   0.489600 0.256770 0.308360 -0.621142
O4    O     O_R   0.510400 0.743230 0.691640 -0.627320
O5    O     O_R   0.378710 0.514640 0.655720 -0.584819
O6    O     O_R   0.621290 0.485360 0.344280 -0.596371
O7    O     O_R   0.361800 0.485290 0.344300 -0.572971
O8    O     O_R   0.638200 0.514710 0.655700 -0.545479
O9    O     O_3   0.797281 0.753066 0.714809 -0.582027
C23   C     C_3   0.737237 0.838490 0.638831 -0.086728
H1    H     H_    0.671372 0.812640 0.685216 0.161070
H2    H     H_    0.733096 0.814194 0.488281 0.145007
H3    H     H_    0.756130 0.966332 0.693215 0.238270
O10   O     O_3   0.214442 0.213515 0.340050 -0.598260
C24   C     C_3   0.241247 0.200470 0.162701 -0.075219
H4    H     H_    0.313940 0.227581 0.168205 0.148271
H5    H     H_    0.206741 0.273578 0.083878 0.184324
H6    H     H_    0.227898 0.075434 0.087793 0.242724
C25   C     C_2   0.742358 0.259550 0.233585 0.934997
O11   O     O_2   0.754920 0.248309 0.073857 -0.533280
O12   O     O_R   0.674179 0.161084 0.279484 -0.755622
H7    H     H_    0.675159 0.170556 0.415082 0.315849
C26   C     C_2   0.251796 0.736334 0.744263 0.906169
O13   O     O_2   0.231776 0.766838 0.901498 -0.591705
O14   O     O_R   0.324327 0.821147 0.692610 -0.743285
H8    H     H_    0.351445 0.912738 0.793327 0.306300
C27   C     C_2   0.875176 0.066048 0.260422 0.856267
O15   O     O_2   0.832836 0.023092 0.375623 -0.600014
O16   O     O_R   0.864698 0.976879 0.081689 -0.759219
H9    H     H_    0.824031 0.875731 0.067007 0.359960
C28   C     C_2   0.128013 0.924251 0.649604 0.808492
O17   O     O_2   0.134434 0.024264 0.792563 -0.632277
O18   O     O_R   0.186452 0.939010 0.517057 -0.725075
H10   H     H_    0.230363 0.036906 0.555567 0.378044
O19   O     O_3   0.059122 0.101584 0.173838 -0.582035
C29   C     C_3   0.053482 0.954619 0.221175 -0.133659
H11   H     H_    0.006793 0.867472 0.122216 0.169250
H12   H     H_    0.032884 0.959694 0.359751 0.163161
H13   H     H_    0.119049 0.908162 0.208052 0.252907
O20   O     O_3   0.934783 0.914975 0.603814 -0.593468
C30   C     C_3   0.952812 0.040236 0.759139 -0.081646
H14   H     H_    0.997361 0.135875 0.726611 0.161718
H15   H     H_    0.980723 0.003306 0.878018 0.238920
H16   H     H_    0.890575 0.092579 0.795982 0.214198
O21   O     O_3   0.405574 0.943434 0.328105 -0.565369
C31   C     C_3   0.423731 0.921747 0.144971 -0.165474
H17   H     H_    0.495229 0.913728 0.122513 0.169142
H18   H     H_    0.399169 0.018020 0.090693 0.131868
H19   H     H_    0.387698 0.808521 0.067880 0.242257
O22   O     O_3   0.587214 0.058999 0.682326 -0.648487
C32   C     C_3   0.565270 0.079060 0.863600 -0.128611
H20   H     H_    0.595561 0.991088 0.925149 0.195381
H21   H     H_    0.492603 0.073504 0.878742 0.134536
H22   H     H_    0.593494 0.198268 0.940573 0.249476
C33   C     C_2   0.388280 0.407380 0.954531 1.055666
O23   O     O_2   0.329299 0.493717 0.990101 -0.591669
O24   O     O_R   0.369311 0.257922 0.837967 -0.822841
H23   H     H_    0.304709 0.236408 0.788879 0.310585
C34   C     C_2   0.610602 0.601938 0.046908 1.098150
O25   O     O_2   0.672291 0.520969 0.017475 -0.566953
O26   O     O_R   0.626050 0.757243 0.149619 -0.804677
H24   H     H_    0.691183 0.789787 0.189776 0.322201

loop_
_geom_bond_atom_site_label_1
_geom_bond_atom_site_label_2
_ccdc_geom_bond_type
C4    O20   S    
O16   H9    S    
C7    O7    A    
C24   H4    S    
O9    C23   S    
O26   H24   S    
C22   C28   S    
C33   O23   D    
C27   O15   D    
C1    C5    S    
C23   H1    S    
C8    C11   S    
C5    C6    D    
C28   O18   S    
C14   C26   S    
C3    O19   S    
C10   O10   S    
C25   O12   S    
Cu1   N2    S    
Cu2   O3    S    
C29   H12   S    
C4    C19   A    
C9    C19   A    
O12   H7    S    
C10   C20   A    
C26   O14   S    
Cu1   Cu2   S    
Cu1   O1    S    
C32   H20   S    
C27   O16   S    
O20   C30   S    
O18   H10   S    
N1    C33   S    
C24   H5    S    
C2    C6    S    
C31   H19   S    
C33   O24   S    
C34   O26   S    
C7    C12   S    
C7    O5    A    
C30   H14   S    
C8    O6    A    
Cu1   O4    S    
O22   C32   S    
C31   H18   S    
N1    N2    D    
C34   O25   D    
O14   H8    S    
C30   H15   S    
Cu1   O5    S    
Cu2   O6    S    
C29   H11   S    
C4    C22   A    
O24   H23   S    
Cu1   O8    S    
C1    O3    A    
C17   C18   A    
C32   H21   S    
C3    C20   A    
C8    O8    A    
Cu2   N1    S    
C9    C11   A    
C10   C12   A    
O10   C24   S    
C12   C14   A    
C13   C15   A    
C24   H6    S    
C14   C16   A    
C3    C21   A    
C13   C25   S    
C9    O9    S    
C32   H22   S    
C15   C17   A    
C16   C22   A    
C29   H13   S    
C23   H3    S    
Cu2   O2    S    
C31   H17   S    
C6    O22   S    
Cu2   O7    S    
C2    O4    A    
C30   H16   S    
C23   H2    S    
O21   C31   S    
C5    O21   S    
C21   C27   S    
C11   C13   A    
C28   O17   D    
N2    C34   S    
C17   C19   A    
C18   C20   A    
O19   C29   S    
C25   O11   D    
C15   C21   A    
C16   C18   A    
C26   O13   D    
C1    O1    A    
C2    O2    A    
