data_mof_unit_2520.cif
_audit_creation_date              2013-03-05T15:46:21-0500
_audit_creation_method            fapswitch 2.2
_symmetry_space_group_name_H-M    P1
_symmetry_Int_Tables_number       1
_space_group_crystal_system       triclinic
_cell_length_a                    10.907608
_cell_length_b                    10.959156
_cell_length_c                    18.826015
_cell_angle_alpha                 90.358928
_cell_angle_beta                  90.791
_cell_angle_gamma                 59.838445
_cell_volume                      1945.56092792

loop_
_atom_site_label
_atom_site_type_symbol
_atom_site_description
_atom_site_fract_x
_atom_site_fract_y
_atom_site_fract_z
_atom_type_partial_charge
O1    O     O_R   0.748800 0.497470 0.428000 -0.543786
O2    O     O_R   0.476420 0.724060 0.429470 -0.485298
C1    C     C_R   0.358997 0.770789 0.396719 0.601020
O3    O     O_R   0.264580 0.744340 0.416750 -0.499424
O4    O     O_R   0.309380 0.472470 0.418200 -0.507708
C2    C     C_R   0.386285 0.355553 0.387150 0.569272
O5    O     O_R   0.501710 0.260430 0.414300 -0.505223
O6    O     O_R   0.728090 0.305600 0.428960 -0.505969
C3    C     C_R   0.773826 0.381546 0.401984 0.550767
O7    O     O_R   0.738760 0.495930 0.588610 -0.532496
O8    O     O_R   0.467110 0.722640 0.578360 -0.477626
C4    C     C_R   0.347803 0.761902 0.606702 0.585121
O9    O     O_R   0.254530 0.742800 0.577360 -0.516214
O10   O     O_R   0.300070 0.471040 0.567100 -0.525647
C5    C     C_R   0.368353 0.350302 0.595212 0.584214
O11   O     O_R   0.491670 0.258900 0.574910 -0.427078
O12   O     O_R   0.718780 0.304180 0.577850 -0.447161
C6    C     C_R   0.760051 0.378036 0.611870 0.569249
Cr1   Cr    Cr6+3 0.601770 0.606860 0.505860 1.052459
Cr2   Cr    Cr6+3 0.291380 0.601660 0.495070 1.047683
Cr3   Cr    Cr6+3 0.606880 0.291510 0.499120 1.100550
O13   O     O_3   0.500010 0.500010 0.500020 -0.289452
C7    C     C_R   0.846533 0.893533 0.099847 -0.114775
C8    C     C_R   0.794705 0.032456 0.077513 -0.093559
C9    C     C_R   0.679681 0.143916 0.111904 -0.066390
C10   C     C_R   0.612196 0.116341 0.167508 0.053085
H1    H     H_    0.576180 0.163588 0.302506 0.143369
C11   C     C_R   0.359806 0.330447 0.162669 -0.007132
C12   C     C_R   0.481137 0.239959 0.274277 -0.126850
C13   C     C_R   0.482994 0.233045 0.200996 -0.031162
C14   C     C_R   0.063929 0.706187 0.282860 -0.090951
C15   C     C_R   0.945108 0.817782 0.314531 -0.102094
C16   C     C_R   0.664815 0.975797 0.189354 -0.093153
C17   C     C_R   0.781711 0.865281 0.155765 -0.120395
C18   C     C_R   0.246090 0.441139 0.198692 -0.151655
C19   C     C_R   0.244548 0.448760 0.272633 -0.028891
C20   C     C_R   0.878007 0.791853 0.370143 -0.106651
C21   C     C_R   0.928732 0.653820 0.393574 -0.107376
C22   C     C_R   0.045388 0.541114 0.360800 -0.054548
C23   C     C_R   0.116805 0.566647 0.306371 0.047194
C24   C     C_R   0.363667 0.344348 0.311152 0.033627
H2    H     H_    0.821709 0.757606 0.172904 0.114115
H3    H     H_    0.904766 0.924304 0.295647 0.107075
H4    H     H_    0.936354 0.807701 0.073520 0.108759
H5    H     H_    0.843173 0.053507 0.033118 0.147494
H6    H     H_    0.640888 0.251157 0.094123 0.098779
H7    H     H_    0.114724 0.728930 0.240071 0.116628
H8    H     H_    0.614179 0.951523 0.231695 0.120937
H9    H     H_    0.152115 0.516542 0.169400 0.134736
H10   H     H_    0.786587 0.878665 0.394977 0.135830
H11   H     H_    0.877670 0.634489 0.437331 0.151301
H12   H     H_    0.081818 0.434504 0.378825 0.154430
C25   C     C_R   0.872448 0.226675 0.297905 -0.121376
H13   H     H_    0.897213 0.134901 0.329615 0.131326
C26   C     C_R   0.895329 0.213021 0.225458 -0.128900
H14   H     H_    0.942773 0.108447 0.202371 0.147829
C27   C     C_R   0.863174 0.332571 0.184234 0.026258
C28   C     C_R   0.804813 0.465481 0.215305 -0.139510
H15   H     H_    0.778804 0.558475 0.184253 0.126850
C29   C     C_R   0.783139 0.478735 0.287319 -0.132627
H16   H     H_    0.735145 0.583841 0.309819 0.147173
C30   C     C_R   0.818120 0.359206 0.329058 0.041446
C31   C     C_R   0.388637 0.696311 0.273245 -0.163252
H17   H     H_    0.413050 0.592491 0.290968 0.122605
C32   C     C_R   0.382994 0.722611 0.200939 -0.167621
H18   H     H_    0.398086 0.641220 0.163216 0.115552
C33   C     C_R   0.351148 0.856062 0.177919 0.005804
C34   C     C_R   0.327766 0.962415 0.227180 -0.102419
H19   H     H_    0.298850 0.067352 0.209008 0.149090
C35   C     C_R   0.329545 0.937414 0.299764 0.119422
C36   C     C_R   0.357279 0.804616 0.322497 0.048773
C37   C     C_R   0.375505 0.196651 0.692476 0.162270
C38   C     C_R   0.363571 0.184051 0.764617 -0.086072
H20   H     H_    0.410715 0.079089 0.787143 0.161612
C39   C     C_R   0.294318 0.304772 0.807770 0.003980
C40   C     C_R   0.223869 0.438723 0.777442 -0.151143
H21   H     H_    0.165735 0.532142 0.809890 0.131065
C41   C     C_R   0.236257 0.452205 0.705071 -0.160073
H22   H     H_    0.189997 0.557546 0.683157 0.147558
C42   C     C_R   0.318967 0.331568 0.663148 0.040801
C43   C     C_R   0.777048 0.464013 0.728649 -0.162172
H23   H     H_    0.760882 0.560672 0.704934 0.148408
C44   C     C_R   0.777768 0.458518 0.801283 -0.141805
H24   H     H_    0.764397 0.550118 0.830266 0.141246
C45   C     C_R   0.813847 0.331932 0.835628 -0.002072
C46   C     C_R   0.827586 0.217013 0.796084 -0.101662
H25   H     H_    0.855678 0.118300 0.822100 0.149211
C47   C     C_R   0.814205 0.226023 0.722116 0.148563
C48   C     C_R   0.793632 0.349712 0.687585 0.040739
C49   C     C_R   0.205515 0.822636 0.715054 -0.124509
H26   H     H_    0.117767 0.827613 0.685158 0.181487
C50   C     C_R   0.194025 0.837772 0.787835 -0.132551
H27   H     H_    0.094543 0.862077 0.811803 0.146932
C51   C     C_R   0.305777 0.831899 0.828090 0.024601
C52   C     C_R   0.433036 0.799917 0.795460 -0.143964
H28   H     H_    0.520678 0.794716 0.825789 0.124652
C53   C     C_R   0.444871 0.782830 0.722534 -0.111644
H29   H     H_    0.543655 0.758411 0.698187 0.165337
C54   C     C_R   0.329643 0.798643 0.681572 0.046748
O14   O     O_R   0.186690 0.923650 0.086970 -0.522509
O15   O     O_R   0.957250 0.194250 0.084630 -0.523386
C55   C     C_R   0.912955 0.314346 0.112314 0.542979
O16   O     O_R   0.934970 0.407490 0.085330 -0.522194
O17   O     O_R   0.203780 0.365190 0.067090 -0.508431
C56   C     C_R   0.329900 0.294677 0.092065 0.538862
O18   O     O_R   0.417600 0.174890 0.067840 -0.503105
O19   O     O_R   0.375320 0.946260 0.070860 -0.496764
C57   C     C_R   0.309617 0.897615 0.104911 0.540794
O20   O     O_R   0.160600 0.919630 0.926660 -0.530984
O21   O     O_R   0.933060 0.190520 0.936020 -0.518272
C58   C     C_R   0.877946 0.311270 0.906029 0.545213
O22   O     O_R   0.908880 0.403460 0.925020 -0.518994
O23   O     O_R   0.179600 0.361450 0.918490 -0.499277
C59   C     C_R   0.291341 0.283809 0.883345 0.550457
O24   O     O_R   0.391510 0.170860 0.907530 -0.524672
O25   O     O_R   0.351130 0.942530 0.922260 -0.509209
C60   C     C_R   0.276840 0.891151 0.898887 0.546709
Cr4   Cr    Cr6+3 0.062440 0.063090 0.008210 0.986272
Cr5   Cr    Cr6+3 0.062880 0.375170 0.998920 1.011733
Cr6   Cr    Cr6+3 0.374700 0.061720 0.992470 1.027812
O26   O     O_3   0.166667 0.166667 0.999870 -0.244435
Br1   Br    Br    0.282318 0.088198 0.365592 -0.549690
Br2   Br    Br    0.474500 0.027500 0.636976 -0.466423
Br3   Br    Br    0.829963 0.064613 0.673065 -0.495484

loop_
_geom_bond_atom_site_label_1
_geom_bond_atom_site_label_2
_geom_bond_distance
_ccdc_geom_bond_type
C26   H14   1.083573 S    
C31   C32   1.387310 A    
O15   C55   1.263592 A    
H1    C12   1.084487 S    
C38   H20   1.083120 S    
O19   Cr6   1.947707 S    
C52   H28   1.083377 S    
C17   H2    1.081887 S    
C47   Br3   1.920863 S    
O21   Cr4   1.944031 S    
C43   H23   1.081018 S    
C49   H26   1.081147 S    
O20   C60   1.263712 A    
O4    Cr2   1.959637 S    
C25   H13   1.082106 S    
C14   C23   1.407930 A    
C27   C55   1.440799 S    
O8    Cr1   1.947092 S    
C20   C21   1.396279 A    
C44   H24   1.083951 S    
O15   Cr4   1.953146 S    
C40   C41   1.387094 A    
C21   C22   1.399352 A    
C51   C60   1.446547 S    
C46   C47   1.397076 A    
C33   C57   1.443971 S    
C28   C29   1.373633 A    
C5    O11   1.270508 A    
O25   C60   1.269979 A    
C29   C30   1.407600 A    
O21   C58   1.277474 A    
C4    C54   1.452081 S    
C53   C54   1.400152 A    
O23   Cr5   1.947877 S    
C58   O22   1.263775 A    
C11   C18   1.403893 A    
C34   H19   1.084672 S    
C32   C33   1.393090 A    
C2    C24   1.463377 S    
C18   H9    1.084705 S    
O19   C57   1.268716 A    
O18   Cr6   2.076852 S    
C35   C36   1.398063 A    
O7    Cr1   2.066789 S    
O17   Cr5   1.949205 S    
C43   C48   1.401250 A    
C47   C48   1.418375 A    
C25   C26   1.383543 A    
C22   H12   1.082963 S    
C14   H7    1.082411 S    
Cr3   O13   1.975792 S    
C38   C39   1.407184 A    
C19   C24   1.419074 A    
C55   O16   1.270396 A    
O17   C56   1.276373 A    
C43   C44   1.368843 A    
O20   Cr4   2.073358 S    
C53   H29   1.079375 S    
Cr5   O26   1.975791 S    
O1    Cr1   2.066066 S    
O14   C57   1.263961 A    
C3    C30   1.439961 S    
O10   Cr2   1.944581 S    
C19   C23   1.489704 S    
Cr1   O13   1.978992 S    
O1    C3    1.255305 A    
C8    C9    1.399238 A    
C22   C23   1.407046 A    
C41   H22   1.082783 S    
O6    C3    1.276337 A    
C21   H11   1.080337 S    
C28   H15   1.083143 S    
C45   C46   1.401594 A    
O12   Cr3   1.955420 S    
C7    H4    1.082503 S    
C33   C34   1.406362 A    
C29   H16   1.083678 S    
Cr4   O26   1.977251 S    
C1    C36   1.445335 S    
C39   C40   1.391524 A    
C12   C13   1.381064 A    
C25   C30   1.392374 A    
C35   Br1   1.915302 S    
C10   C16   1.408546 A    
C49   C50   1.378985 A    
C5    C42   1.449655 S    
C11   C56   1.461796 S    
C7    C8    1.396744 A    
C7    C17   1.395928 A    
C50   C51   1.400208 A    
O12   C6    1.272655 A    
C39   C59   1.446016 S    
C15   C20   1.395142 A    
C40   H21   1.083465 S    
C44   C45   1.397525 A    
Cr2   O13   1.968827 S    
C10   C13   1.490814 S    
C26   C27   1.409020 A    
C37   Br2   1.920807 S    
O14   Cr4   2.064519 S    
C8    H5    1.080931 S    
C1    O3    1.264479 A    
C49   C54   1.401203 A    
Cr6   O26   1.968605 S    
O23   C59   1.272941 A    
O9    Cr2   2.077617 S    
C12   C24   1.405016 A    
O2    Cr1   1.947172 S    
C46   H25   1.083272 S    
C6    C48   1.462593 S    
C14   C15   1.396557 A    
O16   Cr5   2.068142 S    
C31   C36   1.404461 A    
C37   C38   1.380511 A    
C45   C58   1.454573 S    
O6    Cr3   1.942252 S    
O22   Cr5   2.066606 S    
O8    C4    1.271600 A    
C52   C53   1.383473 A    
O11   Cr3   2.061540 S    
C59   O24   1.252027 A    
C2    O5    1.266146 A    
C56   O18   1.260576 A    
C11   C13   1.416729 A    
O2    C1    1.267253 A    
C9    C10   1.406319 A    
C37   C42   1.398538 A    
O5    Cr3   2.077753 S    
C20   H10   1.082607 S    
C27   C28   1.391717 A    
O4    C2    1.269327 A    
O7    C6    1.271917 A    
C50   H27   1.083329 S    
C15   H3    1.080518 S    
C16   C17   1.397633 A    
C41   C42   1.411643 A    
C32   H18   1.083887 S    
C51   C52   1.399621 A    
C31   H17   1.083804 S    
O3    Cr2   2.064495 S    
O25   Cr6   1.955975 S    
C4    O9    1.257414 A    
C34   C35   1.393300 A    
O24   Cr6   2.067302 S    
C16   H8    1.083358 S    
O10   C5    1.262230 A    
C18   C19   1.393836 A    
C9    H6    1.083352 S    
