data_mof_unit_1194.cif
_audit_creation_date              2012-12-11T17:08:35-0500
_audit_creation_method            fapswitch 2.2
_symmetry_space_group_name_H-M    P1
_symmetry_Int_Tables_number       1
_space_group_crystal_system       triclinic
_cell_length_a                    6.969998
_cell_length_b                    14.515247
_cell_length_c                    16.091378
_cell_angle_alpha                 89.982778
_cell_angle_beta                  90.016506
_cell_angle_gamma                 90.000623
_cell_volume                      1627.98456556

loop_
_atom_site_label
_atom_site_type_symbol
_atom_type_description
_atom_site_fract_x
_atom_site_fract_y
_atom_site_fract_z
_atom_type_partial_charge
O1    O     O_R   0.505700 0.583890 0.413310 -0.537687
O2    O     O_R   0.175960 0.594920 0.586080 -0.543201
O3    O     O_R   0.005660 0.416110 0.586690 -0.533697
C1    C     C_R   0.344753 0.616908 0.614814 0.698186
O4    O     O_R   0.175980 0.594920 0.413930 -0.543776
O5    O     O_R   0.005680 0.416110 0.413310 -0.540159
C2    C     C_R   0.344635 0.616925 0.385239 0.725221
O6    O     O_R   0.505680 0.583890 0.586690 -0.537036
O7    O     O_3   0.339200 0.441330 0.500000 -0.370279
V1    V     V_3+5 0.064350 0.510880 0.500000 1.393566
O8    O     O_R   0.675960 0.405080 0.413920 -0.539759
C3    C     C_R   0.844989 0.383181 0.385087 0.696791
O9    O     O_R   0.675940 0.405080 0.586070 -0.545577
C4    C     C_R   0.844740 0.383089 0.614793 0.699385
V2    V     V_3+5 0.564340 0.489120 0.500000 1.395658
O10   O     O_3   0.839360 0.558670 0.500000 -0.371917
C5    C     C_R   0.010813 0.315240 0.739422 0.003978
C6    C     C_R   0.853066 0.317559 0.685420 -0.078411
C7    C     C_R   0.700742 0.256558 0.701894 -0.167181
H1    H     H_    0.577353 0.254996 0.661318 0.148706
C8    C     C_R   0.712373 0.192251 0.767263 -0.162864
H2    H     H_    0.597932 0.143050 0.775335 0.197359
C9    C     C_R   0.876311 0.186775 0.818085 -0.062900
C10   C     C_R   0.022700 0.250814 0.803778 -0.002605
C11   C     C_3   0.229085 0.232841 0.786383 0.488537
C12   C     C_3   0.217338 0.304381 0.717887 -0.423553
H3    H     H_    0.325475 0.251572 0.838742 0.030338
H4    H     H_    0.238181 0.275745 0.654423 0.198168
H5    H     H_    0.301232 0.367720 0.731607 0.118747
C13   C     C_R   0.727677 0.182669 0.241363 0.104265
C14   C     C_R   0.882037 0.182315 0.185557 -0.109104
C15   C     C_R   0.033639 0.244031 0.201436 -0.178739
H6    H     H_    0.156235 0.246149 0.160427 0.132121
C16   C     C_R   0.022385 0.308237 0.266946 -0.172869
H7    H     H_    0.137286 0.357568 0.274566 0.128555
C17   C     C_R   0.858864 0.312924 0.318393 -0.110787
C18   C     C_R   0.716092 0.246460 0.305943 0.106921
C19   C     C_3   0.505696 0.258804 0.294014 -0.407463
C20   C     C_3   0.518190 0.188894 0.223971 -0.402605
H8    H     H_    0.469619 0.329389 0.272270 0.167162
H9    H     H_    0.421645 0.233855 0.348231 0.178819
H10   H     H_    0.488530 0.218698 0.161634 0.169128
H11   H     H_    0.442156 0.123345 0.237857 0.167720
C21   C     C_R   0.507402 0.682915 0.741190 0.103346
C22   C     C_R   0.352755 0.682372 0.685505 -0.113171
C23   C     C_R   0.200981 0.743952 0.701451 -0.178808
H12   H     H_    0.078270 0.745974 0.660478 0.135756
C24   C     C_R   0.212176 0.808136 0.766980 -0.149690
H13   H     H_    0.097123 0.857364 0.774657 0.137933
C25   C     C_R   0.375818 0.812943 0.818376 -0.108916
C26   C     C_R   0.518929 0.746691 0.805794 0.107576
C27   C     C_3   0.729122 0.759447 0.793631 -0.408017
C28   C     C_3   0.716692 0.689580 0.723559 -0.401455
H14   H     H_    0.813773 0.734615 0.847736 0.187322
H15   H     H_    0.764463 0.830119 0.771893 0.170832
H16   H     H_    0.793423 0.624179 0.737305 0.170514
H17   H     H_    0.745613 0.719502 0.661208 0.173188
C29   C     C_R   0.498708 0.752700 0.314084 0.098513
C30   C     C_R   0.351965 0.686914 0.318253 -0.179782
C31   C     C_R   0.207064 0.691422 0.257228 -0.263215
H18   H     H_    0.089667 0.642628 0.258392 0.146460
C32   C     C_R   0.220123 0.754019 0.190313 0.595603
C33   C     C_R   0.376510 0.815570 0.183850 -0.211847
C34   C     C_R   0.509809 0.815843 0.249033 -0.009365
C35   C     C_3   0.723085 0.809549 0.246080 -0.352551
C36   C     C_3   0.711021 0.740808 0.317189 -0.373991
H19   H     H_    0.793480 0.875423 0.263719 0.163859
H20   H     H_    0.773309 0.778573 0.186993 0.243069
H21   H     H_    0.773560 0.767202 0.376101 0.166064
H22   H     H_    0.756593 0.670099 0.299506 0.175308
O11   O     O_R   0.229000 0.916070 0.913330 -0.531423
O12   O     O_R   0.558770 0.905070 0.086080 -0.543043
O13   O     O_R   0.729000 0.083900 0.086690 -0.542664
C37   C     C_R   0.389692 0.882486 0.114356 0.754068
O14   O     O_R   0.558720 0.905070 0.913930 -0.543535
O15   O     O_R   0.728960 0.083900 0.913310 -0.549036
C38   C     C_R   0.389672 0.883179 0.885085 0.731745
O16   O     O_R   0.229050 0.916070 0.086710 -0.511037
O17   O     O_3   0.395460 0.058650 0.000020 -0.381528
V3    V     V_3+5 0.670340 0.989120 0.000000 1.452264
O18   O     O_R   0.058670 0.094960 0.913900 -0.523635
C39   C     C_R   0.889677 0.116709 0.884977 0.702002
O19   O     O_R   0.058720 0.094960 0.086050 -0.551817
C40   C     C_R   0.889965 0.116903 0.114825 0.675646
V4    V     V_3+5 0.170330 0.010930 0.999970 1.484209
O20   O     O_3   0.895340 0.941350 0.999980 -0.353023
F1    F     F_    0.088605 0.749007 0.128342 -0.707359
F2    F     F_    0.256018 0.144770 0.755309 -0.693534

loop_
_geom_bond_atom_site_label_1
_geom_bond_atom_site_label_2
_ccdc_geom_bond_type
C9    C39   S    
C4    C6    S    
C7    H1    S    
O11   C38   A    
C1    O6    A    
O18   C39   A    
C36   H22   S    
V4    O20   S    
C21   C22   A    
C32   C33   A    
C5    C12   S    
C17   C18   A    
C7    C8    A    
C16   H7    S    
O5    C3    A    
C13   C14   A    
C36   H21   S    
V2    O10   S    
C31   C32   A    
C6    C7    A    
V3    O20   S    
O11   V4    S    
O8    V2    S    
C21   C28   S    
C29   C36   S    
C14   C15   A    
C35   H19   S    
C9    C10   A    
O1    V2    S    
C3    C17   S    
O14   V3    S    
O13   C40   A    
C27   H15   S    
C24   C25   A    
C30   C31   A    
O9    C4    A    
C2    C30   S    
C27   H14   S    
C25   C26   A    
C20   H10   S    
C1    C22   S    
C29   C34   A    
C23   C24   A    
C5    C10   A    
C26   C27   S    
C10   C11   S    
C19   H9    S    
O12   C37   A    
O15   C39   A    
O4    C2    A    
C28   H17   S    
C20   H11   S    
C29   C30   A    
C22   C23   A    
C11   F2    S    
C14   C40   S    
O17   V3    S    
C13   C18   A    
C31   H18   S    
C15   C16   A    
O2    C1    A    
C18   C19   S    
O19   C40   A    
C35   H20   S    
C5    C6    A    
O14   C38   A    
O3    C4    A    
C21   C26   A    
C24   H13   S    
O19   V4    S    
O6    V2    S    
O9    V2    S    
O2    V1    S    
C25   C38   S    
O17   V4    S    
C27   C28   S    
O16   V4    S    
O7    V1    S    
C28   H16   S    
C23   H12   S    
O1    C2    A    
O15   V3    S    
O5    V1    S    
O8    C3    A    
C33   C37   S    
C11   H3    S    
C32   F1    S    
C12   H4    S    
C15   H6    S    
C8    C9    A    
C11   C12   S    
O4    V1    S    
O12   V3    S    
O3    V1    S    
V1    O10   S    
C34   C35   S    
C19   H8    S    
C19   C20   S    
O13   V3    S    
C13   C20   S    
C16   C17   A    
O7    V2    S    
C33   C34   A    
C12   H5    S    
C35   C36   S    
C37   O16   A    
C8    H2    S    
O18   V4    S    
