data_mof_unit_3629.cif
_audit_creation_date              2012-12-11T17:47:34-0500
_audit_creation_method            fapswitch 2.2
_symmetry_space_group_name_H-M    P1
_symmetry_Int_Tables_number       1
_space_group_crystal_system       triclinic
_cell_length_a                    14.859407
_cell_length_b                    14.985153
_cell_length_c                    15.022191
_cell_angle_alpha                 110.150874
_cell_angle_beta                  108.529419
_cell_angle_gamma                 108.796603
_cell_volume                      2603.87182113

loop_
_atom_site_label
_atom_site_type_symbol
_atom_type_description
_atom_site_fract_x
_atom_site_fract_y
_atom_site_fract_z
_atom_type_partial_charge
C1    C     C_R   0.906029 0.196466 0.993664 0.431407
C2    C     C_R   0.021554 0.746304 0.933995 0.521344
C3    C     C_R   0.300396 0.863722 0.302963 -0.265823
C4    C     C_R   0.690857 0.146475 0.688167 -0.216063
C5    C     C_R   0.323214 0.497228 0.050073 -0.010618
C6    C     C_R   0.690261 0.501768 0.050259 0.001663
C7    C     C_R   0.041856 0.494190 0.321200 0.103978
C8    C     C_R   0.072819 0.497992 0.701690 0.036906
C9    C     C_R   0.036500 0.960749 0.006174 -0.133068
C10   C     C_R   0.842046 0.949464 0.886576 -0.043655
C11   C     C_R   0.338355 0.252687 0.134425 -0.144600
C12   C     C_R   0.588264 0.618161 0.821877 -0.067005
C13   C     C_R   0.237722 0.158499 0.065338 -0.160775
C14   C     C_R   0.686211 0.715306 0.880681 -0.127772
C15   C     C_R   0.713801 0.219565 0.184716 0.207771
C16   C     C_R   0.397853 0.775822 0.905697 0.381635
C17   C     C_R   0.809286 0.309725 0.278753 0.468960
C18   C     C_R   0.334031 0.682424 0.802424 0.422237
C19   C     C_R   0.900689 0.297741 0.323497 -0.061288
C20   C     C_R   0.256342 0.682010 0.717409 -0.149015
C21   C     C_R   0.893983 0.195326 0.280677 -0.367265
C22   C     C_R   0.250909 0.777862 0.734902 -0.292666
C23   C     C_R   0.295911 0.803298 0.206927 0.452529
C24   C     C_R   0.696365 0.203170 0.786302 0.440803
C25   C     C_R   0.800467 0.106619 0.188536 -0.127509
C26   C     C_R   0.312917 0.869564 0.837522 -0.183989
C27   C     C_R   0.712295 0.118491 0.136825 0.456632
C28   C     C_R   0.382223 0.868210 0.924612 0.426201
C29   C     C_R   0.025109 0.393724 0.514579 -0.225014
C30   C     C_R   0.157430 0.575443 0.516972 -0.238636
C31   C     C_R   0.097174 0.490579 0.612848 0.056525
C32   C     C_R   0.069715 0.485481 0.418966 0.094549
C33   C     C_R   0.171035 0.580251 0.615170 0.094323
C34   C     C_R   0.003913 0.392124 0.418172 0.148313
C35   C     C_R   0.145469 0.155410 0.073872 0.088112
C36   C     C_R   0.735063 0.755037 0.826710 0.033543
C37   C     C_R   0.256349 0.343601 0.221527 0.575596
C38   C     C_R   0.584371 0.601085 0.653544 0.581631
C39   C     C_R   0.193170 0.102124 0.350231 0.512112
C40   C     C_R   0.811210 0.916133 0.607571 0.489872
C41   C     C_R   0.272728 0.069698 0.363047 -0.151208
C42   C     C_R   0.727600 0.941612 0.604027 -0.196037
C43   C     C_R   0.331722 0.076378 0.461248 0.017639
C44   C     C_R   0.667851 0.948311 0.515280 0.090458
C45   C     C_R   0.223450 0.407107 0.974348 -0.078775
C46   C     C_R   0.784349 0.592059 0.086442 -0.121298
C47   C     C_R   0.310935 0.118238 0.547503 -0.383413
C48   C     C_R   0.692100 0.927792 0.429345 -0.299477
C49   C     C_R   0.232559 0.152833 0.536086 0.604063
C50   C     C_R   0.775551 0.902047 0.432084 0.575845
C51   C     C_R   0.173888 0.144172 0.437385 -0.310081
C52   C     C_R   0.834518 0.896327 0.521137 -0.304445
C53   C     C_R   0.512156 0.102707 0.571273 -0.266531
C54   C     C_R   0.482281 0.913107 0.416226 -0.285030
C55   C     C_R   0.592340 0.071008 0.589455 0.091936
C56   C     C_R   0.400961 0.943238 0.398773 0.056363
C57   C     C_R   0.580326 0.977783 0.509683 0.130595
C58   C     C_R   0.415224 0.039940 0.475573 0.101939
C59   C     C_R   0.347817 0.345384 0.211422 -0.266491
C60   C     C_R   0.537241 0.561010 0.708872 -0.275249
C61   C     C_R   0.839481 0.857112 0.888611 0.030416
C62   C     C_R   0.039805 0.052510 0.004538 0.003414
C63   C     C_R   0.156261 0.248079 0.153781 -0.142455
C64   C     C_R   0.683216 0.698051 0.713111 -0.203524
C65   C     C_R   0.938329 0.864043 0.947332 0.027157
C66   C     C_R   0.941660 0.044382 0.941052 0.092041
C67   C     C_R   0.057650 0.587882 0.313914 -0.077895
C68   C     C_R   0.011001 0.409324 0.704717 -0.093526
C69   C     C_3   0.548028 0.454709 0.122426 -0.129795
C70   C     C_3   0.476527 0.543627 0.008417 -0.135515
C71   C     C_3   0.436203 0.395283 0.019991 -0.142702
C72   C     C_3   0.587124 0.603350 0.110383 -0.147575
C73   C     C_3   0.423703 0.496340 0.065797 0.165870
C74   C     C_3   0.599292 0.502247 0.064519 0.174248
C75   C     C_3   0.533301 0.556180 0.168214 -0.153876
C76   C     C_3   0.489476 0.442919 0.962816 -0.173113
C77   C     C_R   0.313694 0.589597 0.067243 -0.084643
C78   C     C_R   0.694328 0.410007 0.995497 -0.085584
C79   C     C_R   0.977799 0.406948 0.218168 -0.130399
C80   C     C_R   0.097780 0.588872 0.791788 -0.016979
C81   C     C_R   0.208413 0.800039 0.301467 0.473622
C82   C     C_R   0.787431 0.204770 0.694448 0.480359
C83   C     C_R   0.003695 0.198656 0.908770 -0.248385
C84   C     C_R   0.931745 0.748772 0.028361 -0.153589
C85   C     C_R   0.942130 0.137564 0.938483 0.019906
C86   C     C_R   0.945852 0.773787 0.952144 -0.107175
N1    N     N_R   0.947560 0.293820 0.002910 -0.103147
N2    N     N_R   0.052440 0.706180 0.997090 -0.077953
N3    N     N_R   0.208960 0.706170 0.152110 -0.106242
N4    N     N_R   0.791040 0.293830 0.847890 -0.101295
N5    N     N_R   0.154330 0.443160 0.946140 -0.048159
N6    N     N_R   0.845670 0.556840 0.053860 -0.044305
N7    N     N_R   0.002190 0.556820 0.208880 -0.035946
N8    N     N_R   0.997810 0.443180 0.791120 -0.061625
N9    N     N_R   0.210550 0.556810 0.002910 -0.036887
N10   N     N_R   0.789450 0.443190 0.997090 -0.046237
N11   N     N_R   0.945970 0.443180 0.152110 -0.056100
N12   N     N_R   0.054030 0.556820 0.847890 -0.055016
N13   N     N_R   0.151530 0.706170 0.208880 -0.104275
N14   N     N_R   0.848470 0.293830 0.791120 -0.133795
N15   N     N_R   0.004980 0.293810 0.946140 -0.070650
N16   N     N_R   0.995020 0.706190 0.053860 -0.074825
Ni1   Ni    Ni4+2 0.869690 0.369690 0.000000 0.235929
Ni2   Ni    Ni4+2 0.130310 0.630310 0.000000 0.278418
Ni3   Ni    Ni4+2 0.001390 0.369680 0.869810 0.195413
Ni4   Ni    Ni4+2 0.998610 0.630320 0.130190 0.260931
O1    O     O_3   0.817755 0.152819 0.006443 -0.758037
H1    H     H_    0.794764 0.208679 0.026084 0.323073
O2    O     O_3   0.074191 0.776061 0.880193 -0.788027
H2    H     H_    0.032944 0.799656 0.836110 0.315307
H3    H     H_    0.409183 0.253821 0.128033 0.162928
H4    H     H_    0.551628 0.587309 0.863932 0.159447
O3    O     O_3   0.262357 0.432831 0.297324 -0.777233
H5    H     H_    0.337906 0.493482 0.337961 0.322630
O4    O     O_3   0.536291 0.547577 0.542089 -0.771457
H6    H     H_    0.467458 0.481131 0.512355 0.316582
O5    O     O_3   0.630802 0.032583 0.036338 -0.742880
H7    H     H_    0.597158 0.061328 0.993189 0.351695
O6    O     O_3   0.428795 0.956449 0.026104 -0.752030
H8    H     H_    0.457646 0.937827 0.081893 0.348376
O7    O     O_3   0.625242 0.233008 0.141864 -0.791774
H9    H     H_    0.558576 0.161597 0.098999 0.361974
O8    O     O_3   0.473245 0.772925 0.985384 -0.745857
H10   H     H_    0.534659 0.847432 0.037202 0.335629
O9    O     O_3   0.817015 0.410703 0.328303 -0.743293
H11   H     H_    0.748685 0.408726 0.287664 0.359622
O10   O     O_3   0.348654 0.593052 0.788680 -0.744127
H12   H     H_    0.312431 0.540067 0.710536 0.319764
H13   H     H_    0.962999 0.185226 0.316623 0.170574
H14   H     H_    0.192518 0.779190 0.670789 0.181925
H15   H     H_    0.798878 0.029359 0.153276 0.165779
H16   H     H_    0.302492 0.940494 0.850813 0.167772
H17   H     H_    0.969986 0.322460 0.510070 0.151175
H18   H     H_    0.210958 0.645036 0.517549 0.138476
H19   H     H_    0.231834 0.087612 0.005675 0.140896
H20   H     H_    0.723389 0.759794 0.968044 0.120024
H21   H     H_    0.548044 0.601827 0.251904 0.126517
H22   H     H_    0.473376 0.397272 0.878514 0.128976
O11   O     O_3   0.359816 0.839683 0.164645 -0.768011
H23   H     H_    0.412796 0.917515 0.217256 0.321055
O12   O     O_3   0.625265 0.168428 0.822596 -0.777026
H24   H     H_    0.567042 0.093711 0.765207 0.320597
H25   H     H_    0.087376 0.245703 0.165172 0.116616
H26   H     H_    0.719884 0.728591 0.670721 0.178631
H27   H     H_    0.113181 0.170287 0.428782 0.140781
H28   H     H_    0.898983 0.876767 0.523085 0.156288
O13   O     O_3   0.135509 0.091563 0.251747 -0.771485
H29   H     H_    0.081326 0.115802 0.254905 0.308843
O14   O     O_3   0.869118 0.911581 0.696361 -0.790719
H30   H     H_    0.925028 0.893137 0.686828 0.312123
H31   H     H_    0.288440 0.039540 0.296142 0.147633
H32   H     H_    0.709611 0.956597 0.670476 0.132529
H33   H     H_    0.354523 0.122415 0.623211 0.140238
H34   H     H_    0.647131 0.933774 0.360994 0.137325
O15   O     O_3   0.211082 0.194673 0.619391 -0.754837
H35   H     H_    0.259684 0.196361 0.683718 0.304999
O16   O     O_3   0.801967 0.883146 0.349759 -0.758008
H36   H     H_    0.754016 0.891626 0.293694 0.303404
H37   H     H_    0.527094 0.179338 0.631404 0.151599
H38   H     H_    0.468924 0.837152 0.356382 0.142072
H39   H     H_    0.111042 0.964575 0.054832 0.180367
H40   H     H_    0.767342 0.947268 0.841365 0.146172
H41   H     H_    0.372969 0.309749 0.981914 0.118597
H42   H     H_    0.649886 0.688562 0.146185 0.144485
H43   H     H_    0.580838 0.418778 0.169101 0.149640
H44   H     H_    0.445058 0.579531 0.961123 0.220393
H45   H     H_    0.204831 0.323109 0.938559 0.101852
H46   H     H_    0.810975 0.675203 0.142851 0.124703
H47   H     H_    0.102970 0.669922 0.380440 0.153978
H48   H     H_    0.995703 0.327972 0.659352 0.124546
H49   H     H_    0.378549 0.672640 0.116723 0.168330
H50   H     H_    0.638248 0.327377 0.968542 0.178291
H51   H     H_    0.957988 0.323817 0.193082 0.120181
H52   H     H_    0.155791 0.671359 0.823181 0.159340
O17   O     O_3   0.168811 0.830916 0.371071 -0.767329
H53   H     H_    0.231352 0.888789 0.442611 0.320086
O18   O     O_3   0.823868 0.167434 0.624083 -0.754044
H54   H     H_    0.901697 0.193520 0.669461 0.304290
H55   H     H_    0.035598 0.171625 0.855551 0.150453
H56   H     H_    0.887958 0.770164 0.069599 0.131504
H57   H     H_    0.426346 0.417956 0.263567 0.144521
H58   H     H_    0.461112 0.486020 0.664698 0.133353

loop_
_geom_bond_atom_site_label_1
_geom_bond_atom_site_label_2
_ccdc_geom_bond_type
C16   C28   A    
C29   H17   S    
C2    O2    S    
C1    N1    A    
O16   H36   S    
C84   N16   A    
N5    Ni3   S    
C3    C23   A    
O13   H29   S    
C66   C85   S    
C65   C86   S    
N8    Ni3   S    
N8    N12   A    
C67   H47   S    
C73   C75   S    
N14   Ni3   S    
C46   H46   S    
N3    N13   A    
C81   O17   S    
C23   O11   S    
C19   C21   A    
C16   O8    S    
C84   C86   A    
C13   C35   A    
C70   H44   S    
C14   C36   A    
C71   C76   S    
C4    C24   A    
C6    C78   A    
C46   N6    A    
C51   H27   S    
O4    H6    S    
C69   H43   S    
N6    N10   A    
C84   H56   S    
C7    C67   A    
C69   C71   S    
C59   H57   S    
C79   H51   S    
C21   C25   A    
C43   C58   S    
N2    Ni2   S    
C39   C51   A    
N1    N15   A    
O12   H24   S    
C78   N10   A    
C30   H18   S    
C3    C81   A    
C50   C52   A    
O1    H1    S    
C23   N3    A    
C2    N2    A    
C6    C46   A    
C44   C57   S    
C77   H49   S    
C10   C66   A    
C47   C49   A    
C10   H40   S    
C22   H14   S    
C1    C85   A    
C13   H19   S    
C42   C44   A    
C72   C75   S    
C11   C59   A    
N4    N14   A    
C37   C63   A    
C49   O15   S    
C6    C74   S    
C38   C64   A    
C53   C55   A    
C50   O16   S    
C60   H58   S    
C54   C56   A    
C53   H37   S    
N15   Ni3   S    
C70   C72   S    
C62   C66   A    
C11   H3    S    
C9    C62   A    
O8    H10   S    
C39   C41   A    
C75   H21   S    
C68   H48   S    
C71   C73   S    
C64   H26   S    
C49   C51   A    
C40   C52   A    
C5    C45   A    
C29   C34   A    
C77   N9    A    
C68   N8    A    
C32   C34   A    
C18   O10   S    
C3    C56   S    
C15   C27   A    
O17   H53   S    
C24   O12   S    
O11   H23   S    
C8    C80   A    
C70   C73   S    
C31   C33   A    
C72   H42   S    
C69   C74   S    
C16   C18   A    
C37   C59   A    
O6    H8    S    
C9    H39   S    
C48   C50   A    
C45   H45   S    
C21   H13   S    
O7    H9    S    
N11   Ni1   S    
C71   H41   S    
C1    O1    S    
C38   C60   A    
C20   C33   S    
C72   C74   S    
C83   C85   A    
C12   C14   A    
C8    C68   A    
C55   C57   A    
C4    C55   S    
C70   C76   S    
O9    H11   S    
N1    Ni1   S    
N10   Ni1   S    
C10   C61   A    
C74   C76   S    
C69   C75   S    
C5    C77   A    
C36   C61   S    
C25   H15   S    
N7    N11   A    
C12   H4    S    
C26   H16   S    
N9    Ni2   S    
C7    C79   A    
O3    H5    S    
N7    Ni4   S    
N6    Ni4   S    
C15   C17   A    
N13   Ni4   S    
C48   H34   S    
C52   H28   S    
C7    C32   S    
C83   N15   A    
C30   C33   A    
C80   N12   A    
C8    C31   S    
C82   N14   A    
C79   N11   A    
C5    C73   S    
C41   C43   A    
C20   C22   A    
C19   C34   S    
C24   N4    A    
N2    N16   A    
C53   C58   A    
C28   O6    S    
C41   H31   S    
C76   H22   S    
C25   C27   A    
C47   H33   S    
C26   C28   A    
C83   H55   S    
C81   N13   A    
C39   O13   S    
C80   H52   S    
N3    Ni2   S    
C44   C48   A    
C36   C64   A    
O14   H30   S    
C30   C32   A    
C38   O4    S    
C11   C13   A    
C17   O9    S    
C14   H20   S    
N12   Ni2   S    
C82   O18   S    
C40   C42   A    
C17   C19   A    
C56   C58   A    
C40   O14   S    
C2    C86   A    
C35   C62   S    
C18   C20   A    
C15   O7    S    
C45   N5    A    
C9    C65   A    
N4    Ni1   S    
C54   H38   S    
C12   C60   A    
C61   C65   A    
C4    C82   A    
N5    N9    A    
C29   C31   A    
O18   H54   S    
C22   C26   A    
N16   Ni4   S    
O2    H2    S    
O15   H35   S    
C67   N7    A    
C63   H25   S    
C37   O3    S    
C35   C63   A    
C27   O5    S    
C78   H50   S    
O5    H7    S    
C43   C47   A    
O10   H12   S    
C42   H32   S    
C54   C57   A    
