data_mof_unit_3017.cif
_audit_creation_date              2012-12-10T16:54:33-0500
_audit_creation_method            fapswitch 2.2
_symmetry_space_group_name_H-M    P1
_symmetry_Int_Tables_number       1
_space_group_crystal_system       triclinic
_cell_length_a                    15.02874
_cell_length_b                    10.921729
_cell_length_c                    9.730102
_cell_angle_alpha                 90.296711
_cell_angle_beta                  90.984788
_cell_angle_gamma                 90.493214
_cell_volume                      1596.77951782

loop_
_atom_site_label
_atom_site_type_symbol
_atom_type_description
_atom_site_fract_x
_atom_site_fract_y
_atom_site_fract_z
_atom_type_partial_charge
C1    C     C_R   0.502536 0.265623 0.499788 0.834018
C2    C     C_R   0.909148 0.577381 0.584324 0.127614
C3    C     C_R   0.946143 0.332489 0.325394 -0.219096
C4    C     C_R   0.039191 0.327000 0.322440 0.183371
C5    C     C_R   0.091216 0.402697 0.414275 0.073903
C6    C     C_R   0.046616 0.491559 0.495211 -0.026461
C7    C     C_R   0.095153 0.578018 0.575672 0.124226
C8    C     C_R   0.050973 0.662376 0.658828 -0.193222
C9    C     C_R   0.958549 0.660887 0.664666 -0.214449
C10   C     C_R   0.185366 0.394329 0.430274 0.131485
C11   C     C_R   0.232216 0.490712 0.497940 -0.067692
C12   C     C_R   0.328997 0.497363 0.499196 0.812814
C13   C     C_R   0.187279 0.580253 0.570945 -0.289515
C14   C     C_2   0.501878 0.933101 0.393850 -0.162143
C15   C     C_2   0.475272 0.864437 0.500715 0.039103
C16   C     C_2   0.493760 0.066236 0.388991 -0.169174
C17   C     C_2   0.510874 0.134099 0.501045 -0.327673
C18   C     C_2   0.457471 0.419886 0.919988 -0.071386
C19   C     C_2   0.445808 0.433184 0.073081 0.245447
C20   C     C_R   0.494960 0.734309 0.500191 0.824031
C21   C     C_R   0.671017 0.500028 0.500933 0.807396
C22   C     C_R   0.816318 0.576655 0.588221 -0.250614
C23   C     C_R   0.767438 0.497261 0.502233 -0.057415
C24   C     C_R   0.810552 0.416683 0.414112 -0.231087
C25   C     C_R   0.903238 0.413243 0.412861 0.062185
C26   C     C_R   0.953106 0.493943 0.497387 0.068488
Cu1   Cu    Cu3+1 0.500020 0.500020 0.638630 0.939893
Cu2   Cu    Cu3+1 0.499980 0.499980 0.361370 0.934956
H1    H     H_    0.781972 0.639922 0.654824 0.139537
H2    H     H_    0.478780 0.108454 0.290541 0.166580
H3    H     H_    0.531748 0.092178 0.597066 0.171453
H4    H     H_    0.423650 0.344878 0.866723 0.162403
H5    H     H_    0.524560 0.575150 0.895999 0.189446
H6    H     H_    0.554147 0.536810 0.108440 0.173464
H7    H     H_    0.771654 0.355667 0.347830 0.143552
H8    H     H_    0.906456 0.274236 0.257128 0.147820
H9    H     H_    0.224712 0.650366 0.627067 0.144970
H10   H     H_    0.088078 0.728739 0.720623 0.142162
H11   H     H_    0.925676 0.725876 0.730822 0.142950
H12   H     H_    0.534221 0.890623 0.306919 0.142000
N1    N     N_2   0.499020 0.498660 0.846910 -0.298512
N2    N     N_2   0.499000 0.498630 0.153040 -0.278986
O1    O     O_R   0.500020 0.321960 0.617040 -0.580457
O2    O     O_R   0.499980 0.321920 0.382900 -0.580138
O3    O     O_R   0.370270 0.499990 0.617090 -0.574033
O4    O     O_R   0.370240 0.499950 0.382940 -0.570284
O5    O     O_R   0.500020 0.678080 0.617100 -0.574041
O6    O     O_R   0.499980 0.678040 0.382960 -0.588044
O7    O     O_R   0.629760 0.500050 0.617060 -0.571737
O8    O     O_R   0.629730 0.500010 0.382910 -0.581107
C27   C     C_3   0.416184 0.910867 0.614181 -0.844892
H13   H     H_    0.365031 0.840471 0.638264 0.220080
H14   H     H_    0.456627 0.929056 0.708728 0.228307
H15   H     H_    0.379007 0.994088 0.583893 0.245736
C28   C     C_3   0.366731 0.366669 0.129360 -0.767929
H16   H     H_    0.333383 0.308099 0.049962 0.170168
H17   H     H_    0.386714 0.305180 0.213551 0.250858
H18   H     H_    0.316328 0.433564 0.162510 0.246816
C29   C     C_3   0.078331 0.250406 0.209143 -0.863267
H19   H     H_    0.129109 0.304365 0.153546 0.236707
H20   H     H_    0.106347 0.164451 0.250745 0.236798
H21   H     H_    0.027176 0.222899 0.130883 0.224589
C30   C     C_3   0.233133 0.274770 0.404809 -0.871553
H22   H     H_    0.298362 0.270220 0.459503 0.216163
H23   H     H_    0.193262 0.197470 0.445587 0.235679
H24   H     H_    0.245414 0.260406 0.294588 0.237742

loop_
_geom_bond_atom_site_label_1
_geom_bond_atom_site_label_2
_ccdc_geom_bond_type
Cu1   O5    S    
C2    C22   A    
C11   C12   S    
C30   H23   S    
C6    C7    A    
C27   H13   S    
C22   H1    S    
C15   C27   S    
Cu1   N1    S    
C1    O2    A    
C13   H9    S    
C10   C30   S    
H6    N2    S    
C19   N2    D    
C9    H11   S    
C28   H16   S    
C27   H15   S    
H5    N1    S    
Cu1   O3    S    
C21   O7    A    
C8    C9    A    
C30   H24   S    
C29   H19   S    
C2    C26   A    
C6    C26   A    
C11   C13   A    
Cu2   O4    S    
C20   O6    A    
C8    H10   S    
C3    H8    S    
C5    C6    A    
Cu2   O8    S    
C4    C29   S    
C5    C10   A    
C21   O8    A    
C1    O1    A    
C28   H17   S    
C21   C23   S    
C15   C20   S    
C17   H3    S    
C14   C16   S    
C29   H20   S    
C24   H7    S    
C7    C8    A    
C10   C11   A    
C18   N1    D    
C16   H2    S    
C14   H12   S    
C30   H22   S    
C20   O5    A    
Cu1   O1    S    
C7    C13   A    
C3    C25   A    
C18   H4    S    
C24   C25   A    
C12   O4    A    
C18   C19   S    
C28   H18   S    
Cu2   N2    S    
Cu1   Cu2   S    
C19   C28   S    
C14   C15   D    
C4    C5    A    
C29   H21   S    
C23   C24   A    
C25   C26   A    
C22   C23   A    
C2    C9    A    
C1    C17   S    
Cu2   O2    S    
Cu2   O6    S    
C3    C4    A    
Cu1   O7    S    
C16   C17   D    
C12   O3    A    
C27   H14   S    
