data_mof_unit_3331.cif
_audit_creation_date              2012-12-11T17:34:18-0500
_audit_creation_method            fapswitch 2.2
_symmetry_space_group_name_H-M    P1
_symmetry_Int_Tables_number       1
_space_group_crystal_system       triclinic
_cell_length_a                    24.012743
_cell_length_b                    7.213958
_cell_length_c                    20.534442
_cell_angle_alpha                 89.961398
_cell_angle_beta                  105.263739
_cell_angle_gamma                 89.739689
_cell_volume                      3431.59616445

loop_
_atom_site_label
_atom_site_type_symbol
_atom_type_description
_atom_site_fract_x
_atom_site_fract_y
_atom_site_fract_z
_atom_type_partial_charge
O1    O     O_R   0.449110 0.494310 0.552140 -0.506737
O2    O     O_R   0.550890 0.994310 0.447860 -0.509167
O3    O     O_R   0.440010 0.824420 0.415850 -0.535333
O4    O     O_R   0.559990 0.324420 0.584150 -0.532499
C1    C     C_R   0.424444 0.655502 0.391504 0.696080
C2    C     C_R   0.575506 0.154213 0.608595 0.696555
O5    O     O_R   0.442260 0.824040 0.549660 -0.551009
O6    O     O_R   0.557740 0.324040 0.450340 -0.547791
O7    O     O_R   0.553160 0.993960 0.582620 -0.535432
O8    O     O_R   0.446840 0.493960 0.417380 -0.533659
C3    C     C_R   0.427968 0.655090 0.567031 0.726300
C4    C     C_R   0.571976 0.154445 0.433026 0.725331
O9    O     O_3   0.536380 0.660670 0.510660 -0.370829
O10   O     O_3   0.463620 0.160670 0.489340 -0.371819
V1    V     V_3+5 0.493250 0.935680 0.498020 1.434043
V2    V     V_3+5 0.506750 0.435680 0.501980 1.441871
C5    C     C_R   0.843807 0.927138 0.194349 -0.184840
C6    C     C_R   0.152809 0.431265 0.801336 -0.172011
H1    H     H_    0.839743 0.808036 0.224885 0.132225
H2    H     H_    0.155696 0.315109 0.768948 0.135730
C7    C     C_R   0.879451 0.914511 0.150440 -0.200089
C8    C     C_R   0.117647 0.416450 0.845720 -0.243256
H3    H     H_    0.902421 0.785777 0.148851 0.143255
H4    H     H_    0.093393 0.290228 0.845484 0.134233
C9    C     C_R   0.886842 0.066556 0.110659 -0.139360
C10   C     C_R   0.112331 0.563936 0.888365 -0.092061
C11   C     C_R   0.855489 0.233917 0.114792 0.174856
C12   C     C_R   0.144556 0.728418 0.886573 0.176877
C13   C     C_R   0.819217 0.245289 0.159153 0.198846
C14   C     C_R   0.179765 0.744309 0.840783 0.141592
C15   C     C_R   0.814059 0.091432 0.199514 0.062525
C16   C     C_R   0.183506 0.594098 0.797978 0.083242
C17   C     C_1   0.777098 0.100685 0.245324 -0.032672
C18   C     C_1   0.220362 0.604242 0.751901 -0.021722
C19   C     C_1   0.744625 0.111963 0.281438 -0.045760
C20   C     C_1   0.252944 0.615067 0.715820 0.020707
C21   C     C_R   0.664838 0.972768 0.319466 0.155462
C22   C     C_R   0.334603 0.477695 0.680858 0.157316
C23   C     C_R   0.623062 0.979935 0.356558 0.209811
C24   C     C_R   0.377726 0.485199 0.645134 0.152144
C25   C     C_R   0.616963 0.140786 0.394138 -0.162421
C26   C     C_R   0.382696 0.643269 0.605736 -0.132305
C27   C     C_R   0.655875 0.287593 0.396109 -0.211249
C28   C     C_R   0.342380 0.788395 0.601536 -0.219321
H5    H     H_    0.653728 0.409470 0.426114 0.156075
H6    H     H_    0.344103 0.908887 0.570628 0.158019
C29   C     C_R   0.699224 0.277358 0.361608 0.214154
C30   C     C_R   0.298343 0.778423 0.635108 0.162548
C31   C     C_R   0.703091 0.120973 0.321813 -0.010031
C32   C     C_R   0.294917 0.623567 0.675877 0.040262
C33   C     C_R   0.636688 0.047683 0.794589 0.187089
C34   C     C_R   0.360400 0.656240 0.201642 0.187207
H7    H     H_    0.721234 0.972902 0.906433 0.142942
H8    H     H_    0.277315 0.578554 0.088954 0.140213
C35   C     C_R   0.617867 0.136209 0.675954 -0.122593
C36   C     C_R   0.381526 0.648081 0.324461 -0.122696
C37   C     C_R   0.901177 0.085262 0.768711 -0.252144
C38   C     C_R   0.097936 0.576646 0.231457 -0.254814
C39   C     C_R   0.864703 0.078634 0.703604 0.221949
C40   C     C_R   0.133473 0.626493 0.294116 0.223329
C41   C     C_R   0.804747 0.057967 0.693452 0.203740
C42   C     C_R   0.192855 0.655930 0.302396 0.203088
C43   C     C_R   0.780032 0.063447 0.749878 -0.031409
C44   C     C_R   0.218734 0.613720 0.248505 -0.034438
C45   C     C_R   0.818994 0.045309 0.816439 0.041178
C46   C     C_R   0.180496 0.573639 0.183009 0.043817
C47   C     C_R   0.718484 0.079072 0.742969 0.054572
C48   C     C_R   0.280440 0.620513 0.255816 0.056340
C49   C     C_R   0.697004 0.042453 0.799986 0.046181
C50   C     C_R   0.301080 0.623302 0.196975 0.047558
C51   C     C_R   0.736057 0.003656 0.862265 -0.230210
C52   C     C_R   0.262545 0.587673 0.134263 -0.235742
C53   C     C_R   0.795437 0.010115 0.871543 0.168774
C54   C     C_R   0.204367 0.553742 0.127319 0.174986
C55   C     C_R   0.677648 0.137027 0.682404 -0.269184
C56   C     C_R   0.322755 0.616369 0.319145 -0.268359
C57   C     C_R   0.597718 0.092328 0.732362 0.189906
C58   C     C_R   0.399819 0.673657 0.265558 0.187004
C59   C     C_R   0.880156 0.059223 0.825109 -0.115316
C60   C     C_R   0.119477 0.559483 0.175110 -0.109379
H9    H     H_    0.690920 0.186826 0.639589 0.128544
H10   H     H_    0.311575 0.582445 0.365025 0.128132
H11   H     H_    0.947324 0.099643 0.775559 0.117220
H12   H     H_    0.051862 0.562955 0.225356 0.114287
O11   O     O_R   0.053190 0.709680 0.082610 -0.534688
O12   O     O_R   0.946810 0.209680 0.917390 -0.540661
O13   O     O_R   0.057740 0.380240 0.950340 -0.539920
O14   O     O_R   0.942260 0.880240 0.049660 -0.534666
C61   C     C_R   0.070907 0.549508 0.931736 0.747240
C62   C     C_R   0.928714 0.050423 0.067796 0.718221
O15   O     O_R   0.060000 0.379940 0.084150 -0.527855
O16   O     O_R   0.940000 0.879940 0.915850 -0.525893
O17   O     O_R   0.949110 0.210100 0.052140 -0.544900
O18   O     O_R   0.050890 0.710100 0.947860 -0.511491
C63   C     C_R   0.075150 0.548471 0.108955 0.778660
C64   C     C_R   0.924653 0.049108 0.891216 0.779662
O19   O     O_3   0.963630 0.543720 0.989330 -0.384968
O20   O     O_3   0.036370 0.043720 0.010670 -0.363440
V3    V     V_3+5 0.006750 0.268680 0.001980 1.425910
V4    V     V_3+5 0.993250 0.768680 0.998020 1.446551
C65   C     C_3   0.613652 0.005248 0.855163 -0.750863
H13   H     H_    0.626855 0.863014 0.873854 0.196307
H14   H     H_    0.630833 0.107336 0.895860 0.196611
H15   H     H_    0.565965 0.011111 0.844104 0.246209
C66   C     C_3   0.381683 0.674211 0.138515 -0.748647
H16   H     H_    0.357020 0.785106 0.105522 0.194974
H17   H     H_    0.427946 0.710859 0.148887 0.247590
H18   H     H_    0.375969 0.540576 0.110810 0.195584
N1    N     N_3   0.772768 0.998859 0.627376 -0.682636
H19   H     H_    0.738473 0.912296 0.629310 0.242512
H20   H     H_    0.759770 0.113754 0.595957 0.227139
N2    N     N_3   0.222427 0.756960 0.361631 -0.682854
H21   H     H_    0.240097 0.665712 0.401271 0.228078
H22   H     H_    0.252404 0.849808 0.351597 0.244705
C67   C     C_3   0.890473 0.086178 0.644175 -0.728887
H23   H     H_    0.937993 0.105851 0.660169 0.189164
H24   H     H_    0.881562 0.954898 0.615165 0.228611
H25   H     H_    0.871215 0.203778 0.610757 0.207089
C68   C     C_3   0.106896 0.659625 0.351971 -0.724435
H26   H     H_    0.060021 0.627825 0.338061 0.187946
H27   H     H_    0.128411 0.569728 0.395293 0.208429
H28   H     H_    0.112286 0.807054 0.367801 0.228026
N3    N     N_3   0.831150 0.974579 0.937999 -0.675488
H29   H     H_    0.822493 0.840679 0.952154 0.238388
H30   H     H_    0.819216 0.067554 0.970948 0.209062
N4    N     N_3   0.170059 0.499440 0.062214 -0.672934
H31   H     H_    0.187052 0.375989 0.048666 0.228534
H32   H     H_    0.174284 0.601644 0.027860 0.227976
N5    N     N_3   0.858878 0.393431 0.074134 -0.679176
H33   H     H_    0.899497 0.454219 0.091333 0.245572
H34   H     H_    0.850951 0.355341 0.023460 0.239430
N6    N     N_3   0.142269 0.876281 0.932570 -0.652286
H35   H     H_    0.125543 0.994898 0.904957 0.231104
H36   H     H_    0.183951 0.902518 0.962476 0.222320
C69   C     C_3   0.786004 0.421481 0.164385 -0.760899
H37   H     H_    0.793351 0.534762 0.131180 0.242370
H38   H     H_    0.739004 0.391962 0.150410 0.206231
H39   H     H_    0.798960 0.473388 0.217106 0.188532
C70   C     C_3   0.213683 0.918850 0.836760 -0.807395
H40   H     H_    0.207451 0.030979 0.870917 0.212571
H41   H     H_    0.260504 0.885374 0.849735 0.218930
H42   H     H_    0.200476 0.974998 0.784550 0.208554
N7    N     N_3   0.667197 0.813292 0.278495 -0.668882
H43   H     H_    0.657504 0.856139 0.228064 0.234700
H44   H     H_    0.709464 0.762540 0.291747 0.241791
N8    N     N_3   0.331477 0.322955 0.723789 -0.671036
H45   H     H_    0.329454 0.200893 0.696067 0.247015
H46   H     H_    0.368947 0.319816 0.763637 0.229723
N9    N     N_3   0.586363 0.823201 0.354795 -0.642408
H47   H     H_    0.568160 0.789913 0.304227 0.255321
H48   H     H_    0.612242 0.711184 0.376959 0.247369
N10   N     N_3   0.416962 0.332797 0.649949 -0.654536
H49   H     H_    0.393590 0.216992 0.627625 0.232619
H50   H     H_    0.434504 0.303910 0.701013 0.224046
N11   N     N_3   0.739471 0.426501 0.368426 -0.659096
H51   H     H_    0.780569 0.374004 0.391629 0.230613
H52   H     H_    0.739858 0.470362 0.320073 0.230507
N12   N     N_3   0.256960 0.926222 0.626259 -0.667663
H53   H     H_    0.216202 0.871059 0.604045 0.236096
H54   H     H_    0.256473 0.976426 0.673844 0.233142
N13   N     N_3   0.537289 0.103702 0.727713 -0.687884
H55   H     H_    0.515066 0.010491 0.691204 0.238214
H56   H     H_    0.524547 0.238533 0.712221 0.237841
N14   N     N_3   0.459150 0.712213 0.270282 -0.685416
H57   H     H_    0.469715 0.836247 0.296850 0.246216
H58   H     H_    0.484361 0.604645 0.297229 0.231442

loop_
_geom_bond_atom_site_label_1
_geom_bond_atom_site_label_2
_ccdc_geom_bond_type
C69   H39   S    
C22   C24   A    
C43   C45   A    
C58   N14   S    
N4    H31   S    
C45   C59   A    
C11   C13   A    
C52   C54   A    
O11   C63   A    
C37   C59   A    
C1    C36   S    
O1    C3    A    
C2    C35   S    
C41   N1    S    
C2    O7    A    
N2    H22   S    
N13   H55   S    
C36   C58   A    
C69   H37   S    
C23   C25   A    
C10   C61   S    
O5    C3    A    
C66   H17   S    
C9    C62   S    
C65   H13   S    
C6    C16   A    
C3    C26   S    
C36   C56   A    
C44   C48   A    
N14   H57   S    
N5    H33   S    
N9    H48   S    
C35   C57   A    
C70   H42   S    
N3    H30   S    
N11   H52   S    
C38   C40   A    
N7    H43   S    
C46   C54   A    
N7    H44   S    
O16   C64   A    
C45   C53   A    
C24   N10   S    
C40   C68   S    
C40   C42   A    
C61   O18   A    
C49   C51   A    
C22   N8    S    
C42   C44   A    
N1    H20   S    
C5    H1    S    
C20   C32   S    
N6    H35   S    
C67   H24   S    
C19   C31   S    
C37   H11   S    
O17   V3    S    
N8    H46   S    
C38   C60   A    
C35   C55   A    
C48   C50   A    
C24   C26   A    
O2    C4    A    
C65   H14   S    
N12   H54   S    
C25   C27   A    
C26   C28   A    
C13   C15   A    
C34   C58   A    
C1    O8    A    
N2    H21   S    
N13   H56   S    
C28   H6    S    
O13   V3    S    
C68   H27   S    
C57   N13   S    
C66   H18   S    
C43   C47   A    
C39   C41   A    
N3    H29   S    
C34   C50   A    
O4    C2    A    
C56   H10   S    
C51   C53   A    
C55   H9    S    
O5    V1    S    
C53   N3    S    
C30   N12   S    
C5    C7    A    
C12   N6    S    
C44   C46   A    
O4    V2    S    
C33   C57   A    
C4    C25   S    
O12   V3    S    
C38   H12   S    
C21   C31   A    
O18   V4    S    
O6    C4    A    
C67   H25   S    
C15   C17   S    
C42   N2    S    
O1    V2    S    
C48   C56   A    
C60   C63   S    
O2    V1    S    
C27   H5    S    
O14   V4    S    
O12   C64   A    
N6    H36   S    
C39   C67   S    
C13   C69   S    
O14   C62   A    
C34   C66   S    
O20   V3    S    
C65   H15   S    
C7    H3    S    
N12   H53   S    
C5    C15   A    
C8    H4    S    
C47   C55   A    
H7    C51   S    
O19   V4    S    
O3    V1    S    
O16   V4    S    
C62   O17   A    
N8    H45   S    
C68   H28   S    
C69   H38   S    
C7    C9    A    
N4    H32   S    
C14   C70   S    
C21   N7    S    
C6    C8    A    
C41   C43   A    
N10   H50   S    
O3    C1    A    
C70   H40   S    
C22   C32   A    
C29   C31   A    
C46   C60   A    
C66   H16   S    
C23   N9    S    
C10   C12   A    
O15   V3    S    
N14   H58   S    
O7    V1    S    
C12   C14   A    
C21   C23   A    
O11   V4    S    
O8    V2    S    
N1    H19   S    
C14   C16   A    
C70   H41   S    
C67   H23   S    
C54   N4    S    
C29   N11   S    
C11   N5    S    
C30   C32   A    
C17   C19   T    
C18   C20   T    
C6    H2    S    
C37   C39   A    
O15   C63   A    
C59   C64   S    
H8    C52   S    
N10   H49   S    
O6    V2    S    
C68   H26   S    
C8    C10   A    
O9    V2    S    
N11   H51   S    
O13   C61   A    
O10   V1    S    
C50   C52   A    
C33   C49   A    
C47   C49   A    
N9    H47   S    
C27   C29   A    
C33   C65   S    
C28   C30   A    
C16   C18   S    
N5    H34   S    
C9    C11   A    
