data_mof_unit_4608.cif
_audit_creation_date              2012-10-26T20:21:18-0400
_audit_creation_method            fapswitch 2.2
_symmetry_space_group_name_H-M    P1
_symmetry_Int_Tables_number       1
_space_group_crystal_system       triclinic
_cell_length_a                    9.549828
_cell_length_b                    10.833009
_cell_length_c                    15.513201
_cell_angle_alpha                 89.128236
_cell_angle_beta                  73.033719
_cell_angle_gamma                 89.780349
_cell_volume                      1534.86466484

loop_
_atom_site_label
_atom_site_type_symbol
_atom_type_description
_atom_site_fract_x
_atom_site_fract_y
_atom_site_fract_z
_atom_type_partial_charge
C1    C     C_R   0.000081 0.262298 0.500429 0.528085
C2    C     C_R   0.050598 0.065809 0.417275 0.002877
C3    C     C_R   0.996231 0.870803 0.499024 0.024718
C4    C     C_R   0.000318 0.127600 0.500272 0.026655
C5    C     C_R   0.549802 0.419588 0.554422 0.310213
C6    C     C_R   0.451291 0.577864 0.443613 0.293483
C7    C     C_R   0.397992 0.423634 0.557364 0.299568
C8    C     C_R   0.600810 0.580898 0.445971 0.294115
C9    C     C_R   0.916156 0.503787 0.672572 0.506690
C10   C     C_R   0.084157 0.499068 0.326994 0.510099
C11   C     C_R   0.866108 0.533329 0.769625 -0.010212
C12   C     C_R   0.999998 0.737174 0.498454 0.533819
C13   C     C_R   0.132346 0.508800 0.226882 -0.021220
C14   C     C_R   0.902834 0.655619 0.891208 -0.160463
C15   C     C_R   0.064006 0.541239 0.088954 -0.152561
C16   C     C_R   0.957055 0.604346 0.806072 -0.166789
C17   C     C_R   0.024781 0.522432 0.181844 -0.156148
C18   C     C_R   0.719011 0.511413 0.821317 0.064982
C19   C     C_R   0.283069 0.514975 0.175807 0.064518
C20   C     C_R   0.658622 0.583031 0.899286 0.056411
C21   C     C_R   0.318419 0.564285 0.086494 0.061868
C22   C     C_R   0.754888 0.642923 0.939089 -0.019514
C23   C     C_R   0.556021 0.665344 0.077898 0.225469
C24   C     C_R   0.210585 0.560775 0.040603 -0.015558
C25   C     C_R   0.506722 0.588310 0.943633 0.022391
C26   C     C_R   0.461085 0.603838 0.037712 0.026932
C27   C     C_3   0.399988 0.446084 0.207996 -0.236602
C28   C     C_3   0.492557 0.356699 0.138430 -0.476275
C29   C     C_3   0.640710 0.395760 0.804100 -0.236996
C30   C     C_3   0.603749 0.305823 0.884515 -0.479369
C31   C     C_3   0.872387 0.130298 0.668957 -0.292485
C32   C     C_3   0.984592 0.175658 0.713824 -0.438830
C33   C     C_3   0.037695 0.870770 0.328958 -0.295822
C34   C     C_R   0.399456 0.588177 0.897275 0.217623
C35   C     C_3   0.190895 0.830172 0.275455 -0.398751
C36   C     C_3   0.905125 0.857177 0.670621 -0.284081
C37   C     C_3   0.743254 0.820731 0.697263 -0.400952
C38   C     C_3   0.135033 0.135926 0.332297 -0.264434
C39   C     C_3   0.297685 0.138835 0.326243 -0.433998
C40   C     C_R   0.701753 0.688350 0.026602 -0.140110
C41   C     C_R   0.251301 0.576167 0.946832 -0.138985
C42   C     C_R   0.943427 0.061531 0.582501 0.007770
C43   C     C_R   0.033512 0.936644 0.416178 0.002472
C44   C     C_R   0.950023 0.931567 0.582460 0.000365
Cu1   Cu    Cu3+1 0.140660 0.500020 0.500000 1.024493
Cu2   Cu    Cu3+1 0.859340 0.499980 0.500000 1.035522
H1    H     H_    0.774821 0.737273 0.056181 0.097406
H2    H     H_    0.472506 0.510225 0.229558 0.209249
H3    H     H_    0.348438 0.386199 0.266657 0.158700
H4    H     H_    0.571623 0.215244 0.863492 0.139897
H5    H     H_    0.700155 0.291753 0.909882 0.149742
H6    H     H_    0.510438 0.340282 0.939660 0.153636
H7    H     H_    0.541347 0.415971 0.783905 0.219739
H8    H     H_    0.712507 0.344832 0.747919 0.167429
H9    H     H_    0.579736 0.757951 0.179193 0.311312
H10   H     H_    0.351704 0.612173 0.784297 0.317399
H11   H     H_    0.054199 0.098454 0.725164 0.153463
H12   H     H_    0.168964 0.574264 0.911748 0.100836
H13   H     H_    0.054804 0.247119 0.671149 0.230567
H14   H     H_    0.927520 0.217134 0.779757 0.128587
H15   H     H_    0.809948 0.208553 0.653054 0.183444
H16   H     H_    0.788856 0.074392 0.718373 0.142948
H17   H     H_    0.237930 0.769372 0.317623 0.237433
H18   H     H_    0.184412 0.777941 0.215764 0.169329
H19   H     H_    0.264201 0.910015 0.250825 0.163664
H20   H     H_    0.966368 0.787916 0.343201 0.193290
H21   H     H_    0.988655 0.929344 0.286086 0.130822
H22   H     H_    0.724085 0.747540 0.652941 0.205438
H23   H     H_    0.909447 0.515617 0.218147 0.156675
H24   H     H_    0.709436 0.784815 0.767638 0.174775
H25   H     H_    0.672827 0.900845 0.692915 0.145383
H26   H     H_    0.973191 0.773060 0.665392 0.148695
H27   H     H_    0.927634 0.908675 0.726329 0.144988
H28   H     H_    0.362621 0.161966 0.256319 0.126925
H29   H     H_    0.318978 0.208641 0.372488 0.176299
H30   H     H_    0.335584 0.047699 0.344397 0.164505
H31   H     H_    0.122433 0.094581 0.270283 0.138660
H32   H     H_    0.094095 0.231620 0.330777 0.137567
H33   H     H_    0.538579 0.260744 0.615472 0.301350
H34   H     H_    0.069640 0.622651 0.767817 0.126061
H35   H     H_    0.486927 0.675942 0.333798 0.314626
H36   H     H_    0.325968 0.339583 0.672850 0.299207
H37   H     H_    0.648876 0.742392 0.390534 0.299775
H38   H     H_    0.975413 0.708411 0.918719 0.112497
H39   H     H_    0.979260 0.543459 0.055302 0.120691
H40   H     H_    0.555743 0.295254 0.171294 0.132172
H41   H     H_    0.421142 0.298797 0.110314 0.148907
H42   H     H_    0.573946 0.405790 0.083073 0.155535
N1    N     N_R   0.352080 0.500030 0.499980 -0.203707
N2    N     N_R   0.647920 0.499970 0.500020 -0.197656
O1    O     O_R   0.118740 0.319660 0.500000 -0.474032
O2    O     O_3   0.439819 0.614125 0.805781 -0.727921
O3    O     O_3   0.601485 0.335173 0.604973 -0.703671
O4    O     O_3   0.402842 0.652092 0.385560 -0.683999
O5    O     O_3   0.294570 0.352718 0.617936 -0.694675
O6    O     O_3   0.700594 0.664133 0.394696 -0.693169
O7    O     O_R   0.881260 0.680340 0.500000 -0.474664
O8    O     O_R   0.881170 0.319630 0.500010 -0.468126
O9    O     O_R   0.118830 0.680370 0.499990 -0.461139
O10   O     O_R   0.055570 0.500030 0.629830 -0.472436
O11   O     O_R   0.944430 0.499970 0.370170 -0.470420
O12   O     O_R   0.818000 0.500000 0.629840 -0.465682
O13   O     O_R   0.182000 0.500000 0.370160 -0.476914
O14   O     O_3   0.500602 0.713635 0.162902 -0.742395

loop_
_geom_bond_atom_site_label_1
_geom_bond_atom_site_label_2
_ccdc_geom_bond_type
C27   H2    S    
C40   H1    S    
C30   H5    S    
C11   C18   A    
C17   H23   S    
C31   C42   S    
C31   H15   S    
C8    O6    S    
C14   H38   S    
C21   C26   A    
Cu1   Cu2   S    
Cu2   O12   S    
C3    C43   A    
C29   H7    S    
C36   C37   S    
C19   C21   A    
C41   H12   S    
H33   O3    S    
C38   C39   S    
C23   C26   A    
C20   C25   A    
C35   H19   S    
C23   C40   A    
C7    N1    A    
C37   H22   S    
C39   H28   S    
C12   O9    A    
C3    C12   S    
Cu1   O13   S    
C23   O14   S    
C9    O12   A    
C6    O4    S    
C28   H42   S    
C35   H18   S    
C39   H29   S    
C19   C27   S    
C5    N2    A    
C25   C34   A    
C15   H39   S    
C30   H4    S    
C1    O1    A    
C37   H24   S    
C24   C41   A    
C31   H16   S    
C34   C41   A    
C42   C44   A    
C32   H11   S    
C33   H20   S    
Cu2   O11   S    
C3    C44   A    
C13   C19   A    
C33   C43   S    
Cu1   O9    S    
C5    C7    A    
C6    C8    A    
C38   H32   S    
C25   C26   A    
H9    O14   S    
C10   C13   S    
C16   H34   S    
C2    C4    A    
C29   C30   S    
C11   C16   A    
C2    C38   S    
C31   C32   S    
C2    C43   A    
C22   C40   A    
C28   H41   S    
C18   C29   S    
C39   H30   S    
C9    C11   S    
C12   O7    A    
C15   C24   A    
Cu2   O7    S    
C20   C22   A    
C9    O10   A    
C37   H25   S    
C28   H40   S    
C14   C16   A    
C36   C44   S    
C8    N2    A    
C32   H14   S    
Cu1   N1    S    
C33   H21   S    
C15   C17   A    
C30   H6    S    
C10   O13   A    
H36   O5    S    
C10   O11   A    
Cu1   O10   S    
C1    O8    A    
C5    O3    S    
Cu2   N2    S    
C38   H31   S    
C6    N1    A    
C7    O5    S    
C13   C17   A    
C1    C4    S    
C14   C22   A    
H35   O4    S    
C4    C42   A    
H37   O6    S    
C33   C35   S    
C18   C20   A    
Cu2   O8    S    
Cu1   O1    S    
C34   O2    S    
C36   H27   S    
C36   H26   S    
H10   O2    S    
C29   H8    S    
C21   C24   A    
C27   C28   S    
C35   H17   S    
C32   H13   S    
C27   H3    S    
