data_mof_unit_208.cif
_audit_creation_date              2012-10-26T20:22:01-0400
_audit_creation_method            fapswitch 2.2
_symmetry_space_group_name_H-M    P1
_symmetry_Int_Tables_number       1
_space_group_crystal_system       triclinic
_cell_length_a                    10.923216
_cell_length_b                    9.654243
_cell_length_c                    10.611515
_cell_angle_alpha                 90.607424
_cell_angle_beta                  93.652923
_cell_angle_gamma                 90.56128
_cell_volume                      1116.64357208

loop_
_atom_site_label
_atom_site_type_symbol
_atom_type_description
_atom_site_fract_x
_atom_site_fract_y
_atom_site_fract_z
_atom_type_partial_charge
C1    C     C_R   0.875115 0.499119 0.525421 -0.005276
C2    C     C_3   0.526394 0.372260 0.040476 -0.088680
C3    C     C_3   0.414504 0.409253 0.950961 -0.119262
C4    C     C_3   0.583149 0.591376 0.048658 -0.110982
C5    C     C_3   0.498649 0.501889 0.877291 0.043183
C6    C     C_3   0.499123 0.498606 0.122411 0.042127
C7    C     C_R   0.438137 0.071061 0.405301 0.062233
C8    C     C_R   0.559097 0.928778 0.596472 0.058959
C9    C     C_R   0.561621 0.076352 0.594659 0.063329
C10   C     C_R   0.434714 0.923242 0.407919 0.063613
C11   C     C_R   0.055301 0.400531 0.445142 0.003875
C12   C     C_R   0.130123 0.501694 0.508821 0.016119
C13   C     C_R   0.946859 0.613964 0.575718 -0.008310
C14   C     C_R   0.938107 0.380639 0.486083 0.003197
C15   C     C_R   0.076163 0.602299 0.585661 0.002642
C16   C     C_1   0.380663 0.137116 0.296121 0.222949
C17   C     C_1   0.611909 0.863505 0.708636 0.218606
C18   C     C_1   0.631947 0.149809 0.694630 0.232173
C19   C     C_1   0.354809 0.848195 0.316690 0.247272
C20   C     C_3   0.095569 0.313308 0.336165 -0.255862
C21   C     C_3   0.125075 0.404406 0.224918 -0.409581
C22   C     C_3   0.888451 0.746101 0.618475 -0.245712
C23   C     C_R   0.262932 0.499889 0.500105 0.537497
C24   C     C_3   0.868404 0.845459 0.507773 -0.406444
C25   C     C_3   0.901142 0.233945 0.520231 -0.263167
C26   C     C_3   0.002863 0.163295 0.601692 -0.452395
C27   C     C_3   0.154364 0.685791 0.684812 -0.246182
C28   C     C_3   0.190200 0.830119 0.639747 -0.389994
C29   C     C_R   0.738529 0.500335 0.510079 0.535625
C30   C     C_R   0.499510 0.499403 0.259570 0.560888
C31   C     C_R   0.499543 0.500674 0.740323 0.551058
C32   C     C_3   0.387365 0.535570 0.035080 -0.133410
C33   C     C_3   0.610403 0.465131 0.964574 -0.114741
C34   C     C_3   0.471313 0.628255 0.959106 -0.097256
Cu1   Cu    Cu3+1 0.500000 0.640660 0.500000 0.947724
Cu2   Cu    Cu3+1 0.500000 0.359340 0.500000 0.955295
H1    H     H_    0.345291 0.334904 0.908056 0.124516
H2    H     H_    0.174052 0.248517 0.367234 0.182884
H3    H     H_    0.021404 0.240567 0.301145 0.139726
H4    H     H_    0.821383 0.793852 0.424002 0.182870
H5    H     H_    0.811773 0.933788 0.536042 0.129822
H6    H     H_    0.958017 0.885689 0.479473 0.141606
H7    H     H_    0.803018 0.720139 0.661784 0.190857
H8    H     H_    0.942190 0.800774 0.695694 0.136207
H9    H     H_    0.042971 0.235910 0.675485 0.164959
H10   H     H_    0.964534 0.073525 0.650791 0.139761
H11   H     H_    0.076432 0.126376 0.542609 0.144651
H12   H     H_    0.652236 0.665880 0.091545 0.129453
H13   H     H_    0.823013 0.234259 0.579944 0.196835
H14   H     H_    0.875504 0.170941 0.434320 0.136899
H15   H     H_    0.283868 0.858116 0.679517 0.151650
H16   H     H_    0.189127 0.834686 0.535166 0.175128
H17   H     H_    0.126682 0.908916 0.673418 0.119537
H18   H     H_    0.106833 0.694249 0.773984 0.121233
H19   H     H_    0.238766 0.628257 0.714256 0.150487
H20   H     H_    0.295702 0.565138 0.064984 0.127239
H21   H     H_    0.702198 0.437812 0.933216 0.138082
H22   H     H_    0.447308 0.732931 0.923672 0.145794
H23   H     H_    0.549574 0.267362 0.075930 0.149731
H24   H     H_    0.047827 0.475398 0.200815 0.145119
H25   H     H_    0.209633 0.466424 0.247926 0.171557
H26   H     H_    0.139270 0.338803 0.140691 0.159292
N1    N     N_R   0.500000 0.852070 0.500000 -0.270138
N2    N     N_R   0.500000 0.147930 0.500000 -0.267513
N3    N     N_1   0.335265 0.185845 0.205856 -0.346672
N4    N     N_1   0.653869 0.816375 0.801348 -0.347323
N5    N     N_1   0.689167 0.205866 0.775785 -0.339745
N6    N     N_1   0.289725 0.789502 0.243646 -0.334499
O1    O     O_R   0.319640 0.618740 0.499990 -0.499810
O2    O     O_R   0.680360 0.381260 0.500010 -0.510818
O3    O     O_R   0.680360 0.618740 0.500010 -0.509824
O4    O     O_R   0.319640 0.381260 0.499990 -0.513254
O5    O     O_R   0.499970 0.618770 0.316850 -0.492460
O6    O     O_R   0.500030 0.381230 0.683150 -0.491610
O7    O     O_R   0.500030 0.618770 0.683150 -0.503210
O8    O     O_R   0.499970 0.381230 0.316850 -0.490130

loop_
_geom_bond_atom_site_label_1
_geom_bond_atom_site_label_2
_ccdc_geom_bond_type
C7    C10   A    
C6    C32   S    
C9    N2    A    
C24   H6    S    
C23   O1    A    
C10   N1    A    
C27   H18   S    
C12   C23   S    
Cu1   O7    S    
C17   N4    T    
C28   H15   S    
C27   H19   S    
C30   O8    A    
C25   H14   S    
Cu2   O8    S    
C26   H9    S    
C24   H4    S    
C31   O7    A    
C22   H8    S    
Cu1   Cu2   S    
C8    C9    A    
C5    C33   S    
C21   H25   S    
Cu1   O3    S    
C24   H5    S    
C2    C6    S    
Cu2   O2    S    
C4    C34   S    
C11   C20   S    
C21   H24   S    
C4    C6    S    
C30   O5    A    
C2    H23   S    
C31   O6    A    
C25   C26   S    
C32   C34   S    
C20   H2    S    
C15   C27   S    
C22   H7    S    
C12   C15   A    
C10   C19   S    
C11   C12   A    
C5    C34   S    
C1    C29   S    
C19   N6    T    
C3    H1    S    
C21   H26   S    
Cu2   O6    S    
C26   H11   S    
C2    C33   S    
C7    C16   S    
C6    C30   S    
C13   C15   A    
C22   C24   S    
C1    C13   A    
C29   O2    A    
C4    H12   S    
C20   H3    S    
C4    C33   S    
Cu1   O5    S    
C33   H21   S    
C23   O4    A    
C3    C5    S    
C28   H17   S    
C1    C14   A    
C8    C17   S    
C2    C3    S    
C18   N5    T    
C28   H16   S    
C11   C14   A    
C13   C22   S    
C14   C25   S    
C3    C32   S    
C25   H13   S    
C7    N2    A    
C26   H10   S    
C8    N1    A    
C9    C18   S    
C20   C21   S    
Cu1   O1    S    
C27   C28   S    
C34   H22   S    
Cu1   N1    S    
C16   N3    T    
C5    C31   S    
Cu2   N2    S    
C32   H20   S    
Cu2   O4    S    
C29   O3    A    
