data_mof_unit_2759.cif
_audit_creation_date              2012-12-10T17:22:25-0500
_audit_creation_method            fapswitch 2.2
_symmetry_space_group_name_H-M    P1
_symmetry_Int_Tables_number       1
_space_group_crystal_system       triclinic
_cell_length_a                    18.678476
_cell_length_b                    19.074755
_cell_length_c                    18.859128
_cell_angle_alpha                 109.952898
_cell_angle_beta                  109.330221
_cell_angle_gamma                 109.765664
_cell_volume                      5131.43269102

loop_
_atom_site_label
_atom_site_type_symbol
_atom_type_description
_atom_site_fract_x
_atom_site_fract_y
_atom_site_fract_z
_atom_type_partial_charge
C1    C     C_R   0.379591 0.380439 0.499788 0.961603
C2    C     C_3   0.807289 0.499834 0.809144 -0.169559
C3    C     C_3   0.827340 0.491512 0.733589 -0.686291
C4    C     C_3   0.812338 0.589578 0.848507 0.117954
C5    C     C_R   0.410892 0.384385 0.659775 -0.167846
C6    C     C_R   0.423141 0.395068 0.740077 -0.159919
C7    C     C_R   0.353897 0.344783 0.745153 -0.249463
C8    C     C_R   0.272647 0.278968 0.668980 0.486600
C9    C     C_R   0.262578 0.260924 0.584594 0.026964
C10   C     C_R   0.329466 0.320186 0.581539 -0.012890
C11   C     C_R   0.189944 0.186254 0.503231 -0.167173
C12   C     C_R   0.623646 0.503691 0.620933 0.982613
C13   C     C_R   0.182120 0.174863 0.421774 -0.137450
C14   C     C_R   0.235693 0.246498 0.421129 -0.038001
C15   C     C_R   0.313145 0.315338 0.500722 -0.123845
C16   C     C_R   0.122586 0.094297 0.341053 0.443895
C17   C     C_R   0.102744 0.092225 0.261086 0.374606
C18   C     C_R   0.144118 0.169049 0.262114 -0.406286
C19   C     C_R   0.210856 0.246034 0.340852 0.433246
C20   C     C_R   0.223799 0.490938 0.384950 -0.109755
C21   C     C_R   0.157610 0.501670 0.396601 -0.151521
C22   C     C_R   0.106306 0.521157 0.343330 -0.109913
C23   C     C_R   0.619279 0.619524 0.499200 0.845289
C24   C     C_R   0.117521 0.524645 0.274974 -0.146175
C25   C     C_R   0.180968 0.508493 0.258559 0.049417
C26   C     C_R   0.239870 0.499489 0.318967 0.086159
C27   C     C_R   0.186276 0.500382 0.183171 -0.192184
C28   C     C_R   0.256206 0.493720 0.172649 0.041193
C29   C     C_R   0.325478 0.504761 0.243551 -0.003527
C30   C     C_R   0.313629 0.500670 0.312607 -0.188453
C31   C     C_R   0.260223 0.476742 0.094495 0.477443
C32   C     C_R   0.338992 0.487778 0.095417 -0.237254
C33   C     C_R   0.411668 0.511960 0.170505 -0.185386
C34   C     C_R   0.379422 0.499823 0.379213 0.901617
C35   C     C_R   0.405023 0.519252 0.243526 -0.153524
C36   C     C_R   0.591429 0.750181 0.473621 -0.155843
C37   C     C_R   0.584371 0.821553 0.477380 -0.125890
C38   C     C_R   0.656227 0.894192 0.496818 -0.134428
C39   C     C_R   0.733230 0.893370 0.506944 -0.145132
C40   C     C_R   0.739483 0.818707 0.496979 0.095530
C41   C     C_R   0.671130 0.750235 0.488728 0.070906
C42   C     C_R   0.811924 0.810826 0.495433 -0.162951
C43   C     C_R   0.820698 0.738850 0.494054 -0.139302
C44   C     C_R   0.761305 0.681342 0.505319 0.021834
C45   C     C_3   0.646626 0.421346 0.691603 -0.684896
C46   C     C_R   0.684856 0.684725 0.497701 -0.136990
C47   C     C_R   0.887676 0.722617 0.484236 0.453552
C48   C     C_R   0.904179 0.662699 0.502502 0.494845
C49   C     C_R   0.850323 0.612989 0.523458 -0.365071
C50   C     C_R   0.779264 0.621039 0.523421 -0.120391
C51   C     C_R   0.999779 0.380132 0.879473 0.936220
C52   C     C_R   0.875878 0.499456 0.876488 1.079370
C53   C     C_R   0.992655 0.619045 0.113428 0.961917
C54   C     C_R   0.118627 0.499633 0.116879 0.935472
C55   C     C_R   0.999936 0.880047 0.380118 0.908098
C56   C     C_3   0.712015 0.422462 0.769165 0.845168
C57   C     C_R   0.120999 0.120884 0.501843 1.119279
C58   C     C_R   0.000597 0.120572 0.619576 0.979624
C59   C     C_R   0.879503 0.879741 0.499197 0.837808
C60   C     C_R   0.985676 0.383566 0.721341 0.469606
C61   C     C_R   0.007741 0.403159 0.664438 -0.177983
C62   C     C_R   0.035989 0.356787 0.618735 -0.361683
C63   C     C_R   0.037547 0.286118 0.625228 0.496521
C64   C     C_R   0.014041 0.264557 0.683166 -0.010061
C65   C     C_R   0.999152 0.320915 0.739409 -0.129911
C66   C     C_R   0.003314 0.188460 0.686408 -0.122887
C67   C     C_3   0.768552 0.508699 0.670186 0.721878
C68   C     C_R   0.993186 0.176216 0.753220 -0.052726
C69   C     C_R   0.001074 0.243783 0.821514 0.002665
C70   C     C_R   0.999304 0.313768 0.812148 -0.140116
C71   C     C_R   0.975579 0.098031 0.753744 -0.220115
C72   C     C_R   0.977035 0.091011 0.825408 0.390921
C73   C     C_R   0.000587 0.164872 0.900752 0.365151
C74   C     C_R   0.010183 0.239213 0.897258 -0.171848
C75   C     C_R   0.152720 0.749192 0.272975 -0.196890
C76   C     C_R   0.233851 0.820794 0.341871 -0.251402
C77   C     C_R   0.237972 0.894931 0.396768 0.504272
C78   C     C_3   0.732028 0.586179 0.782490 0.725838
C79   C     C_R   0.159714 0.893682 0.384897 -0.113425
C80   C     C_R   0.076163 0.818956 0.318209 -0.006531
C81   C     C_R   0.072927 0.749608 0.256640 0.053558
C82   C     C_R   0.996386 0.812001 0.312010 -0.104479
C83   C     C_R   0.912949 0.739410 0.241681 0.027484
C84   C     C_R   0.908622 0.674632 0.172569 -0.028598
C85   C     C_R   0.990689 0.682137 0.180942 -0.142226
C86   C     C_R   0.833369 0.730201 0.239448 -0.222394
C87   C     C_R   0.751800 0.662961 0.169571 -0.308530
C88   C     C_R   0.745052 0.600838 0.098442 0.405043
C89   C     C_3   0.691878 0.505482 0.689746 -0.070933
C90   C     C_R   0.822343 0.604688 0.099607 0.437388
H1    H     H_    0.619436 0.362948 0.628316 0.174466
H2    H     H_    0.873037 0.637732 0.856387 0.189541
H3    H     H_    0.897916 0.536890 0.759570 0.257724
H4    H     H_    0.466356 0.427578 0.660366 0.170804
H5    H     H_    0.261441 0.475655 0.428193 0.185489
H6    H     H_    0.147192 0.496345 0.448138 0.141878
H7    H     H_    0.076236 0.540699 0.235944 0.138774
H8    H     H_    0.344023 0.477377 0.037523 0.134218
H9    H     H_    0.463292 0.537177 0.300012 0.150567
H10   H     H_    0.861308 0.565392 0.536512 0.180155
H11   H     H_    0.652022 0.951026 0.503049 0.141986
H12   H     H_    0.739154 0.579631 0.538587 0.234979
H13   H     H_    0.000300 0.453149 0.653631 0.178621
H14   H     H_    0.153771 0.693345 0.233801 0.153491
H15   H     H_    0.293393 0.818675 0.351529 0.136884
H16   H     H_    0.166056 0.952504 0.428579 0.192560
H17   H     H_    0.693261 0.660001 0.170733 0.155922
O1    O     O_R   0.408690 0.356690 0.448570 -0.590779
O2    O     O_R   0.049540 0.460090 0.906170 -0.558894
O3    O     O_R   0.853530 0.448360 0.905250 -0.541687
O4    O     O_R   0.956970 0.551730 0.905180 -0.620647
O5    O     O_R   0.945170 0.540000 0.088470 -0.596283
O6    O     O_R   0.048600 0.643370 0.088400 -0.634347
O7    O     O_R   0.037740 0.448360 0.089460 -0.636332
O8    O     O_R   0.141170 0.551730 0.089390 -0.603776
O9    O     O_R   0.948510 0.908450 0.356890 -0.616793
O10   O     O_R   0.052500 0.908420 0.460860 -0.588438
O11   O     O_R   0.039610 0.091640 0.448030 -0.584186
O12   O     O_R   0.408090 0.460090 0.551440 -0.643959
O13   O     O_R   0.143600 0.091610 0.551990 -0.594420
O14   O     O_R   0.947500 0.091600 0.539170 -0.610864
O15   O     O_R   0.051490 0.091570 0.643140 -0.611780
O16   O     O_R   0.856400 0.908420 0.448030 -0.658632
O17   O     O_R   0.960390 0.908390 0.552000 -0.571418
O18   O     O_R   0.592400 0.448300 0.540670 -0.619930
O19   O     O_R   0.591800 0.551700 0.643540 -0.569331
O20   O     O_R   0.591910 0.539910 0.448560 -0.641021
O21   O     O_R   0.591310 0.643310 0.551430 -0.602897
O22   O     O_R   0.408200 0.448300 0.356460 -0.596268
O23   O     O_R   0.407600 0.551700 0.459330 -0.645585
O24   O     O_R   0.946100 0.356720 0.906240 -0.640589
Zn1   Zn    Zn3+2 0.500400 0.430960 0.431310 1.004012
Zn2   Zn    Zn3+2 0.499600 0.569040 0.568690 1.005660
Zn3   Zn    Zn3+2 0.928290 0.431030 0.997370 1.035806
Zn4   Zn    Zn3+2 0.066410 0.569060 0.997270 1.020707
Zn5   Zn    Zn3+2 0.930570 0.000030 0.430590 0.998075
Zn6   Zn    Zn3+2 0.069430 0.999990 0.569430 1.060191
O25   O     O_3   0.819114 0.591817 0.685556 -0.736973
H18   H     H_    0.865869 0.591955 0.671512 0.349142
H19   H     H_    0.125840 0.168500 0.201001 0.169426
H20   H     H_    0.485746 0.444868 0.799028 0.199863
H21   H     H_    0.363430 0.357670 0.809117 0.139053
O26   O     O_3   0.202734 0.236120 0.677372 -0.737851
H22   H     H_    0.221188 0.258240 0.740004 0.326715
O27   O     O_3   0.089805 0.018327 0.342363 -0.801669
H23   H     H_    0.053793 0.967534 0.282341 0.382120
O28   O     O_3   0.041503 0.014952 0.183057 -0.760188
H24   H     H_    0.035703 0.024935 0.133669 0.348693
H25   H     H_    0.588081 0.415252 0.697743 0.223072
O29   O     O_3   0.248564 0.321850 0.340582 -0.784056
H26   H     H_    0.222803 0.310115 0.279761 0.341605
H27   H     H_    0.472631 0.522248 0.171211 0.157323
H28   H     H_    0.056711 0.532279 0.354080 0.159048
O30   O     O_3   0.186161 0.444498 0.016936 -0.797900
H29   H     H_    0.200378 0.434743 0.969457 0.326471
O31   O     O_3   0.687163 0.435507 0.833148 -0.713234
H30   H     H_    0.631254 0.382159 0.809361 0.360943
H31   H     H_    0.533808 0.695396 0.458730 0.142754
H32   H     H_    0.523644 0.821170 0.467095 0.138960
H33   H     H_    0.787401 0.952317 0.523587 0.145406
O32   O     O_3   0.933360 0.757861 0.449787 -0.696422
H34   H     H_    0.891158 0.759348 0.403145 0.290069
O33   O     O_3   0.971610 0.651866 0.495831 -0.717904
H35   H     H_    0.974328 0.606982 0.510022 0.318860
O34   O     O_3   0.014805 0.167475 0.978451 -0.766547
H36   H     H_    0.032059 0.124400 0.981340 0.337039
O35   O     O_3   0.944575 0.422057 0.752682 -0.786636
H37   H     H_    0.897733 0.377719 0.752851 0.305198
O36   O     O_3   0.709943 0.342430 0.742012 -0.764639
H38   H     H_    0.709556 0.322584 0.685970 0.301806
H39   H     H_    0.053623 0.374031 0.575392 0.160769
O37   O     O_3   0.065484 0.240785 0.578232 -0.742999
H40   H     H_    0.079940 0.265137 0.542720 0.322026
H41   H     H_    0.958301 0.040392 0.697799 0.178899
O38   O     O_3   0.955163 0.011454 0.818825 -0.751319
H42   H     H_    0.933312 0.007655 0.859342 0.344152
H43   H     H_    0.027315 0.293960 0.955918 0.212375
O39   O     O_3   0.663467 0.535737 0.026028 -0.777973
H44   H     H_    0.616542 0.542730 0.035481 0.332784
O40   O     O_3   0.317018 0.968811 0.463587 -0.758247
H45   H     H_    0.365877 0.959145 0.463233 0.330481
O41   O     O_3   0.737392 0.447925 0.582845 -0.757433
H46   H     H_    0.704516 0.388604 0.571537 0.320874
H47   H     H_    0.831044 0.774094 0.291414 0.177667
O42   O     O_3   0.812780 0.541379 0.028146 -0.714657
H48   H     H_    0.755509 0.487574 0.998624 0.396361
H49   H     H_    0.814807 0.425853 0.696165 0.219027
O43   O     O_3   0.760463 0.663082 0.778959 -0.723217
H50   H     H_    0.791904 0.712949 0.839320 0.335305
O44   O     O_3   0.666046 0.575516 0.805764 -0.767902
H51   H     H_    0.683957 0.632584 0.853001 0.347849
O45   O     O_3   0.824492 0.621250 0.933238 -0.743450
H52   H     H_    0.767847 0.589760 0.929257 0.426928

loop_
_geom_bond_atom_site_label_1
_geom_bond_atom_site_label_2
_ccdc_geom_bond_type
C66   C68   A    
C87   C88   A    
O44   H51   S    
C39   H33   S    
O2    Zn4   S    
C73   C74   A    
C4    O45   S    
O33   H35   S    
C78   O44   S    
C56   O31   S    
O24   Zn3   S    
C11   C57   S    
O39   H44   S    
C63   O37   S    
C27   C54   S    
C7    C8    A    
C48   O33   S    
O37   H40   S    
C4    C78   S    
C62   H39   S    
O34   H36   S    
O8    Zn4   S    
C83   C84   A    
C28   C29   A    
C61   H13   S    
C37   C38   A    
C38   H11   S    
C10   C15   A    
O27   H23   S    
C5    C6    A    
C56   O36   S    
C12   O19   A    
C55   O9    A    
O26   H22   S    
C67   C89   S    
C19   O29   S    
C18   C19   A    
O36   H38   S    
C72   O38   S    
C49   C50   A    
C67   O25   S    
O20   Zn1   S    
O41   H46   S    
C84   C85   A    
C58   C66   S    
O28   H24   S    
C45   C56   S    
C44   C46   A    
C16   C17   A    
C41   C46   A    
C1    C15   S    
C51   C70   S    
C45   C89   S    
C9    C10   A    
C36   H31   S    
C72   C73   A    
O22   Zn1   S    
C40   C42   A    
C57   O11   A    
C51   O2    A    
C23   C46   S    
C13   C14   A    
C86   H47   S    
C36   C41   A    
C61   C62   A    
C84   C90   A    
C35   H9    S    
C53   O6    A    
O32   H34   S    
C77   C79   A    
C78   C89   S    
C59   O16   A    
O10   Zn6   S    
C58   O15   A    
C77   O40   S    
C30   C34   S    
C24   H7    S    
C60   O35   S    
C12   C89   S    
C24   C25   A    
C34   O22   A    
C73   O34   S    
C39   C40   A    
C51   O24   A    
C86   C87   A    
C8    C9    A    
C12   O18   A    
C52   O4    A    
C25   C26   A    
C79   C80   A    
C79   H16   S    
C60   C61   A    
C6    H20   S    
C64   C66   A    
C2    C4    S    
C75   C76   A    
C28   C31   A    
C1    O12   A    
C29   C30   A    
C67   O41   S    
O17   Zn6   S    
C47   C48   A    
C52   O3    A    
C54   O8    A    
C62   C63   A    
C17   C18   A    
O7    Zn3   S    
C69   C74   A    
C3    H3    S    
O12   Zn2   S    
C76   C77   A    
C55   C82   S    
C18   H19   S    
C9    C11   A    
O30   H29   S    
C2    C52   S    
C57   O13   A    
C53   O5    A    
C80   C82   A    
C40   C41   A    
C21   H6    S    
C20   H5    S    
C88   C90   A    
C60   C65   A    
C50   H12   S    
O19   Zn2   S    
C43   C44   A    
C76   H15   S    
C75   H14   S    
C22   C24   A    
O3    Zn3   S    
O23   Zn2   S    
C78   O43   S    
C42   C43   A    
O35   H37   S    
C31   O30   S    
O11   Zn5   S    
O40   H45   S    
C23   O20   A    
C55   O10   A    
C44   C50   A    
C59   O17   A    
O31   H30   S    
C58   O14   A    
C17   O28   S    
O29   H26   S    
C14   C19   A    
C68   C69   A    
C31   C32   A    
C3    C67   S    
O15   Zn6   S    
O5    Zn3   S    
C80   C81   A    
C33   H27   S    
C3    H49   S    
C42   C59   S    
O43   H50   S    
C26   C30   A    
C6    C7    A    
O9    Zn5   S    
C90   O42   S    
C75   C81   A    
C25   C27   A    
C5    H4    S    
C29   C35   A    
C71   H41   S    
O16   Zn5   S    
C32   C33   A    
C37   H32   S    
C2    C3    S    
C5    C10   A    
O38   H42   S    
C2    C56   S    
O21   Zn2   S    
O45   H52   S    
C49   H10   S    
C11   C13   A    
O18   Zn1   S    
O4    Zn4   S    
O42   H48   S    
C38   C39   A    
C74   H43   S    
C20   C26   A    
C68   C71   A    
C48   C49   A    
C54   O7    A    
C64   C65   A    
C33   C35   A    
C32   H8    S    
C8    O26   S    
C45   H25   S    
O14   Zn5   S    
C69   C70   A    
C45   H1    S    
O1    Zn1   S    
O25   H18   S    
C1    O1    A    
C63   C64   A    
C47   O32   S    
C71   C72   A    
C83   C86   A    
C87   H17   S    
C20   C21   A    
C34   O23   A    
C36   C37   A    
C82   C83   A    
O6    Zn4   S    
C13   C16   A    
C27   C28   A    
C14   C15   A    
C16   O27   S    
C53   C85   S    
O13   Zn6   S    
C21   C22   A    
C43   C47   A    
C88   O39   S    
C7    H21   S    
C81   C85   A    
C65   C70   A    
C23   O21   A    
C4    H2    S    
C22   H28   S    
