data_mof_unit_582.cif
_audit_creation_date              2012-12-11T15:07:34-0500
_audit_creation_method            fapswitch 2.2
_symmetry_space_group_name_H-M    P1
_symmetry_Int_Tables_number       1
_space_group_crystal_system       triclinic
_cell_length_a                    21.67005
_cell_length_b                    7.205359
_cell_length_c                    18.632674
_cell_angle_alpha                 90.001963
_cell_angle_beta                  95.902684
_cell_angle_gamma                 90.002691
_cell_volume                      2893.88965405

loop_
_atom_site_label
_atom_site_type_symbol
_atom_type_description
_atom_site_fract_x
_atom_site_fract_y
_atom_site_fract_z
_atom_type_partial_charge
O1    O     O_R   0.449650 0.506500 0.414480 -0.527000
O2    O     O_R   0.550350 0.006500 0.585520 -0.527132
O3    O     O_R   0.432010 0.173150 0.560250 -0.548334
O4    O     O_R   0.567990 0.673150 0.439750 -0.548271
C1    C     C_R   0.416298 0.344707 0.581274 0.775961
C2    C     C_R   0.583700 0.844708 0.418725 0.776103
O5    O     O_R   0.442320 0.176650 0.413480 -0.542873
O6    O     O_R   0.557680 0.676650 0.586520 -0.542788
O7    O     O_R   0.560730 0.008380 0.437700 -0.530087
O8    O     O_R   0.439270 0.508380 0.562300 -0.529981
C3    C     C_R   0.428258 0.345158 0.387850 0.791504
C4    C     C_R   0.571739 0.845171 0.612151 0.791576
O9    O     O_3   0.538840 0.339860 0.508120 -0.378052
O10   O     O_3   0.461160 0.839860 0.491880 -0.377987
V1    V     V_3+5 0.492800 0.064220 0.498490 1.479334
V2    V     V_3+5 0.507200 0.564220 0.501510 1.479577
C5    C     C_R   0.873003 0.976852 0.689967 -0.128880
C6    C     C_R   0.127043 0.477721 0.310002 -0.128898
H1    H     H_    0.960558 0.004057 0.753895 0.151153
H2    H     H_    0.039493 0.504959 0.246072 0.151208
H3    H     H_    0.792516 0.972150 0.573590 0.158924
H4    H     H_    0.207551 0.473419 0.426363 0.158922
H5    H     H_    0.893384 0.003552 0.640235 0.120899
H6    H     H_    0.106687 0.504848 0.359717 0.120903
C7    C     C_R   0.886957 0.942060 0.819672 -0.050152
C8    C     C_R   0.113046 0.442144 0.180329 -0.050184
C9    C     C_R   0.586928 0.818875 0.743840 -0.191166
C10   C     C_R   0.413038 0.318314 0.256179 -0.191122
C11   C     C_R   0.622858 0.817396 0.809956 -0.106722
C12   C     C_R   0.377095 0.316593 0.190072 -0.106739
C13   C     C_R   0.686574 0.847415 0.814021 -0.119793
C14   C     C_R   0.313391 0.346817 0.186002 -0.119794
C15   C     C_R   0.716561 0.880442 0.751287 0.008526
C16   C     C_R   0.283430 0.380312 0.248720 0.008529
C17   C     C_R   0.679215 0.883523 0.682889 -0.048343
C18   C     C_R   0.320791 0.383675 0.317106 -0.048361
C19   C     C_R   0.782361 0.910344 0.754421 0.074239
C20   C     C_R   0.217641 0.410414 0.245579 0.074234
C21   C     C_R   0.809042 0.944365 0.689192 0.043192
C22   C     C_R   0.190989 0.444961 0.310788 0.043202
C23   C     C_R   0.771967 0.946595 0.623324 -0.254949
C24   C     C_R   0.228078 0.447463 0.376644 -0.254975
C25   C     C_R   0.708377 0.916504 0.619727 0.558569
C26   C     C_R   0.291655 0.417144 0.380249 0.558566
C27   C     C_R   0.822950 0.908538 0.819770 -0.192681
C28   C     C_R   0.177036 0.408328 0.180242 -0.192694
C29   C     C_R   0.911443 0.976808 0.754605 -0.146443
C30   C     C_R   0.088592 0.477444 0.245374 -0.146459
C31   C     C_R   0.613820 0.851950 0.680011 -0.070678
C32   C     C_R   0.386174 0.351869 0.319991 -0.070696
H7    H     H_    0.537493 0.793686 0.742411 0.093258
H8    H     H_    0.462461 0.292920 0.257615 0.093273
H9    H     H_    0.601074 0.791963 0.858781 0.113871
H10   H     H_    0.398858 0.290790 0.141261 0.113873
C33   C     C_R   0.638075 0.019230 0.326823 -0.215500
C34   C     C_R   0.361924 0.519239 0.673173 -0.215341
C35   C     C_R   0.632940 0.857709 0.368698 -0.057236
C36   C     C_R   0.367058 0.357707 0.631300 -0.057240
C37   C     C_R   0.675371 0.711921 0.362860 -0.191327
C38   C     C_R   0.324628 0.211909 0.637141 -0.191537
C39   C     C_R   0.722649 0.727596 0.316793 0.087057
C40   C     C_R   0.277349 0.227586 0.683208 0.087125
C41   C     C_R   0.727140 0.889669 0.274963 0.087192
C42   C     C_R   0.272859 0.389668 0.725036 0.087194
C43   C     C_R   0.684509 0.035670 0.279913 0.091494
C44   C     C_R   0.315489 0.535679 0.720084 0.091458
C45   C     C_R   0.765781 0.584255 0.312040 -0.207296
C46   C     C_R   0.234216 0.084236 0.687963 -0.207298
C47   C     C_R   0.812529 0.600227 0.265919 -0.137348
C48   C     C_R   0.187469 0.100209 0.734083 -0.137359
C49   C     C_R   0.817153 0.760087 0.223437 -0.021502
C50   C     C_R   0.182845 0.260079 0.776563 -0.021506
C51   C     C_R   0.774347 0.905841 0.228135 -0.022584
C52   C     C_R   0.225652 0.405841 0.771864 -0.022589
C53   C     C_R   0.778625 0.067742 0.186168 0.090518
C54   C     C_R   0.221375 0.567751 0.813829 0.090521
C55   C     C_R   0.735593 0.211518 0.191310 -0.157893
C56   C     C_R   0.264408 0.711536 0.808685 -0.157887
C57   C     C_R   0.689062 0.195807 0.237823 -0.202043
C58   C     C_R   0.310938 0.695826 0.762172 -0.202047
C59   C     C_R   0.863715 0.776331 0.176449 0.557249
C60   C     C_R   0.136284 0.276324 0.823551 0.557267
C61   C     C_R   0.867991 0.937181 0.133408 -0.188935
C62   C     C_R   0.132009 0.437183 0.866591 -0.188943
C63   C     C_R   0.825478 0.082758 0.139492 -0.294927
C64   C     C_R   0.174523 0.582768 0.860506 -0.294940
H11   H     H_    0.605503 0.132351 0.330137 0.120364
H12   H     H_    0.394495 0.632368 0.669857 0.120360
H13   H     H_    0.672275 0.587414 0.394953 0.139993
H14   H     H_    0.327723 0.087394 0.605050 0.139964
H15   H     H_    0.844814 0.486231 0.263321 0.185368
H16   H     H_    0.155184 0.986206 0.736683 0.185361
H17   H     H_    0.738015 0.336663 0.159472 0.132395
H18   H     H_    0.261986 0.836688 0.840523 0.132393
H19   H     H_    0.656684 0.309412 0.241002 0.126068
H20   H     H_    0.343316 0.809438 0.758991 0.126071
O11   O     O_R   0.060820 0.290050 0.937800 -0.499754
O12   O     O_R   0.939180 0.790050 0.062200 -0.499755
O13   O     O_R   0.057690 0.616620 0.086540 -0.533582
O14   O     O_R   0.942310 0.116620 0.913460 -0.533566
C65   C     C_R   0.071536 0.448735 0.112410 0.701788
C66   C     C_R   0.928465 0.948722 0.887590 0.701797
O15   O     O_R   0.068010 0.619890 0.939770 -0.543448
O16   O     O_R   0.931990 0.119890 0.060230 -0.543446
O17   O     O_R   0.949640 0.787940 0.914460 -0.538404
O18   O     O_R   0.050360 0.287940 0.085540 -0.538400
C67   C     C_R   0.083646 0.450849 0.918022 0.737221
C68   C     C_R   0.916354 0.950847 0.081978 0.737209
O19   O     O_3   0.961210 0.453080 0.991940 -0.374083
O20   O     O_3   0.038790 0.953080 0.008060 -0.374091
V3    V     V_3+5 0.007200 0.728820 0.001500 1.512356
V4    V     V_3+5 0.992800 0.228820 0.998500 1.512372
H21   H     H_    0.763277 0.459141 0.343884 0.144659
H22   H     H_    0.236721 0.959115 0.656120 0.144662
F1    F     F_    0.905442 0.636105 0.173851 -0.705637
F2    F     F_    0.094556 0.136090 0.826150 -0.705626
H23   H     H_    0.828183 0.206811 0.107045 0.169494
H24   H     H_    0.171818 0.706828 0.892952 0.169493
H25   H     H_    0.806499 0.883708 0.871547 0.085798
H26   H     H_    0.193465 0.383094 0.128481 0.085834
H27   H     H_    0.711008 0.843747 0.867309 0.102073
H28   H     H_    0.288944 0.342931 0.132722 0.102071
F3    F     F_    0.676032 0.920733 0.553464 -0.713214
F4    F     F_    0.324015 0.421662 0.446501 -0.713118

loop_
_geom_bond_atom_site_label_1
_geom_bond_atom_site_label_2
_ccdc_geom_bond_type
C12   C14   A    
C41   C43   A    
C43   C57   A    
C54   C64   A    
C9    C11   A    
C23   C25   A    
O1    C3    A    
O2    C4    A    
C2    O7    A    
C4    C31   S    
O3    V1    S    
C21   C23   A    
O18   V4    S    
O5    C3    A    
C12   H10   S    
C5    H5    S    
C52   C54   A    
C1    C36   S    
C6    H6    S    
O15   V3    S    
C54   C56   A    
C8    C65   S    
C5    C21   A    
C56   C58   A    
C7    C66   S    
C35   C37   A    
C36   C38   A    
C62   C67   S    
O12   C68   A    
C61   C68   S    
C66   O17   A    
C38   C40   A    
C37   H13   S    
C55   H17   S    
C47   C49   A    
C6    C22   A    
O20   V3    S    
C40   C42   A    
C59   C61   A    
C10   C32   A    
C53   C63   A    
C17   C31   A    
C13   C15   A    
C58   H20   S    
C17   C25   A    
C7    C29   A    
C8    C30   A    
C27   H25   S    
O5    V1    S    
O17   V3    S    
O6    V2    S    
C51   C53   A    
C2    C35   S    
C24   C26   A    
C33   C43   A    
C9    H7    S    
C55   C57   A    
C37   C39   A    
C14   H28   S    
C13   H27   S    
C50   C52   A    
O19   V4    S    
C49   C51   A    
O11   V4    S    
C41   C51   A    
C26   F4    S    
C15   C19   A    
C45   C47   A    
C42   C44   A    
O4    V2    S    
C57   H19   S    
C39   C45   A    
O6    C4    A    
O13   V3    S    
C59   F1    S    
O14   C66   A    
C28   H26   S    
C64   H24   S    
O1    V2    S    
C63   H23   S    
O2    V1    S    
C53   C55   A    
H2    C30   S    
H3    C23   S    
O4    C2    A    
O13   C65   A    
O14   V4    S    
C60   C62   A    
C33   C35   A    
C18   C26   A    
C25   F3    S    
C19   C27   A    
C7    C27   A    
O16   C68   A    
C18   C32   A    
O16   V4    S    
C65   O18   A    
O12   V3    S    
C61   C63   A    
C16   C20   A    
C39   C41   A    
C48   H16   S    
C5    C29   A    
C62   C64   A    
O3    C1    A    
C6    C30   A    
C48   C50   A    
C38   H14   S    
C44   C58   A    
C40   C46   A    
H1    C29   S    
C10   C12   A    
C45   H21   S    
C60   F2    S    
C1    O8    A    
C19   C21   A    
C3    C32   S    
O8    V2    S    
C20   C22   A    
C10   H8    S    
H4    C24   S    
C11   H9    S    
C56   H18   S    
C34   C44   A    
C22   C24   A    
C15   C17   A    
C34   C36   A    
C16   C18   A    
C33   H11   S    
C20   C28   A    
C34   H12   S    
C8    C28   A    
O11   C67   A    
C11   C13   A    
O9    V2    S    
C46   H22   S    
C46   C48   A    
C42   C52   A    
O10   V1    S    
O15   C67   A    
C47   H15   S    
C50   C60   A    
C9    C31   A    
O7    V1    S    
C14   C16   A    
C49   C59   A    
