data_mof_unit_3267.cif
_audit_creation_date              2012-12-10T18:52:58-0500
_audit_creation_method            fapswitch 2.2
_symmetry_space_group_name_H-M    P1
_symmetry_Int_Tables_number       1
_space_group_crystal_system       triclinic
_cell_length_a                    9.889519
_cell_length_b                    10.759592
_cell_length_c                    16.724697
_cell_angle_alpha                 90.500892
_cell_angle_beta                  85.081727
_cell_angle_gamma                 90.415616
_cell_volume                      1772.96988034

loop_
_atom_site_label
_atom_site_type_symbol
_atom_type_description
_atom_site_fract_x
_atom_site_fract_y
_atom_site_fract_z
_atom_type_partial_charge
Br1   Br    Br    0.444336 0.739192 0.252568 -0.430273
Br2   Br    Br    0.212946 0.339133 0.730739 -0.465034
Br3   Br    Br    0.739332 0.853410 0.379937 -0.396454
Br4   Br    Br    0.217497 0.131539 0.577496 -0.378426
Br5   Br    Br    0.179011 0.307914 0.379772 -0.430181
Br6   Br    Br    0.820222 0.698604 0.615030 -0.506366
C1    C     C_R   0.500957 0.739327 0.498459 1.009176
C2    C     C_R   0.066241 0.574429 0.552474 0.502026
C3    C     C_R   0.078266 0.425600 0.447833 0.153747
C4    C     C_R   0.921861 0.576490 0.551127 0.143658
C5    C     C_R   0.481238 0.495757 0.653448 0.884601
C6    C     C_R   0.518617 0.500593 0.347331 0.954369
C7    C     C_R   0.475210 0.467314 0.739097 -0.194994
C8    C     C_R   0.525864 0.481032 0.262184 -0.174181
C9    C     C_R   0.587036 0.504012 0.780010 -0.230264
C10   C     C_R   0.545394 0.359065 0.234469 -0.212186
C11   C     C_R   0.605448 0.456589 0.854731 -0.238351
C12   C     C_R   0.499497 0.259674 0.499698 0.986823
C13   C     C_R   0.512078 0.326422 0.158356 -0.166900
C14   C     C_R   0.513330 0.370294 0.889955 -0.056133
C15   C     C_R   0.462782 0.416664 0.108920 -0.092650
C16   C     C_R   0.401914 0.329884 0.849466 0.543115
C17   C     C_R   0.452373 0.541766 0.134398 0.498651
C18   C     C_R   0.378428 0.383666 0.775966 0.169257
C19   C     C_R   0.479352 0.573043 0.212676 0.156131
C20   C     C_2   0.525038 0.340413 0.974682 0.385844
C21   C     C_2   0.425797 0.382173 0.028480 0.436718
C22   C     C_3   0.194334 0.386868 0.055307 -0.140627
C23   C     C_R   0.607357 0.935105 0.454521 0.182446
C24   C     C_3   0.704057 0.205858 0.960821 -0.301712
C25   C     C_3   0.353766 0.124456 0.861054 -0.305079
C26   C     C_3   0.517285 0.685914 0.040671 -0.209859
C27   C     C_3   0.832006 0.115776 0.479975 -0.027903
C28   C     C_3   0.357965 0.860399 0.669970 -0.193191
C29   C     C_3   0.894457 0.432095 0.313044 -0.144399
C30   C     C_3   0.098564 0.628697 0.683525 -0.126733
C31   C     C_R   0.387566 0.060077 0.535751 0.186008
C32   C     C_R   0.613654 0.063113 0.462495 0.398850
C33   C     C_R   0.398260 0.933485 0.543680 0.442489
C34   C     C_R   0.499252 0.126382 0.498830 -0.359673
C35   C     C_R   0.502626 0.870993 0.498556 -0.343255
C36   C     C_R   0.935002 0.431043 0.444789 0.424442
H1    H     H_    0.662315 0.568261 0.753361 0.210052
H2    H     H_    0.801125 0.182238 0.985537 0.212698
H3    H     H_    0.280411 0.055856 0.889041 0.205893
H4    H     H_    0.356224 0.111853 0.794862 0.187546
H5    H     H_    0.454932 0.103785 0.881852 0.124338
H6    H     H_    0.479463 0.755764 0.999738 0.184980
H7    H     H_    0.584859 0.735061 0.080636 0.177272
H8    H     H_    0.576125 0.615999 0.003004 0.140302
H9    H     H_    0.809614 0.171767 0.535655 0.135314
H10   H     H_    0.927266 0.151893 0.448668 0.231525
H11   H     H_    0.851975 0.017891 0.496136 0.169224
H12   H     H_    0.576745 0.287313 0.273965 0.197784
H13   H     H_    0.438208 0.788281 0.667558 0.133005
H14   H     H_    0.275608 0.831738 0.715237 0.180035
H15   H     H_    0.398682 0.950453 0.691325 0.124722
H16   H     H_    0.000186 0.422415 0.285979 0.164659
H17   H     H_    0.869544 0.532645 0.320234 0.169303
H18   H     H_    0.827490 0.391618 0.269622 0.183296
H19   H     H_    0.032507 0.545289 0.695470 0.155741
H20   H     H_    0.047362 0.710652 0.712819 0.184774
H21   H     H_    0.193147 0.614988 0.713268 0.176810
H22   H     H_    0.521189 0.230430 0.138640 0.189137
H23   H     H_    0.690751 0.489164 0.885911 0.193507
H24   H     H_    0.189888 0.440354 0.112612 0.160767
H25   H     H_    0.197520 0.285193 0.067018 0.150372
H26   H     H_    0.099152 0.405340 0.027002 0.195077
H27   H     H_    0.726505 0.220730 0.895306 0.181937
H28   H     H_    0.633898 0.125419 0.972218 0.150444
N1    N     N_R   0.142790 0.500030 0.500020 -0.165933
N2    N     N_R   0.857210 0.499970 0.499980 -0.170550
O1    O     O_R   0.385380 0.683250 0.500010 -0.539175
O2    O     O_3   0.651987 0.313916 0.000131 -0.639434
O3    O     O_3   0.310247 0.244752 0.884669 -0.564482
O4    O     O_3   0.404985 0.631212 0.085093 -0.556688
O5    O     O_3   0.726341 0.126403 0.428468 -0.544737
O6    O     O_3   0.304222 0.870809 0.594745 -0.501849
O7    O     O_3   0.872742 0.366709 0.386099 -0.541390
O8    O     O_3   0.132659 0.654612 0.601376 -0.516779
O9    O     O_R   0.614620 0.316750 0.499990 -0.582140
O10   O     O_R   0.614710 0.683220 0.500000 -0.566355
O11   O     O_R   0.385290 0.316780 0.500000 -0.545666
O12   O     O_R   0.371780 0.500040 0.615800 -0.565673
O13   O     O_R   0.628220 0.499960 0.384200 -0.592019
O14   O     O_R   0.601110 0.500010 0.615800 -0.599575
O15   O     O_R   0.398890 0.499990 0.384200 -0.576662
O16   O     O_3   0.304989 0.425777 0.002321 -0.579269
Zn1   Zn    Zn3+2 0.346870 0.500020 0.500000 1.097808
Zn2   Zn    Zn3+2 0.653130 0.499980 0.500000 1.046527

loop_
_geom_bond_atom_site_label_1
_geom_bond_atom_site_label_2
_ccdc_geom_bond_type
C28   H14   S    
C17   O4    S    
C12   O9    A    
C1    O1    A    
C27   H10   S    
C3    C36   A    
C6    O13   A    
C29   H16   S    
C22   H26   S    
C31   C34   A    
C24   O2    S    
C5    O14   A    
C11   C14   A    
C29   H17   S    
Br3   C23   S    
C12   C34   S    
O14   Zn2   S    
C25   H4    S    
C23   C32   A    
C22   O16   S    
C28   H15   S    
C30   H21   S    
C26   O4    S    
C1    C35   S    
C15   C21   S    
C28   H13   S    
C25   H5    S    
Br1   C19   S    
C26   H6    S    
C24   H2    S    
C16   O3    S    
C30   H20   S    
C24   H28   S    
C27   H11   S    
O11   Zn1   S    
C33   O6    S    
C22   H25   S    
C33   C35   A    
C30   O8    S    
C7    C18   A    
C29   H18   S    
C22   H24   S    
Br5   C3    S    
N2    Zn2   S    
C25   O3    S    
N1    Zn1   S    
C13   H22   S    
C36   N2    A    
C12   O11   A    
C20   C21   D    
C26   H8    S    
O9    Zn2   S    
C6    C8    S    
C7    C9    A    
Br2   C18   S    
C8    C10   A    
O12   Zn1   S    
C30   H19   S    
C24   H27   S    
C9    C11   A    
C2    N1    A    
C6    O15   A    
C23   C35   A    
C3    N1    A    
C14   C16   A    
Br6   C4    S    
O13   Zn2   S    
C32   O5    S    
C5    O12   A    
C27   H9    S    
C11   H23   S    
O10   Zn2   S    
C15   C17   A    
C9    H1    S    
C31   C33   A    
C28   O6    S    
C32   C34   A    
C5    C7    S    
C27   O5    S    
C14   C20   S    
C10   C13   A    
C29   O7    S    
C20   O2    S    
C16   C18   A    
C17   C19   A    
C8    C19   A    
C21   O16   S    
C10   H12   S    
C26   H7    S    
O1    Zn1   S    
C36   O7    S    
C1    O10   A    
Br4   C31   S    
C2    C4    A    
C25   H3    S    
C2    O8    S    
O15   Zn1   S    
C13   C15   A    
C4    N2    A    
