data_mof_unit_274.cif
_audit_creation_date              2012-12-10T18:04:35-0500
_audit_creation_method            fapswitch 2.2
_symmetry_space_group_name_H-M    P1
_symmetry_Int_Tables_number       1
_space_group_crystal_system       triclinic
_cell_length_a                    10.886357
_cell_length_b                    9.560483
_cell_length_c                    15.986882
_cell_angle_alpha                 89.915174
_cell_angle_beta                  89.803848
_cell_angle_gamma                 89.02282
_cell_volume                      1663.64257271

loop_
_atom_site_label
_atom_site_type_symbol
_atom_type_description
_atom_site_fract_x
_atom_site_fract_y
_atom_site_fract_z
_atom_type_partial_charge
C1    C     C_R   0.871900 0.494701 0.505767 -0.170479
C2    C     C_R   0.527721 0.373429 0.955858 0.275128
C3    C     C_R   0.507291 0.500131 0.912451 -0.227737
C4    C     C_R   0.507713 0.499612 0.087311 -0.227140
C5    C     C_1   0.504816 0.499940 0.822526 0.256027
C6    C     C_1   0.505010 0.499846 0.177305 0.257478
C7    C     C_1   0.502638 0.500138 0.252389 -0.074528
C8    C     C_1   0.502628 0.499787 0.747493 -0.076218
C9    C     C_R   0.564474 0.073152 0.441081 -0.017192
C10   C     C_R   0.435546 0.926842 0.558926 -0.006756
C11   C     C_R   0.435267 0.075332 0.558797 -0.013734
C12   C     C_R   0.127872 0.504629 0.495875 -0.171708
C13   C     C_R   0.564724 0.924661 0.441193 -0.016399
C14   C     C_R   0.066425 0.388179 0.463117 0.148727
C15   C     C_R   0.933245 0.610457 0.539375 0.152311
C16   C     C_R   0.938683 0.380158 0.471483 0.157578
C17   C     C_R   0.061098 0.618620 0.530962 0.158591
C18   C     C_3   0.160884 0.312003 0.333507 -0.572937
C19   C     C_3   0.835811 0.681618 0.669142 -0.589059
C20   C     C_3   0.869537 0.149207 0.507504 -0.652545
C21   C     C_3   0.129303 0.850860 0.497229 -0.656631
C22   C     C_R   0.262213 0.501522 0.498318 0.866839
C23   C     C_R   0.737703 0.498390 0.502174 0.866799
C24   C     C_R   0.500406 0.500071 0.341398 0.787625
C25   C     C_R   0.500435 0.499918 0.658565 0.789125
C26   C     C_R   0.488909 0.626835 0.956102 0.273975
C27   C     C_R   0.510025 0.371569 0.043675 0.272688
C28   C     C_R   0.507430 0.627778 0.043714 0.272154
Cu1   Cu    Cu3+1 0.500000 0.640660 0.500000 0.977580
Cu2   Cu    Cu3+1 0.500000 0.359340 0.500000 0.975418
H1    H     H_    0.616614 0.127838 0.393919 0.151209
H2    H     H_    0.074479 0.322412 0.297066 0.220698
H3    H     H_    0.217685 0.225799 0.306459 0.244764
H4    H     H_    0.213221 0.410427 0.328474 0.220698
H5    H     H_    0.895908 0.817506 0.576675 0.255852
H6    H     H_    0.921038 0.672329 0.706928 0.224423
H7    H     H_    0.785600 0.581523 0.672119 0.218903
H8    H     H_    0.775860 0.765098 0.696334 0.242994
H9    H     H_    0.905008 0.220315 0.386736 0.258502
H10   H     H_    0.962459 0.115570 0.528585 0.202558
H11   H     H_    0.822307 0.057116 0.481425 0.210882
H12   H     H_    0.383456 0.872145 0.606112 0.143924
H13   H     H_    0.816798 0.187500 0.562708 0.257058
H14   H     H_    0.095388 0.775629 0.617302 0.258724
H15   H     H_    0.036058 0.884537 0.476836 0.203614
H16   H     H_    0.181808 0.814735 0.441424 0.259062
H17   H     H_    0.176205 0.942437 0.524218 0.209202
H18   H     H_    0.382890 0.131759 0.605852 0.140114
H19   H     H_    0.617087 0.868229 0.394128 0.134264
H20   H     H_    0.631755 0.843482 0.212268 0.371961
H21   H     H_    0.674553 0.180475 0.783286 0.373199
H22   H     H_    0.342243 0.824211 0.785428 0.368261
H23   H     H_    0.399927 0.150704 0.215351 0.373510
H24   H     H_    0.104221 0.179950 0.428938 0.255173
N1    N     N_R   0.500000 0.852070 0.500000 -0.160064
N2    N     N_R   0.500000 0.147930 0.500000 -0.161775
N3    N     N_2   0.133766 0.280615 0.420063 -0.421567
N4    N     N_2   0.865604 0.716715 0.583456 -0.418159
N5    N     N_2   0.877242 0.257739 0.444330 -0.406940
N6    N     N_2   0.122699 0.740232 0.559152 -0.407189
O1    O     O_R   0.319640 0.618740 0.499990 -0.560675
O2    O     O_2   0.418637 0.846704 0.130762 -0.243405
O3    O     O_3   0.631913 0.754679 0.180405 -0.557736
O4    O     O_2   0.651968 0.125089 0.954140 -0.139304
O5    O     O_2   0.466801 0.147552 0.867262 -0.225084
O6    O     O_3   0.666925 0.266322 0.817673 -0.563990
O7    O     O_2   0.366997 0.876151 0.956603 -0.139411
O8    O     O_2   0.550788 0.853141 0.867582 -0.227679
O9    O     O_3   0.348760 0.737933 0.819638 -0.562137
O10   O     O_2   0.422863 0.110402 0.042619 -0.111998
O11   O     O_2   0.605893 0.153529 0.127950 -0.244906
O12   O     O_R   0.680360 0.381260 0.500010 -0.560621
O13   O     O_3   0.392663 0.238304 0.182426 -0.571739
O14   O     O_R   0.680360 0.618740 0.500010 -0.556206
O15   O     O_R   0.319640 0.381260 0.499990 -0.556580
O16   O     O_R   0.499970 0.618750 0.380310 -0.578046
O17   O     O_R   0.500030 0.381250 0.619690 -0.579724
O18   O     O_R   0.500030 0.618750 0.619690 -0.570121
O19   O     O_R   0.499970 0.381250 0.380310 -0.570431
O20   O     O_2   0.599629 0.886997 0.041906 -0.115633
S1    S     S_3+6 0.537782 0.785153 0.098882 0.100136
S2    S     S_3+6 0.577752 0.221692 0.899320 0.099315
S3    S     S_3+6 0.439556 0.779786 0.900499 0.097871
S4    S     S_3+6 0.484525 0.212657 0.098893 0.099274

loop_
_geom_bond_atom_site_label_1
_geom_bond_atom_site_label_2
_ccdc_geom_bond_type
O7    S3    D    
C26   S3    S    
H20   O3    S    
C10   H12   S    
C20   H13   S    
C20   H11   S    
Cu1   O16   S    
O3    S1    S    
H5    N4    S    
C25   O17   A    
C27   S4    S    
C21   H16   S    
C19   H6    S    
C20   H10   S    
C7    C24   S    
C12   C22   S    
C9    C13   A    
H22   O9    S    
C19   H7    S    
Cu2   O17   S    
Cu1   O18   S    
C12   C17   A    
C2    C27   A    
C1    C15   A    
O10   S4    D    
O13   S4    S    
C8    C25   S    
C11   H18   S    
C22   O15   A    
C4    C28   A    
C21   H15   S    
C19   N4    S    
Cu1   O1    S    
C25   O18   A    
C21   N6    S    
C4    C6    S    
C9    N2    A    
C24   O16   A    
Cu1   O14   S    
Cu1   N1    S    
Cu2   N2    S    
C24   O19   A    
C16   N5    S    
Cu1   Cu2   S    
O9    S3    S    
C19   H8    S    
O6    S2    S    
C18   N3    S    
H9    N5    S    
C1    C16   A    
C20   N5    S    
C10   N1    A    
C18   H4    S    
O4    S2    D    
C13   H19   S    
Cu2   O19   S    
O2    S1    D    
C12   C14   A    
C1    C23   S    
C15   N4    S    
C14   C16   A    
C2    S2    S    
C18   H2    S    
C23   O14   A    
C4    C27   A    
O11   S4    D    
C15   C17   A    
C14   N3    S    
C28   S1    S    
O8    S3    D    
C23   O12   A    
C3    C26   A    
H23   O13   S    
O20   S1    D    
C3    C5    S    
C5    C8    T    
Cu2   O12   S    
C6    C7    T    
C26   C28   A    
C2    C3    A    
C22   O1    A    
Cu2   O15   S    
O5    S2    D    
H14   N6    S    
C18   H3    S    
C10   C11   A    
C9    H1    S    
C17   N6    S    
C13   N1    A    
H21   O6    S    
C11   N2    A    
C21   H17   S    
H24   N3    S    
