data_mof_unit_4648.cif
_audit_creation_date              2013-03-05T16:44:15-0500
_audit_creation_method            fapswitch 2.2
_symmetry_space_group_name_H-M    P1
_symmetry_Int_Tables_number       1
_space_group_crystal_system       triclinic
_cell_length_a                    23.435536
_cell_length_b                    10.695272
_cell_length_c                    9.84857
_cell_angle_alpha                 89.271146
_cell_angle_beta                  89.944711
_cell_angle_gamma                 90.67858
_cell_volume                      2468.16409977

loop_
_atom_site_label
_atom_site_type_symbol
_atom_site_description
_atom_site_fract_x
_atom_site_fract_y
_atom_site_fract_z
_atom_type_partial_charge
O1    O     O_R   0.500010 0.316790 0.614690 -0.618445
O2    O     O_R   0.500000 0.316760 0.385350 -0.607027
C1    C     C_R   0.503497 0.259894 0.500265 0.899304
O3    O     O_R   0.416160 0.499980 0.614700 -0.623208
O4    O     O_R   0.416150 0.499940 0.385360 -0.631662
C2    C     C_R   0.389321 0.502275 0.500370 0.890908
Zn1   Zn    Zn3+2 0.500000 0.500020 0.653130 0.953937
Zn2   Zn    Zn3+2 0.500000 0.499980 0.346870 0.951766
O5    O     O_R   0.500000 0.683240 0.614650 -0.616945
O6    O     O_R   0.499990 0.683210 0.385310 -0.617717
O7    O     O_R   0.583850 0.500060 0.614640 -0.629335
O8    O     O_R   0.583840 0.500020 0.385300 -0.632702
C3    C     C_R   0.502066 0.739947 0.499302 0.912096
C4    C     C_R   0.610709 0.501018 0.499877 0.861250
C5    C     C_R   0.879779 0.637018 0.472025 0.530664
N1    N     N_R   0.852098 0.526819 0.500279 -0.362856
C6    C     C_R   0.880513 0.420033 0.531390 0.509870
C7    C     C_R   0.939944 0.421008 0.535880 -0.044139
C8    C     C_R   0.970106 0.533057 0.506801 -0.057149
C9    C     C_R   0.939950 0.643311 0.474428 -0.065406
C10   C     C_R   0.969139 0.312702 0.572595 -0.132678
C11   C     C_R   0.028508 0.312020 0.579836 -0.019142
C12   C     C_R   0.059709 0.421500 0.540437 -0.091381
C13   C     C_R   0.030269 0.533955 0.509668 -0.026871
C14   C     C_R   0.060861 0.646646 0.481148 -0.070074
C15   C     C_R   0.030330 0.757495 0.449257 0.050584
C16   C     C_R   0.970455 0.755382 0.446042 0.134699
C17   C     C_R   0.119300 0.422697 0.526738 0.472688
N2    N     N_R   0.148031 0.532786 0.507103 -0.352371
C18   C     C_R   0.120962 0.643307 0.486029 0.512715
O9    O     O_2   0.848752 0.739320 0.442753 -0.521839
O10   O     O_2   0.851018 0.313163 0.557727 -0.549340
H1    H     H_    0.945390 0.228767 0.601018 0.220968
O11   O     O_2   0.148850 0.315224 0.528813 -0.560823
O12   O     O_2   0.152798 0.748242 0.470001 -0.564553
C19   C     C_R   0.238290 0.545243 0.385594 -0.033465
H2    H     H_    0.215181 0.561634 0.291983 0.169126
C20   C     C_R   0.297262 0.537158 0.382827 -0.183712
H3    H     H_    0.319332 0.551463 0.287344 0.195480
C21   C     C_R   0.327271 0.511955 0.502641 -0.108543
C22   C     C_R   0.297909 0.501005 0.626583 -0.164891
H4    H     H_    0.321203 0.484850 0.719911 0.194693
C23   C     C_R   0.238630 0.511795 0.631170 0.017920
C24   C     C_R   0.208883 0.531460 0.508563 0.217820
C25   C     C_R   0.762118 0.519785 0.376455 -0.099987
H5    H     H_    0.785286 0.522663 0.281245 0.138283
C26   C     C_R   0.702947 0.511626 0.376212 -0.220203
H6    H     H_    0.680848 0.509261 0.279722 0.154964
C27   C     C_R   0.672910 0.506781 0.499703 -0.036433
C28   C     C_R   0.702750 0.510336 0.623169 -0.213436
H7    H     H_    0.680543 0.507060 0.719674 0.155340
C29   C     C_R   0.761868 0.518395 0.622989 -0.099909
H8    H     H_    0.784852 0.520536 0.718302 0.137409
C30   C     C_R   0.791428 0.523032 0.499776 0.319377
C31   C     C_R   0.513243 0.061591 0.622197 0.044473
C32   C     C_R   0.515428 0.128745 0.500129 -0.101728
C33   C     C_R   0.529833 0.065547 0.378931 0.098639
C34   C     C_R   0.527465 0.935105 0.379744 -0.239269
H9    H     H_    0.534466 0.884949 0.286380 0.163548
C35   C     C_R   0.512226 0.870920 0.499285 -0.117131
C36   C     C_R   0.510980 0.934245 0.621264 0.104434
C37   C     C_3   0.471209 0.926358 0.740804 0.065588
C38   C     C_3   0.474472 0.068939 0.742736 -0.518827
H10   H     H_    0.433641 0.116131 0.718147 0.223338
H11   H     H_    0.497732 0.105719 0.832304 0.182900
C39   C     C_R   0.451742 0.466929 0.072057 0.194010
N3    N     N_R   0.499610 0.499140 0.142800 -0.120629
C40   C     C_R   0.545752 0.543718 0.071249 -0.134560
H12   H     H_    0.583037 0.577182 0.124902 0.146267
C41   C     C_R   0.545789 0.543538 0.927254 -0.108825
H13   H     H_    0.583114 0.576794 0.872522 0.146956
N4    N     N_R   0.499610 0.499180 0.857150 -0.110648
C42   C     C_R   0.451620 0.468528 0.929027 0.202996
C43   C     C_3   0.420884 0.346555 0.922467 -0.483621
C44   C     C_3   0.422197 0.342168 0.077013 -0.284501
H14   H     H_    0.378067 0.355580 0.875428 0.242279
H15   H     H_    0.447742 0.275019 0.876332 0.189399
H16   H     H_    0.449825 0.267024 0.118619 0.163859
N5    N     N_3   0.543640 0.132481 0.255353 -0.433793
H17   H     H_    0.583077 0.176987 0.270003 0.194279
H18   H     H_    0.549023 0.070823 0.174897 0.167671
C45   C     C_2   0.412613 0.872888 0.710348 0.463230
H19   H     H_    0.395068 0.798089 0.773771 0.079944
O13   O     O_2   0.384678 0.911910 0.614441 -0.567660
N6    N     N_3   0.497584 0.866157 0.859426 -0.469484
H20   H     H_    0.538892 0.901818 0.873952 0.189078
H21   H     H_    0.473922 0.889054 0.945543 0.176402
C46   C     C_2   0.055445 0.199488 0.641300 0.476150
H22   H     H_    0.095188 0.207189 0.696869 0.125062
O14   O     O_2   0.032268 0.096860 0.634948 -0.599313
C47   C     C_2   0.364626 0.345729 0.144667 0.484393
H23   H     H_    0.359986 0.308854 0.247251 0.075109
O15   O     O_2   0.323316 0.391125 0.087755 -0.530901
N7    N     N_3   0.058361 0.874187 0.416734 -0.420645
H24   H     H_    0.084601 0.863119 0.331962 0.239050
H25   H     H_    0.081842 0.904389 0.500508 0.284482
N8    N     N_3   0.940788 0.868587 0.413283 -0.357606
H26   H     H_    0.952062 0.936565 0.484100 0.243225
H27   H     H_    0.953776 0.899770 0.316922 0.207015
C48   C     C_2   0.208117 0.503833 0.763295 0.451197
H28   H     H_    0.162512 0.519183 0.768506 0.050314
O16   O     O_2   0.233613 0.480670 0.868564 -0.521766

loop_
_geom_bond_atom_site_label_1
_geom_bond_atom_site_label_2
_geom_bond_distance
_ccdc_geom_bond_type
C15   N7    1.435895 S    
C31   C32   1.393128 A    
C38   H11   1.111167 S    
C7    C10   1.396156 A    
C42   C43   1.484860 S    
C33   N5    1.438755 S    
C8    C9    1.415002 A    
N8    H26   1.045718 S    
C26   C27   1.404729 A    
C3    C35   1.418106 S    
C25   H5    1.082994 S    
Zn1   O7    2.000933 S    
C15   C16   1.403516 A    
N2    C18   1.361813 A    
C43   H14   1.110344 S    
C18   O12   1.347814 S    
C19   H2    1.083087 S    
C20   H3    1.081088 S    
O7    C4    1.293052 A    
C4    C27   1.458264 S    
C10   H1    1.084183 S    
C34   C35   1.399166 A    
C5    N1    1.364030 A    
C32   C33   1.421522 A    
C7    C8    1.410178 A    
C22   H4    1.082516 S    
O5    C3    1.281550 A    
C16   N8    1.436602 S    
C40   H12   1.081250 S    
C43   H15   1.098959 S    
C31   C38   1.497683 S    
C28   C29   1.387115 A    
C12   C13   1.423094 A    
C41   H13   1.081225 S    
C11   C46   1.487855 S    
C44   C47   1.505294 S    
C25   C26   1.388419 A    
C39   N3    1.364188 A    
C37   C45   1.513057 S    
C17   O11   1.348899 S    
C10   C11   1.393349 A    
C22   C23   1.396118 A    
C36   C37   1.501788 S    
O3    Zn1   2.001311 S    
N8    H27   1.045705 S    
C29   C30   1.396750 A    
C28   H7    1.083134 S    
N6    H21   1.046129 S    
C5    C9    1.411166 A    
C37   N6    1.467351 S    
C43   C44   1.522534 S    
N3    C40   1.367851 A    
C13   C14   1.419890 A    
O3    C2    1.290389 A    
Zn1   N4    2.009223 S    
N5    H18   1.045820 S    
N1    C6    1.360593 A    
C14   C15   1.423801 A    
N6    H20   1.046912 S    
C39   C42   1.408532 A    
C38   H10   1.112585 S    
C35   C36   1.387010 A    
O1    C1    1.290497 A    
C23   C24   1.409591 A    
C37   C38   1.526315 S    
C47   O15   1.221641 D    
C1    C32   1.433525 S    
C26   H6    1.083130 S    
Zn2   O8    2.001309 S    
C48   O16   1.221235 D    
C6    C7    1.393480 A    
C12   C17   1.402806 A    
C23   C48   1.485185 S    
N7    H25   1.044675 S    
Zn2   O6    2.000654 S    
C21   C22   1.403583 A    
C46   O14   1.221249 D    
C25   C30   1.396505 A    
C45   H19   1.085444 S    
C45   O13   1.221708 D    
N2    C24   1.426411 S    
C2    C21   1.459248 S    
C19   C24   1.398149 A    
C47   H23   1.084763 S    
C29   H8    1.083065 S    
C14   C18   1.410220 A    
Zn1   O5    1.991159 S    
C17   N2    1.361000 A    
O1    Zn1   2.000652 S    
O2    Zn2   1.991157 S    
O8    C4    1.292859 A    
N4    C42   1.362826 A    
O6    C3    1.283625 A    
O4    Zn2   2.000933 S    
C5    O9    1.349159 S    
C9    C16   1.413063 A    
C19   C20   1.386045 A    
O2    C1    1.281142 A    
C34   H9    1.083746 S    
C20   C21   1.399154 A    
C33   C34   1.395487 A    
O4    C2    1.295622 A    
C39   C44   1.496228 S    
C31   C36   1.362556 A    
C48   H28   1.084514 S    
C8    C13   1.410179 A    
N7    H24   1.045202 S    
C44   H16   1.112426 S    
N1    C30   1.421965 S    
N5    H17   1.045547 S    
C46   H22   1.083561 S    
Zn2   N3    2.009961 S    
C40   C41   1.418162 A    
C27   C28   1.404021 A    
C6    O10   1.350894 S    
C11   C12   1.422641 A    
C41   N4    1.367708 A    
