data_mof_unit_3604.cif
_audit_creation_date              2013-03-05T15:46:05-0500
_audit_creation_method            fapswitch 2.2
_symmetry_space_group_name_H-M    P1
_symmetry_Int_Tables_number       1
_space_group_crystal_system       triclinic
_cell_length_a                    6.94239
_cell_length_b                    23.09678
_cell_length_c                    23.554043
_cell_angle_alpha                 112.149229
_cell_angle_beta                  89.048661
_cell_angle_gamma                 89.643927
_cell_volume                      3497.30712963

loop_
_atom_site_label
_atom_site_type_symbol
_atom_site_description
_atom_site_fract_x
_atom_site_fract_y
_atom_site_fract_z
_atom_type_partial_charge
O1    O     O_R   0.494720 0.434890 0.424760 -0.575228
O2    O     O_R   0.819720 0.445970 0.545570 -0.604471
O3    O     O_R   0.993930 0.565110 0.575240 -0.588023
C1    C     C_R   0.651029 0.433845 0.562606 0.897357
O4    O     O_R   0.824180 0.427610 0.423390 -0.593305
O5    O     O_R   0.998420 0.546620 0.452190 -0.599505
C2    C     C_R   0.657971 0.408891 0.399500 0.951400
O6    O     O_R   0.490230 0.453380 0.547810 -0.606466
O7    O     O_3   0.662090 0.539070 0.509590 -0.245826
V1    V     V_3+5 0.935410 0.492750 0.498220 1.180254
O8    O     O_R   0.328360 0.554030 0.454430 -0.587993
C3    C     C_R   0.159997 0.566196 0.437516 0.951028
O9    O     O_R   0.323900 0.572390 0.576610 -0.566287
C4    C     C_R   0.152031 0.590462 0.600573 1.044221
V2    V     V_3+5 0.435890 0.507250 0.501780 1.206464
O10   O     O_3   0.159350 0.460930 0.490410 -0.277819
C5    C     C_R   0.105851 0.854976 0.840427 -0.325038
C6    C     C_R   0.126488 0.643792 0.660348 -0.345470
C7    C     C_R   0.917906 0.693414 0.751817 0.624646
C8    C     C_R   0.966347 0.642999 0.697034 -0.323774
C9    C     C_R   0.243937 0.696822 0.678493 0.298295
C10   C     C_R   0.196469 0.749033 0.732850 -0.057533
C11   C     C_R   0.032587 0.747888 0.769969 -0.148576
C12   C     C_R   0.988815 0.801552 0.824276 0.354666
C13   C     C_R   0.261948 0.855225 0.802090 -0.134938
C14   C     C_R   0.306501 0.803526 0.749473 -0.009079
H1    H     H_    0.352826 0.895868 0.813366 0.149793
H2    H     H_    0.428779 0.806964 0.721911 0.166500
H3    H     H_    0.873992 0.602770 0.681384 0.159444
C15   C     C_R   0.259979 0.881739 0.121600 -0.153031
H4    H     H_    0.393496 0.898076 0.108846 0.132873
C16   C     C_R   0.268233 0.846386 0.158538 -0.136874
H5    H     H_    0.407799 0.836541 0.172944 0.114400
C17   C     C_R   0.099004 0.824166 0.176624 0.119157
C18   C     C_R   0.921191 0.838382 0.156695 -0.137664
H6    H     H_    0.787758 0.822199 0.169656 0.116091
C19   C     C_R   0.912900 0.873750 0.119726 -0.126853
H7    H     H_    0.773326 0.883792 0.105469 0.131299
C20   C     C_R   0.082230 0.895897 0.101582 -0.129443
N1    N     N_R   0.944863 0.764825 0.233392 -0.075998
N2    N     N_R   0.953082 0.730960 0.268354 -0.077386
C21   C     C_R   0.124864 0.717108 0.287488 0.104222
N3    N     N_R   0.288050 0.738750 0.270030 -0.075762
N4    N     N_R   0.279832 0.772612 0.235064 -0.077352
C22   C     C_R   0.108059 0.786430 0.215899 0.103407
C23   C     C_R   0.311852 0.664690 0.346250 -0.138525
H8    H     H_    0.445140 0.681399 0.333796 0.116909
C24   C     C_R   0.320380 0.628464 0.382397 -0.127212
H9    H     H_    0.459970 0.618387 0.396618 0.131847
C25   C     C_R   0.151289 0.605454 0.399714 -0.129777
C26   C     C_R   0.973451 0.619942 0.380003 -0.147133
H10   H     H_    0.840066 0.603127 0.392288 0.131505
C27   C     C_R   0.964962 0.656159 0.343895 -0.134845
H11   H     H_    0.825372 0.666099 0.329578 0.113574
C28   C     C_R   0.134026 0.678969 0.326376 0.118822
C29   C     C_R   0.469318 0.374396 0.616837 -0.187944
H12   H     H_    0.333941 0.387303 0.602370 0.128654
C30   C     C_R   0.466607 0.337307 0.652311 -0.141332
H13   H     H_    0.328835 0.322992 0.664441 0.116099
C31   C     C_R   0.639269 0.319597 0.672421 0.136369
C32   C     C_R   0.814379 0.339672 0.655818 -0.143672
H14   H     H_    0.950064 0.327095 0.670399 0.114956
C33   C     C_R   0.817188 0.376281 0.620123 -0.163444
H15   H     H_    0.955422 0.390742 0.608478 0.128127
C34   C     C_R   0.644858 0.394344 0.600195 -0.122304
N5    N     N_R   0.799214 0.273459 0.739424 -0.085218
N6    N     N_R   0.795031 0.242085 0.776832 -0.074337
C35   C     C_R   0.628276 0.217548 0.788098 0.194836
N7    N     N_R   0.467723 0.224099 0.758647 -0.038770
N8    N     N_R   0.471564 0.255609 0.721475 -0.082653
C36   C     C_R   0.636979 0.281687 0.711562 0.076711
C37   C     C_R   0.439554 0.176172 0.857145 0.600699
C38   C     C_R   0.428094 0.134818 0.888196 -0.372143
H16   H     H_    0.288279 0.122888 0.900833 0.232010
C39   C     C_R   0.595821 0.112689 0.906572 -0.381593
C40   C     C_R   0.774453 0.137014 0.896318 0.606382
C41   C     C_R   0.786260 0.167201 0.854504 -0.348390
H17   H     H_    0.926102 0.178924 0.841545 0.223000
C42   C     C_R   0.618593 0.185429 0.832614 -0.146548
C43   C     C_R   0.571068 0.144220 0.161288 -0.133459
C44   C     C_R   0.659730 0.352329 0.341367 -0.326695
C45   C     C_R   0.821803 0.293059 0.243926 -0.129683
C46   C     C_R   0.805226 0.346424 0.297415 -0.181069
C47   C     C_R   0.531634 0.301791 0.331695 0.534223
C48   C     C_R   0.538022 0.249124 0.274625 -0.129910
C49   C     C_R   0.689241 0.244595 0.231508 0.083936
C50   C     C_R   0.706848 0.191871 0.176210 -0.266527
C51   C     C_R   0.417036 0.149858 0.202431 -0.378360
C52   C     C_R   0.399751 0.200673 0.259754 0.584639
H18   H     H_    0.823188 0.188731 0.143903 0.132096
H19   H     H_    0.308705 0.114111 0.188857 0.147196
H20   H     H_    0.938051 0.290110 0.211674 0.137317
H21   H     H_    0.908616 0.383390 0.304820 0.148106
O11   O     O_R   0.743670 0.046700 0.952260 -0.578226
O12   O     O_R   0.409540 0.072400 0.076630 -0.604067
O13   O     O_R   0.235480 0.953360 0.047790 -0.599005
C53   C     C_R   0.575414 0.090801 0.100832 0.927765
O14   O     O_R   0.414170 0.054050 0.954440 -0.592856
O15   O     O_R   0.240140 0.934880 0.924740 -0.578652
C54   C     C_R   0.583738 0.068676 0.939840 0.980869
O16   O     O_R   0.739000 0.065180 0.075310 -0.614556
O17   O     O_3   0.571870 0.960980 0.990450 -0.241530
V3    V     V_3+5 0.298470 0.007240 0.001770 1.178508
O18   O     O_R   0.910180 0.927540 0.923320 -0.554530
C55   C     C_R   0.081938 0.909228 0.899567 1.017119
O19   O     O_R   0.905550 0.945890 0.045500 -0.588572
C56   C     C_R   0.073794 0.934176 0.062839 0.944993
V4    V     V_3+5 0.798010 0.992650 0.998130 1.208153
O20   O     O_3   0.074480 0.039020 0.009550 -0.295280
N9    N     N_R   0.834681 0.800850 0.865153 0.255957
O21   O     O_R   0.868930 0.784983 0.911500 -0.414106
O22   O     O_R   0.664592 0.821760 0.859476 -0.361357
O23   O     O_3   0.277896 0.210675 0.854993 -0.647620
C57   C     C_3   0.300144 0.272630 0.898339 0.223098
H22   H     H_    0.433706 0.294640 0.889509 0.088757
H23   H     H_    0.311055 0.272607 0.945317 0.038516
C58   C     C_3   0.127714 0.313931 0.897500 -0.311621
H24   H     H_    0.991230 0.288493 0.895300 0.200047
H25   H     H_    0.123817 0.355959 0.940808 0.153811
C59   C     C_3   0.141321 0.335647 0.843893 -0.834273
H26   H     H_    0.272507 0.363976 0.847325 0.237320
H27   H     H_    0.013071 0.364898 0.844615 0.240171
H28   H     H_    0.146621 0.294886 0.799809 0.287150
O24   O     O_3   0.937649 0.133724 0.928029 -0.663293
C60   C     C_3   0.912493 0.171608 0.991441 0.227946
H29   H     H_    0.949087 0.143065 0.018493 0.159523
H30   H     H_    0.762539 0.189777 0.005741 0.033495
C61   C     C_3   0.048511 0.226902 0.009410 -0.308388
H31   H     H_    0.198245 0.209545 0.995758 0.207914
H32   H     H_    0.005800 0.257896 0.985360 0.193236
C62   C     C_3   0.041443 0.264374 0.078386 -1.058487
H33   H     H_    0.892208 0.281177 0.094038 0.271478
H34   H     H_    0.136601 0.305479 0.089410 0.276689
H35   H     H_    0.092990 0.235049 0.103278 0.268035
O25   O     O_3   0.238199 0.208578 0.298266 -0.623187
C63   C     C_3   0.167802 0.152044 0.300824 0.187118
H36   H     H_    0.136249 0.160252 0.349584 0.119445
H37   H     H_    0.274176 0.112537 0.284907 0.073341
C64   C     C_3   0.977511 0.134896 0.266805 -0.273228
H38   H     H_    0.866888 0.171064 0.291296 0.205421
H39   H     H_    0.995048 0.133889 0.219562 0.205070
C65   C     C_3   0.906463 0.071343 0.263408 -1.026735
H40   H     H_    0.012199 0.034031 0.237492 0.268947
H41   H     H_    0.766956 0.061142 0.239400 0.269047
H42   H     H_    0.884681 0.071383 0.310249 0.272428
O26   O     O_3   0.402759 0.303280 0.377960 -0.615370
C66   C     C_3   0.502096 0.295205 0.426826 0.239733
H43   H     H_    0.431565 0.326158 0.470492 0.119830
H44   H     H_    0.656801 0.308614 0.429774 0.045936
C67   C     C_3   0.488137 0.227680 0.422624 -0.311502
H45   H     H_    0.335037 0.216956 0.428112 0.206283
H46   H     H_    0.543814 0.195329 0.377131 0.194060
C68   C     C_3   0.604093 0.217404 0.472607 -0.995740
H47   H     H_    0.758881 0.227045 0.467882 0.269499
H48   H     H_    0.590419 0.168107 0.468454 0.273031
H49   H     H_    0.549160 0.248467 0.518652 0.278589
O27   O     O_3   0.745032 0.694234 0.783186 -0.610572
C69   C     C_3   0.703532 0.636833 0.789347 0.252012
H50   H     H_    0.665510 0.647473 0.838283 0.147348
H51   H     H_    0.828226 0.603495 0.778662 0.050494
C70   C     C_3   0.528136 0.606921 0.750936 -0.296012
H52   H     H_    0.399121 0.637313 0.769810 0.210938
H53   H     H_    0.550634 0.602847 0.702809 0.221586
C71   C     C_3   0.489828 0.542020 0.751126 -1.032025
H54   H     H_    0.614973 0.510341 0.730684 0.274045
H55   H     H_    0.360974 0.522183 0.723476 0.270347
H56   H     H_    0.462860 0.544786 0.798697 0.274724
N10   N     N_R   0.402703 0.699418 0.639752 0.230630
O28   O     O_R   0.578602 0.700915 0.658359 -0.402210
O29   O     O_R   0.371604 0.699375 0.585416 -0.399749

loop_
_geom_bond_atom_site_label_1
_geom_bond_atom_site_label_2
_geom_bond_distance
_ccdc_geom_bond_type
O15   V3    1.998856 S    
C33   C34   1.409184 A    
O27   C69   1.417811 S    
C52   O25   1.397454 S    
C43   C53   1.491369 S    
C6    C9    1.406044 A    
N2    C21   1.359970 A    
C4    C6    1.487362 S    
C27   C28   1.407457 A    
O2    C1    1.297764 A    
C66   H43   1.110478 S    
C1    O6    1.302486 A    
C62   H35   1.110851 S    
C61   H31   1.109601 S    
C44   C47   1.422804 A    
C70   H52   1.111871 S    
O25   C63   1.419059 S    
O17   V3    2.135055 S    
C48   C49   1.423940 A    
V4    O20   2.174581 S    
C20   C56   1.492442 S    
O11   V4    1.973019 S    
C9    N10   1.435205 S    
C71   H54   1.111117 S    
C18   C19   1.402245 A    
O26   C66   1.421900 S    
C37   C42   1.413205 A    
C58   H25   1.111607 S    
O5    C3    1.301322 A    
C15   H4    1.082763 S    
C64   C65   1.525142 S    
O19   C56   1.303644 A    
C30   C31   1.409743 A    
O14   V3    1.986655 S    
C46   H21   1.083549 S    
C45   H20   1.083051 S    
C29   H12   1.082610 S    
C17   C18   1.407996 A    
C38   H16   1.078085 S    
C32   C33   1.399250 A    
N9    O21   1.300654 A    
C69   C70   1.534362 S    
C70   H53   1.109858 S    
O8    V2    1.973529 S    
C7    C8    1.407746 A    
O12   V3    2.006795 S    
C35   N7    1.359856 A    
C67   C68   1.526498 S    
C23   C28   1.408018 A    
C60   C61   1.523969 S    
C11   C12   1.432401 A    
O17   V4    1.719435 S    
N8    C36   1.357142 A    
O1    V2    1.982874 S    
C68   H48   1.110241 S    
O7    V1    2.135093 S    
C6    C8    1.401188 A    
C59   H28   1.107725 S    
C35   C42   1.496354 S    
N10   O29   1.301071 A    
N5    N6    1.335350 A    
O9    C4    1.307783 A    
C69   H51   1.115339 S    
C38   C39   1.407352 A    
C65   H42   1.110797 S    
N7    N8    1.333005 A    
C63   C64   1.531836 S    
O18   C55   1.306483 A    
C44   C46   1.402755 A    
C59   H27   1.110336 S    
C57   H22   1.113839 S    
C8    H3    1.080415 S    
C41   C42   1.405534 A    
N1    C22   1.359765 A    
O15   C55   1.293708 A    
C23   C24   1.402371 A    
C5    C12   1.412878 A    
C65   H40   1.111183 S    
C26   H10   1.082769 S    
C40   O24   1.384592 S    
N10   O28   1.300533 A    
C66   C67   1.528845 S    
C12   N9    1.431815 S    
C47   C48   1.432824 A    
C63   H37   1.114918 S    
C58   C59   1.526099 S    
O4    C2    1.295888 A    
C48   C52   1.423166 A    
C49   C50   1.411097 A    
C63   H36   1.109025 S    
C31   C36   1.491720 S    
C30   H13   1.082519 S    
C41   H17   1.079234 S    
C37   O23   1.385076 S    
N6    C35   1.357637 A    
C31   C32   1.404908 A    
C26   C27   1.401451 A    
C18   H6    1.082584 S    
C7    O27   1.395128 S    
C7    C11   1.420492 A    
C39   C40   1.418782 A    
C19   H7    1.082699 S    
C5    C55   1.487162 S    
C21   C28   1.492883 S    
C29   C34   1.406539 A    
C57   H23   1.110566 S    
N5    C36   1.360608 A    
C51   H19   1.079898 S    
O11   C54   1.300683 A    
C64   H38   1.111016 S    
C25   C26   1.408136 A    
C17   C22   1.492827 S    
C40   C41   1.406658 A    
C68   H49   1.110215 S    
O3    C4    1.292255 A    
C43   C50   1.398441 A    
N1    N2    1.334138 A    
C2    C44   1.494033 S    
O13   C56   1.301288 A    
O6    V2    1.972515 S    
O14   C54   1.302807 A    
O9    V2    1.978645 S    
N3    N4    1.334140 A    
C69   H50   1.110907 S    
C67   H46   1.111254 S    
C50   H18   1.083476 S    
C21   N3    1.359773 A    
C62   H33   1.111022 S    
O2    V1    1.986460 S    
C61   C62   1.525626 S    
O18   V4    1.978541 S    
C70   C71   1.525682 S    
C59   H26   1.110893 S    
O23   C57   1.421352 S    
C23   H8    1.082604 S    
C24   H9    1.082718 S    
C66   H44   1.115642 S    
O1    C2    1.303389 A    
C71   H56   1.110670 S    
N4    C22   1.359966 A    
C37   C38   1.406852 A    
C62   H34   1.110308 S    
C61   H32   1.109054 S    
O5    V1    1.980687 S    
C3    C25   1.492819 S    
O8    C3    1.303710 A    
O12   C53   1.294946 A    
C27   H11   1.082596 S    
C47   O26   1.388582 S    
C13   H1    1.083860 S    
C14   H2    1.081589 S    
C67   H45   1.109335 S    
V3    O20   1.692747 S    
C5    C13   1.400459 A    
C16   H5    1.082581 S    
C71   H55   1.110742 S    
C13   C14   1.387173 A    
O4    V1    2.006623 S    
C19   C20   1.407783 A    
O3    V1    1.999010 S    
C45   C49   1.400118 A    
C58   H24   1.109629 S    
C15   C16   1.401343 A    
C64   H39   1.108856 S    
C60   H29   1.106872 S    
O19   V4    1.973571 S    
O16   V4    1.987293 S    
C1    C34   1.492114 S    
C24   C25   1.407892 A    
C39   C54   1.501302 S    
C29   C30   1.404189 A    
C15   C20   1.408037 A    
C65   H41   1.110789 S    
O7    V2    1.721053 S    
C32   H14   1.082705 S    
N9    O22   1.300898 A    
C57   C58   1.531056 S    
C33   H15   1.082634 S    
C51   C52   1.418756 A    
C43   C51   1.402957 A    
C45   C46   1.393653 A    
C10   C14   1.403990 A    
O13   V3    1.980666 S    
C60   H30   1.117885 S    
C10   C11   1.429799 A    
V1    O10   1.692738 S    
C68   H47   1.111046 S    
C9    C10   1.420880 A    
C53   O16   1.304636 A    
V2    O10   2.174549 S    
C16   C17   1.407441 A    
O24   C60   1.425132 S    
