data_mof_unit_3232.cif
_audit_creation_date              2012-12-10T18:57:51-0500
_audit_creation_method            fapswitch 2.2
_symmetry_space_group_name_H-M    P1
_symmetry_Int_Tables_number       1
_space_group_crystal_system       triclinic
_cell_length_a                    10.724735
_cell_length_b                    9.900644
_cell_length_c                    8.909016
_cell_angle_alpha                 90.0
_cell_angle_beta                  90.802062
_cell_angle_gamma                 90.000031
_cell_volume                      945.882519882

loop_
_atom_site_label
_atom_site_type_symbol
_atom_type_description
_atom_site_fract_x
_atom_site_fract_y
_atom_site_fract_z
_atom_type_partial_charge
C1    C     C_R   0.260023 0.500000 0.499821 0.870497
C2    C     C_R   0.063845 0.623184 0.499946 -0.174990
C3    C     C_R   0.872530 0.500000 0.500151 -0.014229
C4    C     C_R   0.127470 0.500000 0.499849 -0.014229
C5    C     C_R   0.577992 0.072079 0.594328 -0.012207
C6    C     C_R   0.422008 0.927921 0.405672 -0.012207
C7    C     C_R   0.422008 0.072079 0.405672 -0.012207
C8    C     C_R   0.577992 0.927921 0.594328 -0.012207
C9    C     C_1   0.660582 0.145093 0.694537 0.230129
C10   C     C_1   0.339418 0.854907 0.305463 0.230130
C11   C     C_1   0.339418 0.145093 0.305463 0.230130
C12   C     C_R   0.739977 0.500000 0.500179 0.870497
C13   C     C_1   0.660582 0.854907 0.694536 0.230130
C14   C     C_R   0.499828 0.500000 0.218802 0.941775
C15   C     C_R   0.500172 0.500000 0.781198 0.941775
C16   C     C_1   0.499932 0.500000 0.065418 -0.170197
C17   C     C_1   0.500068 0.500000 0.934582 -0.170197
C18   C     C_R   0.063847 0.376816 0.499950 -0.174992
C19   C     C_R   0.936153 0.623184 0.500050 -0.174993
C20   C     C_R   0.936155 0.376816 0.500054 -0.174990
H1    H     H_    0.112192 0.280726 0.500010 0.164941
H2    H     H_    0.887808 0.719274 0.499990 0.164941
H3    H     H_    0.887810 0.280727 0.499996 0.164941
H4    H     H_    0.112190 0.719273 0.500004 0.164941
N1    N     N_R   0.500000 0.857200 0.500000 -0.124075
N2    N     N_R   0.500000 0.142800 0.500000 -0.124075
N3    N     N_1   0.727082 0.202913 0.775315 -0.205790
N4    N     N_1   0.272918 0.797087 0.224685 -0.205790
N5    N     N_1   0.272917 0.202913 0.224686 -0.205790
N6    N     N_1   0.727082 0.797087 0.775314 -0.205790
O1    O     O_R   0.316770 0.614620 0.499990 -0.627321
O2    O     O_R   0.683230 0.385380 0.500010 -0.627321
O3    O     O_R   0.683230 0.614620 0.500010 -0.627322
O4    O     O_R   0.316770 0.385380 0.499990 -0.627322
O5    O     O_R   0.500010 0.614640 0.285340 -0.611575
O6    O     O_R   0.499990 0.385360 0.714660 -0.611576
O7    O     O_R   0.499990 0.614640 0.714660 -0.611575
O8    O     O_R   0.500010 0.385360 0.285340 -0.611575
Zn1   Zn    Zn3+2 0.500000 0.653120 0.500000 0.969859
Zn2   Zn    Zn3+2 0.500000 0.346880 0.500000 0.969859

loop_
_geom_bond_atom_site_label_1
_geom_bond_atom_site_label_2
_ccdc_geom_bond_type
C6    C10   S    
C5    C8    A    
C2    C4    A    
C5    C9    S    
C6    C7    A    
C14   O8    A    
C18   H1    S    
C13   N6    T    
O5    Zn1   S    
C20   H3    S    
O6    Zn2   S    
C1    C4    S    
C4    C18   A    
C3    C19   A    
C2    C19   A    
C3    C20   A    
O7    Zn1   S    
N1    Zn1   S    
C11   N5    T    
C7    C11   S    
C8    N1    A    
N2    Zn2   S    
O3    Zn1   S    
C7    N2    A    
O4    Zn2   S    
O8    Zn2   S    
O1    Zn1   S    
C1    O4    A    
C18   C20   A    
O2    Zn2   S    
C2    H4    S    
C14   C16   S    
C6    N1    A    
C5    N2    A    
C8    C13   S    
C15   O6    A    
C1    O1    A    
C19   H2    S    
C9    N3    T    
C10   N4    T    
C14   O5    A    
C15   C17   S    
C15   O7    A    
C3    C12   S    
C12   O3    A    
C12   O2    A    
C16   C17   T    
