data_mof_unit_1690.cif
_audit_creation_date              2012-12-10T20:27:58-0500
_audit_creation_method            fapswitch 2.2
_symmetry_space_group_name_H-M    P1
_symmetry_Int_Tables_number       1
_space_group_crystal_system       triclinic
_cell_length_a                    12.831353
_cell_length_b                    10.77159
_cell_length_c                    9.932997
_cell_angle_alpha                 88.122991
_cell_angle_beta                  97.778782
_cell_angle_gamma                 92.311909
_cell_volume                      1358.62293433

loop_
_atom_site_label
_atom_site_type_symbol
_atom_type_description
_atom_site_fract_x
_atom_site_fract_y
_atom_site_fract_z
_atom_type_partial_charge
C1    C     C_R   0.502441 0.260393 0.502351 0.890798
C2    C     C_R   0.524910 0.942598 0.375089 0.535060
C3    C     C_R   0.522712 0.871271 0.496839 -0.180142
C4    C     C_R   0.298707 0.510471 0.472336 0.909122
C5    C     C_R   0.536022 0.933081 0.618413 -0.241639
C6    C     C_3   0.537894 0.910384 0.768653 0.827073
C7    C     C_3   0.537367 0.053567 0.775408 1.039085
C8    C     C_R   0.409378 0.475886 0.055987 -0.078952
C9    C     C_R   0.590492 0.523276 0.085156 0.438482
C10   C     C_R   0.590058 0.520970 0.942297 0.609680
C11   C     C_R   0.407241 0.488308 0.913148 -0.097800
C12   C     C_R   0.030252 0.544333 0.563090 -0.114859
C13   C     C_3   0.326840 0.385220 0.887773 0.894885
C14   C     C_3   0.351175 0.351876 0.038268 0.870603
C15   C     C_R   0.506817 0.739492 0.498853 0.857584
C16   C     C_R   0.701746 0.497929 0.527895 0.888503
C17   C     C_R   0.814668 0.498694 0.548571 -0.223795
C18   C     C_R   0.186216 0.527798 0.454104 -0.363529
C19   C     C_R   0.018700 0.470491 0.330923 -0.264086
C20   C     C_R   0.124566 0.496508 0.332497 0.558935
C21   C     C_R   0.138281 0.568646 0.563009 0.482603
C22   C     C_3   0.804276 0.258428 0.390511 -0.245404
C23   C     C_R   0.972382 0.486631 0.448067 -0.195748
C24   C     C_3   0.717193 0.854035 0.773061 -0.277889
C25   C     C_3   0.721855 0.654730 0.176280 -0.243274
C26   C     C_3   0.264689 0.237428 0.727433 -0.080625
C27   C     C_3   0.230371 0.217238 0.127815 -0.146177
C28   C     C_3   0.016828 0.571493 0.907317 -0.092535
C29   C     C_3   0.210717 0.756235 0.627935 -0.138310
C30   C     C_3   0.615292 0.946075 0.190632 -0.361328
C31   C     C_3   0.436349 0.830772 0.932843 -0.136602
C32   C     C_R   0.867425 0.452061 0.448385 0.530562
C33   C     C_R   0.869561 0.557099 0.661716 -0.411301
C34   C     C_R   0.978672 0.574518 0.674147 0.557286
C35   C     C_R   0.532271 0.057430 0.623395 -0.139407
C36   C     C_R   0.514575 0.129456 0.504577 -0.152130
C37   C     C_R   0.513491 0.070865 0.379826 -0.322445
F1    F     F_    0.448678 0.094458 0.820861 -0.643573
F2    F     F_    0.629427 0.108088 0.840071 -0.666334
F3    F     F_    0.682351 0.536268 0.891122 -0.649750
F4    F     F_    0.227450 0.433496 0.852801 -0.667175
F5    F     F_    0.420449 0.255043 0.066394 -0.681402
F6    F     F_    0.165671 0.493988 0.214919 -0.625398
H1    H     H_    0.827242 0.594114 0.737570 0.236107
H2    H     H_    0.803535 0.657822 0.229899 0.174832
H3    H     H_    0.672728 0.704313 0.239234 0.186550
H4    H     H_    0.723695 0.702227 0.075411 0.175919
H5    H     H_    0.219247 0.303964 0.656896 0.149067
H6    H     H_    0.213669 0.192077 0.797914 0.129598
H7    H     H_    0.289769 0.164346 0.663864 0.168099
H8    H     H_    0.285761 0.173125 0.209598 0.175140
H9    H     H_    0.224011 0.163400 0.033346 0.142368
H10   H     H_    0.151559 0.214312 0.162204 0.163184
H11   H     H_    0.023601 0.469086 0.900828 0.196322
H12   H     H_    0.973153 0.439120 0.237483 0.225048
H13   H     H_    0.939769 0.593441 0.938247 0.135979
H14   H     H_    0.078764 0.604079 0.988580 0.236083
H15   H     H_    0.135121 0.797403 0.582561 0.107753
H16   H     H_    0.269638 0.766439 0.555486 0.130044
H17   H     H_    0.240348 0.810597 0.718807 0.217862
H18   H     H_    0.688642 0.958799 0.263676 0.145301
H19   H     H_    0.591250 0.035972 0.140460 0.240760
H20   H     H_    0.634187 0.887403 0.108791 0.212263
H21   H     H_    0.444674 0.919851 0.986802 0.216068
H22   H     H_    0.495318 0.764040 0.979575 0.163650
H23   H     H_    0.502299 0.123724 0.284983 0.239300
H24   H     H_    0.357725 0.789043 0.945514 0.180995
H25   H     H_    0.755773 0.250138 0.475392 0.141085
H26   H     H_    0.882711 0.218239 0.422206 0.133292
H27   H     H_    0.763282 0.202602 0.306011 0.198276
H28   H     H_    0.739235 0.948592 0.735787 0.177030
H29   H     H_    0.703309 0.788306 0.688127 0.168466
H30   H     H_    0.785032 0.820629 0.844349 0.196756
N1    N     N_R   0.499290 0.499140 0.142710 -0.166158
N2    N     N_R   0.499290 0.499180 0.857070 -0.156063
O1    O     O_R   0.500010 0.316790 0.614690 -0.541352
O2    O     O_3   0.628619 0.854981 0.843461 -0.646809
O3    O     O_3   0.686766 0.529660 0.164985 -0.501966
O4    O     O_3   0.355041 0.296279 0.798996 -0.549914
O5    O     O_3   0.261494 0.342513 0.106160 -0.548111
O6    O     O_3   0.032773 0.635403 0.784955 -0.587090
O7    O     O_3   0.197284 0.630565 0.668996 -0.493470
O8    O     O_3   0.532529 0.887085 0.252789 -0.619146
O9    O     O_3   0.441771 0.849353 0.792821 -0.641810
O10   O     O_R   0.500000 0.316760 0.385350 -0.602691
O11   O     O_R   0.346360 0.499990 0.595720 -0.558848
O12   O     O_R   0.346350 0.499960 0.366370 -0.542839
O13   O     O_R   0.500000 0.683240 0.614650 -0.568912
O14   O     O_R   0.499990 0.683210 0.385310 -0.598309
O15   O     O_R   0.653650 0.500040 0.633630 -0.565010
O16   O     O_R   0.653640 0.500010 0.404280 -0.541666
O17   O     O_3   0.814596 0.382696 0.343538 -0.541431
Zn1   Zn    Zn3+2 0.500010 0.500020 0.653130 1.102871
Zn2   Zn    Zn3+2 0.499990 0.499980 0.346870 1.056878

loop_
_geom_bond_atom_site_label_1
_geom_bond_atom_site_label_2
_ccdc_geom_bond_type
C13   O4    S    
C16   O15   A    
C18   C21   A    
N1    Zn2   S    
C35   C36   A    
C13   F4    S    
C28   H13   S    
C4    O12   A    
C28   H14   S    
C31   H24   S    
C12   C23   A    
N2    Zn1   S    
C7    F2    S    
C36   C37   A    
C26   H7    S    
C5    C6    S    
C24   H30   S    
C4    O11   A    
O12   Zn2   S    
C30   O8    S    
C10   F3    S    
C10   N2    A    
O14   Zn2   S    
C19   C20   A    
C16   C17   S    
C34   O6    S    
C14   O5    S    
C9    C10   A    
C25   H4    S    
C22   H26   S    
C26   H5    S    
C14   F5    S    
C4    C18   S    
C13   C14   S    
C33   H1    S    
C2    O8    S    
C17   C33   A    
C27   H8    S    
C1    O10   A    
C6    O9    S    
C25   O3    S    
C29   H16   S    
C27   O5    S    
C26   H6    S    
C28   H11   S    
C6    O2    S    
C12   C21   A    
C31   O9    S    
C19   C23   A    
O11   Zn1   S    
O1    Zn1   S    
C15   O14   A    
O10   Zn2   S    
C29   H17   S    
C37   H23   S    
C8    N1    A    
C33   C34   A    
C21   O7    S    
C22   H25   S    
C30   H19   S    
C9    N1    A    
C12   C34   A    
C25   H2    S    
C20   F6    S    
C3    C15   S    
C27   H9    S    
C24   H29   S    
O15   Zn1   S    
C19   H12   S    
C31   H22   S    
O13   Zn1   S    
C8    C14   S    
C28   O6    S    
C1    O1    A    
C7    C35   S    
C31   H21   S    
C3    C5    A    
C27   H10   S    
C6    C7    S    
C26   O4    S    
C23   C32   A    
C2    C3    A    
C29   O7    S    
C11   N2    A    
O16   Zn2   S    
C11   C13   S    
C2    C37   A    
C32   O17   S    
C8    C11   A    
C5    C35   A    
C7    F1    S    
C18   C20   A    
C9    O3    S    
C24   O2    S    
C29   H15   S    
C24   H28   S    
C16   O16   A    
C30   H18   S    
C17   C32   A    
C22   O17   S    
C30   H20   S    
C25   H3    S    
C22   H27   S    
C1    C36   S    
C15   O13   A    
