data_mof_unit_2274.cif
_audit_creation_date              2013-03-05T15:59:15-0500
_audit_creation_method            fapswitch 2.2
_symmetry_space_group_name_H-M    P1
_symmetry_Int_Tables_number       1
_space_group_crystal_system       triclinic
_cell_length_a                    7.318351
_cell_length_b                    21.082317
_cell_length_c                    23.774486
_cell_angle_alpha                 90.052712
_cell_angle_beta                  90.407412
_cell_angle_gamma                 89.470054
_cell_volume                      3667.86206992

loop_
_atom_site_label
_atom_site_type_symbol
_atom_site_description
_atom_site_fract_x
_atom_site_fract_y
_atom_site_fract_z
_atom_type_partial_charge
O1    O     O_R   0.494270 0.443530 0.442350 -0.584106
O2    O     O_R   0.824060 0.436290 0.557250 -0.570862
O3    O     O_R   0.994370 0.556470 0.557650 -0.585576
C1    C     C_R   0.657267 0.421733 0.575803 0.935738
O4    O     O_R   0.823990 0.436120 0.442760 -0.560723
O5    O     O_R   0.994300 0.556300 0.442340 -0.577525
C2    C     C_R   0.656073 0.421532 0.424165 0.965723
O6    O     O_R   0.494350 0.443700 0.557660 -0.570192
O7    O     O_3   0.660800 0.539430 0.500000 -0.285197
V1    V     V_3+5 0.935650 0.492690 0.500000 1.257175
O8    O     O_R   0.324020 0.563710 0.442750 -0.557716
C3    C     C_R   0.155093 0.578175 0.424157 0.926517
O9    O     O_R   0.324090 0.563880 0.557240 -0.585122
C4    C     C_R   0.155883 0.578415 0.575773 0.947755
V2    V     V_3+5 0.435660 0.507310 0.500000 1.247569
O10   O     O_3   0.160640 0.460570 0.500000 -0.268830
C5    C     C_3   0.054854 0.720703 0.794338 0.014335
C6    C     C_3   0.234959 0.704832 0.762856 -0.185833
H1    H     H_    0.337680 0.668313 0.775301 0.144011
C7    C     C_1   0.147628 0.624309 0.621051 -0.237169
C8    C     C_1   0.071798 0.875538 0.877703 -0.236979
C9    C     C_3   0.949188 0.723829 0.738172 -0.114321
C10   C     C_3   0.126966 0.708787 0.705865 -0.008977
C11   C     C_3   0.987262 0.795475 0.734741 0.231116
C12   C     C_3   0.091805 0.792725 0.791598 -0.012400
C13   C     C_3   0.164479 0.780764 0.702707 0.251080
C14   C     C_3   0.268527 0.777425 0.759049 -0.117279
C15   C     C_1   0.139568 0.662474 0.659189 0.130832
C16   C     C_1   0.079682 0.838016 0.839075 0.125072
C17   C     C_3   0.261896 0.807188 0.245228 -0.213637
C18   C     C_3   0.911001 0.796763 0.245369 0.048024
C19   C     C_3   0.921433 0.738807 0.292297 0.260425
C20   C     C_1   0.145517 0.623956 0.378798 -0.153026
C21   C     C_3   0.089710 0.793379 0.208395 0.106934
C22   C     C_3   0.260473 0.767250 0.302327 0.261753
C23   C     C_3   0.122768 0.709383 0.293244 -0.199937
C24   C     C_3   0.162746 0.675130 0.233975 0.312756
C25   C     C_3   0.118430 0.724360 0.185576 -0.586555
C26   C     C_1   0.137210 0.662161 0.340579 0.169959
C27   C     C_1   0.080201 0.838611 0.159852 0.041699
C28   C     C_1   0.073414 0.875881 0.120940 -0.278940
H2    H     H_    0.229082 0.725627 0.153888 0.220093
H3    H     H_    0.999737 0.708252 0.160474 0.201563
H4    H     H_    0.378096 0.788600 0.219730 0.195992
C29   C     C_3   0.462777 0.242921 0.688702 0.394000
C30   C     C_3   0.803819 0.245829 0.713025 -0.333002
C31   C     C_3   0.794311 0.198957 0.767183 0.481648
H5    H     H_    0.905965 0.279918 0.722697 0.305533
C32   C     C_1   0.565479 0.122528 0.877494 -0.131781
C33   C     C_3   0.627419 0.288822 0.704744 -0.260452
C34   C     C_3   0.453589 0.189020 0.739115 0.051935
C35   C     C_3   0.592101 0.205693 0.790565 -0.219089
C36   C     C_3   0.560417 0.276742 0.814266 -0.108988
C37   C     C_3   0.596825 0.327634 0.763726 0.236054
C38   C     C_1   0.572125 0.159709 0.838516 0.271307
C39   C     C_1   0.648256 0.336504 0.658293 0.245249
C40   C     C_1   0.653943 0.375422 0.620702 -0.151538
C41   C     C_3   0.472645 0.311237 0.252008 -0.351663
C42   C     C_3   0.819217 0.287318 0.259142 0.247295
C43   C     C_3   0.806998 0.234433 0.207307 0.140645
C44   C     C_1   0.570743 0.124076 0.120135 -0.182879
C45   C     C_3   0.631582 0.289411 0.293693 -0.066288
C46   C     C_3   0.477121 0.271937 0.194635 0.258851
C47   C     C_3   0.602176 0.210145 0.205061 -0.112383
C48   C     C_3   0.549569 0.174502 0.263369 -0.083254
C49   C     C_3   0.572026 0.221452 0.317741 0.172426
C50   C     C_1   0.580897 0.162865 0.157901 0.180603
C51   C     C_1   0.643518 0.336922 0.340887 0.181873
C52   C     C_1   0.649421 0.375444 0.378930 -0.199385
H6    H     H_    0.342919 0.300519 0.273292 0.235151
O11   O     O_R   0.724990 0.055630 0.941600 -0.547041
O12   O     O_R   0.395220 0.063160 0.056480 -0.569648
O13   O     O_R   0.225040 0.942970 0.056870 -0.590197
C53   C     C_R   0.563159 0.077784 0.075076 0.925553
O14   O     O_R   0.395270 0.063000 0.941990 -0.561552
O15   O     O_R   0.225080 0.942800 0.941570 -0.583593
C54   C     C_R   0.562059 0.077445 0.923353 0.947185
O16   O     O_R   0.724940 0.055790 0.056910 -0.575718
O17   O     O_3   0.558580 0.959880 0.999250 -0.304535
V3    V     V_3+5 0.283680 0.006590 0.999220 1.242751
O18   O     O_R   0.895380 0.935350 0.941950 -0.579596
C55   C     C_R   0.063589 0.920935 0.923361 0.970603
O19   O     O_R   0.895330 0.935520 0.056440 -0.595989
C56   C     C_R   0.064236 0.921104 0.075085 0.933427
V4    V     V_3+5 0.783690 0.991900 0.999180 1.221656
O20   O     O_3   0.058660 0.038680 0.999200 -0.255103
N1    N     N_3   0.901672 0.860862 0.271215 -0.218819
H7    H     H_    0.972444 0.865258 0.308729 0.106623
H8    H     H_    0.767486 0.874384 0.280317 0.148074
N2    N     N_3   0.885247 0.761130 0.350824 -0.223481
H9    H     H_    0.833388 0.726330 0.377381 0.194636
H10   H     H_    0.812867 0.803125 0.357030 0.174872
N3    N     N_R   0.791697 0.686541 0.279653 0.294127
O21   O     O_R   0.731777 0.676165 0.229013 -0.335933
O22   O     O_R   0.768316 0.641402 0.316239 -0.344976
N4    N     N_R   0.353297 0.652221 0.229947 0.261076
O23   O     O_R   0.422338 0.642807 0.180241 -0.368940
O24   O     O_R   0.418708 0.617289 0.270587 -0.315827
N5    N     N_R   0.445073 0.745398 0.314303 0.273058
O25   O     O_R   0.476166 0.707209 0.356351 -0.356772
O26   O     O_R   0.567525 0.787078 0.304028 -0.508653
N6    N     N_3   0.047047 0.619009 0.225948 -0.147461
H11   H     H_    0.071994 0.599318 0.186278 0.153548
H12   H     H_    0.081627 0.583960 0.255341 0.142192
N7    N     N_3   0.503096 0.124304 0.718969 -0.163338
H13   H     H_    0.389694 0.096460 0.708962 0.241874
H14   H     H_    0.584233 0.123329 0.683530 0.171146
N8    N     N_3   0.993415 0.687445 0.844294 -0.195749
H15   H     H_    0.969357 0.640418 0.832704 0.133937
H16   H     H_    0.867453 0.707185 0.855639 0.112618
N9    N     N_R   0.484656 0.210666 0.633127 0.214717
O27   O     O_R   0.364581 0.168133 0.619003 -0.298685
O28   O     O_R   0.565573 0.238821 0.591530 -0.380321
N10   N     N_3   0.874978 0.218028 0.660646 -0.087586
H17   H     H_    0.793709 0.183255 0.643038 0.217242
H18   H     H_    0.898479 0.253121 0.630585 0.219077
N11   N     N_R   0.841316 0.130159 0.755827 0.258617
O29   O     O_R   0.885062 0.107742 0.706702 -0.317134
O30   O     O_R   0.853950 0.090035 0.797302 -0.318912
N12   N     N_R   0.922697 0.220057 0.812192 0.261317
O31   O     O_R   0.985781 0.277328 0.813418 -0.382670
O32   O     O_R   0.943970 0.186468 0.857813 -0.335107
N13   N     N_3   0.440914 0.371904 0.758213 -0.161530
H19   H     H_    0.421274 0.396682 0.795820 0.150672
H20   H     H_    0.468667 0.406564 0.728114 0.136148
N14   N     N_R   0.756649 0.369213 0.776975 0.268331
O33   O     O_R   0.870106 0.386356 0.738020 -0.367595
O34   O     O_R   0.751042 0.405602 0.821210 -0.395316
N15   N     N_3   0.375290 0.280646 0.837254 -0.165356
H21   H     H_    0.285491 0.283329 0.804877 0.258970
H22   H     H_    0.355112 0.322105 0.860651 0.135410
N16   N     N_R   0.296342 0.283054 0.679567 0.256602
O35   O     O_R   0.196671 0.304618 0.719764 -0.409870
O36   O     O_R   0.256006 0.303365 0.629162 -0.329766
N17   N     N_R   0.266936 0.182815 0.758265 0.260371
O37   O     O_R   0.234321 0.148943 0.802677 -0.325865
O38   O     O_R   0.149172 0.179264 0.717983 -0.329504
N18   N     N_3   0.443358 0.807414 0.769875 -0.187705
H23   H     H_    0.526575 0.796304 0.735794 0.181844
H24   H     H_    0.421674 0.856451 0.768574 0.193950
N19   N     N_3   0.680782 0.289339 0.863302 -0.103968
H25   H     H_    0.642365 0.331304 0.883574 0.177250
H26   H     H_    0.662736 0.255053 0.894411 0.146348
N20   N     N_3   0.544776 0.311563 0.148409 -0.173452
H27   H     H_    0.547683 0.284720 0.111352 0.182667
H28   H     H_    0.453939 0.348783 0.139402 0.160596
N21   N     N_3   0.464347 0.380546 0.242923 -0.198261
H29   H     H_    0.433889 0.403406 0.280795 0.144328
H30   H     H_    0.351284 0.391612 0.217602 0.175815
N22   N     N_R   0.972258 0.273582 0.299038 0.250961
O39   O     O_R   0.046320 0.320070 0.326971 -0.410273
O40   O     O_R   0.012698 0.216372 0.315472 -0.416574
N23   N     N_3   0.845831 0.353408 0.239571 -0.189257
H31   H     H_    0.763378 0.369005 0.206731 0.173055
H32   H     H_    0.980591 0.367028 0.233648 0.207977
N24   N     N_R   0.861614 0.256266 0.149409 0.267948
O41   O     O_R   0.890333 0.314992 0.135391 -0.353814
O42   O     O_R   0.887285 0.214158 0.110022 -0.358015
N25   N     N_3   0.925391 0.179248 0.219357 -0.186307
H33   H     H_    0.055937 0.188627 0.206873 0.203351
H34   H     H_    0.893362 0.140285 0.194096 0.121256
N26   N     N_3   0.395177 0.229253 0.347008 -0.182966
H35   H     H_    0.408602 0.260272 0.381080 0.172784
H36   H     H_    0.356076 0.186141 0.364758 0.194964
N27   N     N_R   0.698647 0.196047 0.361690 0.271423
O43   O     O_R   0.778322 0.234945 0.396430 -0.297556
O44   O     O_R   0.670967 0.139139 0.380968 -0.376618
N28   N     N_3   0.358969 0.153858 0.257144 -0.200439
H37   H     H_    0.274715 0.192904 0.261710 0.172860
H38   H     H_    0.322487 0.122430 0.289056 0.136868
N29   N     N_R   0.227098 0.815849 0.653828 0.266502
O45   O     O_R   0.253291 0.876635 0.657494 -0.289611
O46   O     O_R   0.257683 0.786788 0.606519 -0.347648
N30   N     N_R   0.292653 0.255647 0.177662 0.212854
O47   O     O_R   0.264739 0.221458 0.132809 -0.374811
O48   O     O_R   0.168754 0.296656 0.190649 -0.443099
N31   N     N_3   0.660030 0.115342 0.268915 -0.207109
H39   H     H_    0.592593 0.080611 0.292032 0.151242
H40   H     H_    0.784858 0.121704 0.289264 0.197665
N32   N     N_R   0.855754 0.843816 0.716984 0.248622
O49   O     O_R   0.783892 0.841301 0.666858 -0.309752
O50   O     O_R   0.815871 0.891123 0.749952 -0.353656
N33   N     N_3   0.773573 0.694055 0.727374 -0.181022
H41   H     H_    0.690541 0.703437 0.761983 0.105686
H42   H     H_    0.795817 0.645029 0.727022 0.130264
N34   N     N_3   0.208953 0.807110 0.350812 -0.234954
H43   H     H_    0.207304 0.779222 0.387191 0.146598
H44   H     H_    0.309179 0.841108 0.358684 0.152923
N35   N     N_3   0.299160 0.875697 0.250978 -0.205548
H45   H     H_    0.438370 0.882668 0.258286 0.145600
H46   H     H_    0.230044 0.897849 0.283629 0.125366
N36   N     N_3   0.747422 0.792255 0.208080 -0.134715
H47   H     H_    0.706481 0.837155 0.193732 0.097265
H48   H     H_    0.770895 0.767250 0.171017 0.154922

loop_
_geom_bond_atom_site_label_1
_geom_bond_atom_site_label_2
_geom_bond_distance
_ccdc_geom_bond_type
C41   C45   1.587881 S    
C37   N13   1.472595 S    
N27   O43   1.302069 A    
N21   H29   1.045327 S    
C43   N25   1.471333 S    
O11   C54   1.343265 A    
C1    O6    1.343476 A    
N11   O30   1.301999 A    
N10   H17   1.034593 S    
C42   N23   1.484355 S    
N17   O37   1.299959 A    
V4    O20   2.249179 S    
C35   C36   1.615174 S    
N7    H14   1.034297 S    
C48   N28   1.471453 S    
C13   C14   1.537442 S    
N3    O21   1.297444 A    
C17   C22   1.598221 S    
N14   O33   1.301884 A    
C21   C27   1.498578 S    
C19   C23   1.593415 S    
C23   C24   1.610169 S    
N21   H30   1.044553 S    
C24   C25   1.580216 S    
C11   C13   1.537670 S    
C25   H2    1.110485 S    
N19   H26   1.044551 S    
N25   H33   1.023510 S    
O5    C3    1.342354 A    
C24   N6    1.472779 S    
N13   H20   1.045493 S    
C29   C34   1.654514 S    
V2    O10   2.249135 S    
N8    H15   1.044946 S    
C49   N26   1.481529 S    
C6    H1    1.109947 S    
C17   N35   1.478338 S    
N35   H46   1.037842 S    
N30   O47   1.302523 A    
V3    O20   1.774527 S    
O11   V4    1.961648 S    
C34   N17   1.450034 S    
C20   C26   1.215607 T    
C19   N2    1.493124 S    
N23   H31   1.035327 S    
O19   C56   1.342516 A    
N12   O32   1.303482 A    
N16   O35   1.286470 A    
N31   H40   1.040419 S    
N4    O24   1.301247 A    
C1    C40   1.447759 S    
C11   N32   1.456029 S    
C46   N20   1.472394 S    
N25   H34   1.044529 S    
O1    V2    1.965925 S    
N23   H32   1.040283 S    
O14   V3    1.992300 S    
O13   C56   1.342609 A    
C36   N19   1.481469 S    
C49   N27   1.488415 S    
C35   C38   1.505933 S    
N28   H38   1.045468 S    
C19   N3    1.490199 S    
C42   C43   1.663592 S    
N3    O22   1.303121 A    
O1    C2    1.341986 A    
O9    C4    1.343088 A    
C17   H4    1.115777 S    
N27   O44   1.302811 A    
N35   H45   1.043994 S    
O8    V2    1.975628 S    
C22   N5    1.449718 S    
N32   O50   1.300242 A    
O18   C55   1.342992 A    
N26   H36   1.045626 S    
C12   C16   1.480390 S    
C30   H5    1.065536 S    
C14   N18   1.453623 S    
C18   N1    1.485194 S    
C17   C21   1.558876 S    
C34   C35   1.623414 S    
C47   C50   1.507726 S    
C4    C7    1.447939 S    
N13   H19   1.045235 S    
C11   C12   1.549357 S    
N20   H28   1.045056 S    
C5    N8    1.455802 S    
O15   C55   1.341306 A    
O4    C2    1.341334 A    
C45   C49   1.608161 S    
C41   N21   1.477894 S    
C41   H6    1.104283 S    
C7    C15   1.213055 T    
C32   C38   1.215829 T    
C28   C56   1.449713 S    
C8    C16   1.212874 T    
C18   N36   1.488269 S    
C33   C39   1.503545 S    
C25   H3    1.106226 S    
C6    C10   1.565614 S    
C24   N4    1.475292 S    
C32   C54   1.447557 S    
C22   C23   1.603035 S    
N36   H48   1.040891 S    
C10   C13   1.546562 S    
O2    C1    1.339244 A    
N33   H41   1.044009 S    
C43   N24   1.509546 S    
O5    V1    1.970845 S    
C9    N33   1.456579 S    
C37   N14   1.499639 S    
C44   C50   1.216246 T    
N2    H10   1.038474 S    
C18   C19   1.656227 S    
C34   N7    1.488044 S    
N4    O23   1.302840 A    
C5    C6    1.553994 S    
C18   C21   1.582016 S    
N9    O28   1.302659 A    
C33   C37   1.638584 S    
C10   C15   1.480241 S    
N6    H12   1.045611 S    
O14   C54   1.339328 A    
N29   O45   1.300264 A    
O3    C4    1.341392 A    
N18   H24   1.044922 S    
C29   N16   1.491369 S    
O16   V4    1.969050 S    
O12   C53   1.341669 A    
C27   C28   1.214769 T    
O19   V4    1.975536 S    
C13   N29   1.457024 S    
C48   C49   1.635655 S    
O6    V2    1.961231 S    
O9    V2    1.983875 S    
N22   O40   1.299072 A    
O17   V3    2.231697 S    
C36   N15   1.466083 S    
C39   C40   1.214955 T    
N34   H44   1.046079 S    
O2    V1    1.992500 S    
O17   V4    1.786156 S    
N12   O31   1.296874 A    
C46   N30   1.450473 S    
N26   H35   1.045263 S    
O7    V1    2.231647 S    
C42   N22   1.489068 S    
C41   C46   1.595658 S    
N17   O38   1.286410 A    
C30   C31   1.626054 S    
N28   H37   1.030052 S    
C42   C45   1.605352 S    
N14   O34   1.301837 A    
N9    O27   1.303397 A    
N5    O26   1.285683 A    
C21   C25   1.565331 S    
C51   C52   1.215801 T    
C23   C26   1.505720 S    
C6    C14   1.555073 S    
O15   V3    1.967223 S    
C30   N10   1.472310 S    
N20   H27   1.046925 S    
C2    C52   1.449563 S    
N10   H18   1.045364 S    
O8    C3    1.342475 A    
C29   N9    1.494353 S    
C36   C37   1.636496 S    
C31   C35   1.589588 S    
C44   C53   1.449603 S    
C12   C14   1.543235 S    
N7    H13   1.046854 S    
C30   C33   1.581763 S    
C5    C9    1.539453 S    
N22   O39   1.303404 A    
N5    O25   1.301610 A    
C45   C51   1.505992 S    
C43   C47   1.589002 S    
C5    C12   1.546242 S    
N36   H47   1.046924 S    
N33   H42   1.044868 S    
N15   H21   1.009846 S    
O4    V1    1.985265 S    
O12   V3    1.985227 S    
O3    V1    1.967272 S    
V1    O10   1.774563 S    
N11   O29   1.300542 A    
C47   C48   1.627707 S    
N2    H9    1.044194 S    
C48   N31   1.485468 S    
C29   C33   1.596278 S    
C3    C20   1.448793 S    
C22   N34   1.474994 S    
N24   O42   1.303107 A    
O13   V3    1.970806 S    
N8    H16   1.044963 S    
C9    C11   1.540819 S    
O7    V2    1.787165 S    
N6    H11   1.046662 S    
N30   O48   1.286069 A    
N18   H23   1.042261 S    
C46   C47   1.603556 S    
N29   O46   1.300111 A    
C31   N11   1.512059 S    
N24   O41   1.301787 A    
C8    C55   1.447701 S    
N1    H7    1.032705 S    
N16   O36   1.303884 A    
N31   H39   1.045480 S    
C53   O16   1.341664 A    
N1    H8    1.044119 S    
C31   N12   1.489376 S    
C9    C10   1.545751 S    
N34   H43   1.046462 S    
N19   H25   1.044324 S    
O18   V4    1.983822 S    
N32   O49   1.300414 A    
N15   H22   1.045503 S    
