data_mof_unit_2622.cif
_audit_creation_date              2012-10-26T20:03:49-0400
_audit_creation_method            fapswitch 2.2
_symmetry_space_group_name_H-M    P1
_symmetry_Int_Tables_number       1
_space_group_crystal_system       triclinic
_cell_length_a                    12.340068
_cell_length_b                    13.157757
_cell_length_c                    15.849423
_cell_angle_alpha                 77.785169
_cell_angle_beta                  101.216198
_cell_angle_gamma                 116.455007
_cell_volume                      2236.966847

loop_
_atom_site_label
_atom_site_type_symbol
_atom_type_description
_atom_site_fract_x
_atom_site_fract_y
_atom_site_fract_z
_atom_type_partial_charge
C1    C     C_R   0.854886 0.286273 0.507566 0.544860
C2    C     C_R   0.227893 0.835206 0.472242 0.003398
C3    C     C_R   0.815512 0.082219 0.560549 0.378476
C4    C     C_R   0.999593 0.499803 0.659980 0.542283
C5    C     C_R   0.736430 0.967189 0.575289 -0.088833
C6    C     C_R   0.613224 0.930797 0.546251 -0.164819
C7    C     C_R   0.566149 0.009074 0.498221 0.004232
C8    C     C_R   0.649357 0.123922 0.473826 -0.089450
C9    C     C_R   0.439337 0.976790 0.472822 -0.002476
C10   C     C_R   0.398559 0.056218 0.417745 0.066275
C11   C     C_R   0.483389 0.164008 0.385628 0.365783
C12   C     C_3   0.001100 0.500473 0.917285 0.051396
C13   C     C_R   0.606782 0.196072 0.411577 -0.079091
C14   C     C_R   0.351417 0.867911 0.501271 -0.114680
C15   C     C_R   0.188480 0.915405 0.420819 -0.143177
C16   C     C_R   0.145017 0.713560 0.488068 0.551224
C17   C     C_R   0.773057 0.162685 0.511529 0.002773
C18   C     C_R   0.342586 0.322450 0.634879 0.252293
C19   C     C_R   0.759523 0.643675 0.380922 0.401949
C20   C     C_R   0.654586 0.663200 0.348478 -0.118944
C21   C     C_R   0.547996 0.602881 0.388132 0.228508
C22   C     C_R   0.546560 0.527485 0.466965 -0.002102
C23   C     C_3   0.115752 0.533582 0.039817 -0.125583
C24   C     C_R   0.651512 0.503504 0.494528 0.102979
C25   C     C_R   0.444278 0.470945 0.517285 -0.035742
C26   C     C_R   0.443302 0.382535 0.586766 0.038371
C27   C     C_R   0.544018 0.356780 0.609047 -0.133201
C28   C     C_R   0.000477 0.500265 0.340031 0.549223
C29   C     C_R   0.646413 0.417828 0.565694 -0.094923
C30   C     C_R   0.343735 0.499915 0.503720 0.029048
C31   C     C_R   0.242973 0.350178 0.612758 0.088844
C32   C     C_3   0.931168 0.393579 0.036558 -0.074906
C33   C     C_3   0.888266 0.467608 0.961409 0.425998
C34   C     C_3   0.001006 0.500174 0.083019 -0.001584
C35   C     C_1   0.999333 0.500034 0.749704 -0.007717
C36   C     C_1   0.001076 0.500239 0.250357 -0.014056
C37   C     C_3   0.045918 0.427213 0.991646 -0.151508
C38   C     C_3   0.358560 0.268159 0.780862 -0.111133
C39   C     C_3   0.875103 0.794567 0.279078 -0.150945
C40   C     C_3   0.381462 0.531913 0.290927 -0.104195
C41   C     C_3   0.070757 0.606792 0.964041 -0.147779
C42   C     C_3   0.956066 0.573608 0.008878 -0.071138
C43   C     C_1   0.999865 0.500230 0.825384 -0.009978
C44   C     C_1   0.001241 0.500210 0.174771 -0.048752
C45   C     C_R   0.273336 0.025488 0.393835 -0.097402
Cu1   Cu    Cu3+1 0.098270 0.475420 0.519690 0.979411
Cu2   Cu    Cu3+1 0.901730 0.524580 0.480310 1.006712
F1    F     F_    0.770973 0.433584 0.919456 -0.631752
F2    F     F_    0.933178 0.114464 0.596428 -0.625852
F3    F     F_    0.447213 0.238888 0.328530 -0.658718
H1    H     H_    0.376357 0.805696 0.545720 0.126536
H2    H     H_    0.719505 0.393675 0.590082 0.187264
H3    H     H_    0.918115 0.632818 0.016880 0.126440
H4    H     H_    0.128231 0.694050 0.933165 0.127739
H5    H     H_    0.209810 0.560815 0.073734 0.123117
H6    H     H_    0.083090 0.367532 0.983359 0.123267
H7    H     H_    0.092867 0.891976 0.399033 0.150716
H8    H     H_    0.240914 0.085478 0.352431 0.173463
H9    H     H_    0.447238 0.344436 0.788625 0.143560
H10   H     H_    0.362522 0.197847 0.832395 0.166056
H11   H     H_    0.282744 0.286565 0.791085 0.111394
H12   H     H_    0.558139 0.840229 0.561070 0.115805
H13   H     H_    0.859273 0.857555 0.306242 0.107332
H14   H     H_    0.812326 0.767803 0.219278 0.118989
H15   H     H_    0.968729 0.838255 0.259788 0.139538
H16   H     H_    0.352193 0.444122 0.328475 0.162698
H17   H     H_    0.436696 0.541718 0.239492 0.135518
H18   H     H_    0.297974 0.541857 0.258188 0.141813
H19   H     H_    0.770273 0.905828 0.612099 0.149950
H20   H     H_    0.668067 0.277318 0.380056 0.174766
H21   H     H_    0.163017 0.302233 0.646764 0.182692
H22   H     H_    0.545793 0.290506 0.662440 0.172299
H23   H     H_    0.341349 0.572807 0.459148 0.206807
H24   H     H_    0.872977 0.306361 0.067062 0.125234
H25   H     H_    0.651104 0.721615 0.289840 0.115065
N1    N     N_R   0.246280 0.438200 0.549540 -0.289363
N2    N     N_R   0.754330 0.561180 0.450980 -0.228184
O1    O     O_R   0.972510 0.318130 0.524770 -0.429290
O2    O     O_3   0.867043 0.698236 0.341466 -0.516421
O3    O     O_3   0.445698 0.617028 0.345761 -0.598807
O4    O     O_R   0.806530 0.359650 0.491510 -0.553828
O5    O     O_R   0.082970 0.479240 0.637550 -0.504695
O6    O     O_R   0.916990 0.520750 0.604290 -0.516104
O7    O     O_R   0.193470 0.640350 0.508490 -0.522603
O8    O     O_R   0.027490 0.681870 0.475230 -0.447934
O9    O     O_R   0.083010 0.479250 0.395710 -0.503879
O10   O     O_R   0.917030 0.520760 0.362450 -0.444215
O11   O     O_3   0.338189 0.231903 0.699326 -0.566332

loop_
_geom_bond_atom_site_label_1
_geom_bond_atom_site_label_2
_ccdc_geom_bond_type
C8    C13   A    
C27   C29   A    
C39   H15   S    
C41   C42   S    
C19   C20   A    
C34   C42   S    
Cu1   N1    S    
C3    F2    S    
C7    C8    A    
C39   H14   S    
C26   C27   A    
C33   C42   S    
Cu2   O8    S    
C12   C43   S    
C42   H3    S    
C32   H24   S    
C5    C6    A    
C13   H20   S    
C1    O4    A    
C16   O7    A    
C12   C37   S    
C19   N2    A    
C24   C29   A    
C5    H19   S    
Cu1   O5    S    
C37   H6    S    
C22   C25   A    
C18   C26   A    
C40   O3    S    
Cu2   O6    S    
C2    C16   S    
C9    C10   A    
C38   H11   S    
C31   H21   S    
C4    C35   S    
C40   H16   S    
C21   C22   A    
C1    O1    A    
C15   H7    S    
C28   O10   A    
C45   H8    S    
C34   C44   S    
C10   C11   A    
Cu1   O1    S    
C30   H23   S    
C25   C26   A    
C23   C37   S    
C40   H17   S    
C18   O11   S    
C20   H25   S    
C38   O11   S    
C39   O2    S    
C9    C14   A    
C12   C41   S    
C30   N1    A    
C14   H1    S    
C23   C34   S    
C10   C45   A    
C32   C37   S    
C19   O2    S    
C2    C15   A    
C38   H10   S    
C28   O9    A    
C16   O8    A    
C22   C24   A    
C36   C44   T    
Cu2   N2    S    
C35   C43   T    
C25   C30   A    
C7    C9    A    
Cu1   Cu2   S    
C3    C5    A    
C23   H5    S    
C6    C7    A    
C39   H13   S    
C1    C17   S    
C8    C17   A    
C23   C41   S    
C32   C33   S    
C6    H12   S    
C11   F3    S    
C11   C13   A    
C31   N1    A    
C4    O6    A    
C21   O3    S    
C3    C17   A    
Cu2   O4    S    
C2    C14   A    
C41   H4    S    
Cu1   O7    S    
C38   H9    S    
C24   N2    A    
C4    O5    A    
C20   C21   A    
C28   C36   S    
C40   H18   S    
C33   F1    S    
C15   C45   A    
C18   C31   A    
C12   C33   S    
C27   H22   S    
C32   C34   S    
Cu1   O9    S    
C29   H2    S    
Cu2   O10   S    
