data_mof_unit_2115.cif
_audit_creation_date              2012-10-26T21:12:15-0400
_audit_creation_method            fapswitch 2.2
_symmetry_space_group_name_H-M    P1
_symmetry_Int_Tables_number       1
_space_group_crystal_system       triclinic
_cell_length_a                    19.334803
_cell_length_b                    18.173505
_cell_length_c                    10.919045
_cell_angle_alpha                 90.096695
_cell_angle_beta                  89.997248
_cell_angle_gamma                 90.102216
_cell_volume                      3836.73489558

loop_
_atom_site_label
_atom_site_type_symbol
_atom_type_description
_atom_site_fract_x
_atom_site_fract_y
_atom_site_fract_z
_atom_type_partial_charge
C1    C     C_R   0.367887 0.499960 0.499091 0.539122
C2    C     C_R   0.964619 0.446315 0.477397 -0.144081
C3    C     C_R   0.483642 0.721522 0.604254 0.041373
C4    C     C_R   0.516521 0.721405 0.395849 0.037133
C5    C     C_R   0.484374 0.798824 0.606608 -0.158812
C6    C     C_R   0.515977 0.798702 0.393650 -0.158993
C7    C     C_R   0.500212 0.838627 0.500164 0.025374
C8    C     C_R   0.563062 0.961713 0.484955 0.016925
C9    C     C_R   0.437535 0.961584 0.515555 0.016752
C10   C     C_R   0.561823 0.039382 0.482553 -0.122692
C11   C     C_R   0.438870 0.039256 0.517983 -0.122594
C12   C     C_R   0.632228 0.500103 0.499564 0.536007
C13   C     C_R   0.500368 0.078626 0.500267 -0.006735
C14   C     C_R   0.500798 0.499954 0.265114 0.546175
C15   C     C_R   0.498809 0.500036 0.734881 0.541265
C16   C     C_R   0.500273 0.921462 0.500232 0.053535
C17   C     C_R   0.470574 0.201325 0.401503 -0.010683
C18   C     C_R   0.530026 0.201835 0.598588 -0.012157
C19   C     C_R   0.470295 0.278915 0.405723 0.052473
C20   C     C_R   0.529841 0.279400 0.594329 0.046660
C21   C     C_R   0.500359 0.161302 0.500102 0.028953
C22   C     C_2   0.500180 0.439338 0.932851 -0.167180
C23   C     C_R   0.707861 0.500583 0.499178 0.031063
C24   C     C_2   0.496798 0.439372 0.066833 -0.167966
C25   C     C_2   0.494499 0.501104 0.866817 -0.129457
C26   C     C_2   0.504434 0.500920 0.133156 -0.126863
C27   C     C_R   0.744586 0.473407 0.601871 -0.003802
C28   C     C_R   0.255395 0.506268 0.389708 -0.004000
C29   C     C_R   0.816802 0.476027 0.601365 -0.113429
C30   C     C_R   0.183225 0.509319 0.393286 -0.114653
C31   C     C_R   0.852294 0.505875 0.502042 -0.008411
C32   C     C_R   0.148262 0.506582 0.504933 -0.007426
C33   C     C_R   0.816381 0.530788 0.399304 -0.109541
C34   C     C_R   0.292454 0.500028 0.500979 0.036258
C35   C     C_R   0.184720 0.498732 0.614570 -0.109314
C36   C     C_R   0.743748 0.528628 0.395826 -0.006385
C37   C     C_R   0.257351 0.496023 0.614735 -0.008623
C38   C     C_3   0.632741 0.924031 0.475281 -0.274626
C39   C     C_3   0.657347 0.896729 0.600000 -0.435493
C40   C     C_3   0.367806 0.923757 0.525257 -0.274436
C41   C     C_3   0.343135 0.896139 0.400558 -0.435441
C42   C     C_3   0.439607 0.164297 0.289648 -0.294716
C43   C     C_3   0.485083 0.175899 0.176984 -0.448461
C44   C     C_3   0.561577 0.165407 0.710161 -0.295045
C45   C     C_R   0.963279 0.576546 0.534481 0.046002
C46   C     C_3   0.516714 0.177301 0.823557 -0.448410
C47   C     C_3   0.708722 0.443241 0.714631 -0.268215
C48   C     C_3   0.708090 0.359294 0.712982 -0.434462
C49   C     C_3   0.291439 0.510218 0.266561 -0.279613
C50   C     C_3   0.311149 0.433683 0.220666 -0.437929
C51   C     C_3   0.703220 0.554856 0.284077 -0.265795
C52   C     C_3   0.746220 0.575962 0.171874 -0.464712
C53   C     C_3   0.298962 0.489952 0.733134 -0.267231
C54   C     C_3   0.257058 0.488075 0.851890 -0.463419
C55   C     C_3   0.922046 0.645348 0.566272 -0.274370
C56   C     C_R   0.036996 0.576590 0.536173 0.045906
C57   C     C_3   0.906024 0.648528 0.703070 -0.442575
C58   C     C_3   0.077949 0.646113 0.565577 -0.274257
C59   C     C_3   0.094119 0.689441 0.449375 -0.442433
C60   C     C_R   0.072543 0.510609 0.506803 0.016716
C61   C     C_R   0.927991 0.510291 0.504983 0.016379
C62   C     C_R   0.036151 0.446558 0.477761 -0.143935
Cu1   Cu    Cu3+1 0.500000 0.573360 0.500000 0.912412
Cu2   Cu    Cu3+1 0.500000 0.426640 0.500000 0.908428
H1    H     H_    0.506609 0.386409 0.887891 0.137145
H2    H     H_    0.340252 0.942553 0.334669 0.143315
H3    H     H_    0.378511 0.853523 0.363829 0.162333
H4    H     H_    0.290819 0.871483 0.409932 0.130539
H5    H     H_    0.369537 0.877664 0.591415 0.142984
H6    H     H_    0.328239 0.962555 0.561098 0.126849
H7    H     H_    0.609496 0.069919 0.470018 0.103722
H8    H     H_    0.391228 0.069696 0.530477 0.104145
H9    H     H_    0.489535 0.235323 0.154707 0.138348
H10   H     H_    0.537517 0.152999 0.193251 0.156606
H11   H     H_    0.461722 0.147157 0.097240 0.133732
H12   H     H_    0.488989 0.386647 0.111573 0.135897
H13   H     H_    0.432646 0.104306 0.302041 0.158615
H14   H     H_    0.387369 0.187436 0.272070 0.126979
H15   H     H_    0.512533 0.236800 0.845784 0.137237
H16   H     H_    0.464125 0.154290 0.808247 0.156496
H17   H     H_    0.540454 0.148820 0.902979 0.134040
H18   H     H_    0.568478 0.105385 0.698019 0.158935
H19   H     H_    0.613903 0.188868 0.726702 0.125843
H20   H     H_    0.446425 0.309549 0.332201 0.119952
H21   H     H_    0.553475 0.310420 0.667888 0.125915
H22   H     H_    0.484918 0.554270 0.908140 0.093746
H23   H     H_    0.472456 0.827431 0.691072 0.084004
H24   H     H_    0.515114 0.553862 0.092041 0.092968
H25   H     H_    0.679475 0.338473 0.794053 0.125793
H26   H     H_    0.682179 0.338683 0.628868 0.168099
H27   H     H_    0.761759 0.337681 0.715990 0.141607
H28   H     H_    0.735964 0.462670 0.798366 0.127241
H29   H     H_    0.654826 0.463524 0.722711 0.158475
H30   H     H_    0.338231 0.438392 0.131384 0.134407
H31   H     H_    0.264007 0.399477 0.208025 0.143526
H32   H     H_    0.346255 0.405900 0.286127 0.173123
H33   H     H_    0.257095 0.536152 0.197332 0.127114
H34   H     H_    0.527995 0.827211 0.309256 0.084107
H35   H     H_    0.338287 0.545520 0.272292 0.159189
H36   H     H_    0.845595 0.456097 0.679772 0.109766
H37   H     H_    0.153952 0.514289 0.309023 0.107033
H38   H     H_    0.846104 0.552464 0.323611 0.115905
H39   H     H_    0.155466 0.495842 0.698826 0.115834
H40   H     H_    0.779278 0.624483 0.192349 0.140807
H41   H     H_    0.778643 0.528893 0.141756 0.149781
H42   H     H_    0.711038 0.590806 0.095445 0.136037
H43   H     H_    0.667227 0.510286 0.255308 0.149141
H44   H     H_    0.671677 0.603392 0.310458 0.161095
H45   H     H_    0.660284 0.943289 0.665882 0.143299
H46   H     H_    0.222749 0.439009 0.853818 0.147390
H47   H     H_    0.226033 0.539113 0.861917 0.142226
H48   H     H_    0.292981 0.484656 0.930963 0.140474
H49   H     H_    0.330736 0.439090 0.729211 0.161340
H50   H     H_    0.334898 0.537654 0.738906 0.149282
H51   H     H_    0.873347 0.601027 0.730270 0.155715
H52   H     H_    0.954427 0.647702 0.757687 0.140412
H53   H     H_    0.877529 0.699992 0.724177 0.131523
H54   H     H_    0.949409 0.696174 0.538130 0.132905
H55   H     H_    0.872706 0.647339 0.514707 0.146265
H56   H     H_    0.621900 0.854115 0.636713 0.162469
H57   H     H_    0.126984 0.656371 0.386816 0.156570
H58   H     H_    0.045767 0.704597 0.400853 0.140004
H59   H     H_    0.122466 0.740605 0.473659 0.131364
H60   H     H_    0.050336 0.681839 0.631634 0.132965
H61   H     H_    0.127198 0.632928 0.612533 0.145632
H62   H     H_    0.063528 0.396295 0.455510 0.113707
H63   H     H_    0.937435 0.395878 0.454846 0.113815
H64   H     H_    0.469951 0.692325 0.686805 0.121284
H65   H     H_    0.530250 0.692133 0.313278 0.118772
H66   H     H_    0.709629 0.872169 0.590666 0.130782
H67   H     H_    0.630960 0.877795 0.409129 0.142494
H68   H     H_    0.672363 0.962851 0.439461 0.126776
N1    N     N_R   0.500000 0.683620 0.500000 -0.213669
N2    N     N_R   0.500000 0.316380 0.500000 -0.242532
O1    O     O_R   0.400190 0.561980 0.499980 -0.497681
O2    O     O_R   0.599810 0.561980 0.500020 -0.500490
O3    O     O_R   0.400190 0.438070 0.500040 -0.503888
O4    O     O_R   0.599810 0.438070 0.499960 -0.495802
O5    O     O_R   0.500000 0.561940 0.321950 -0.518996
O6    O     O_R   0.500000 0.561940 0.678050 -0.514007
O7    O     O_R   0.500010 0.438030 0.322010 -0.505786
O8    O     O_R   0.499990 0.438030 0.677990 -0.508576

loop_
_geom_bond_atom_site_label_1
_geom_bond_atom_site_label_2
_ccdc_geom_bond_type
C43   H9    S    
C30   C32   A    
C59   H57   S    
C27   C29   A    
C34   C37   A    
C47   H28   S    
C31   C61   S    
C44   H19   S    
C57   H51   S    
C55   H55   S    
C53   C54   S    
C19   N2    A    
C12   C23   S    
C40   H6    S    
C6    H34   S    
C57   H53   S    
C35   C37   A    
C9    C16   A    
C24   C26   D    
C44   H18   S    
C46   H15   S    
C50   H31   S    
C15   C25   S    
Cu2   O7    S    
C39   H56   S    
C18   C21   A    
C33   C36   A    
C54   H46   S    
C60   C62   A    
Cu1   O6    S    
C17   C42   S    
C6    C7    A    
C45   C56   A    
C53   H49   S    
C51   H44   S    
C48   H27   S    
C31   C33   A    
C23   C27   A    
C41   H4    S    
C18   C20   A    
C2    C61   A    
C37   C53   S    
C2    H63   S    
C59   H58   S    
C14   O7    A    
C52   H42   S    
C33   H38   S    
C8    C16   A    
C48   H26   S    
C59   H59   S    
C8    C38   S    
C44   C46   S    
C1    C34   S    
C57   H52   S    
Cu2   O3    S    
C43   H11   S    
Cu2   N2    S    
C40   H5    S    
C54   H48   S    
C51   C52   S    
C32   C35   A    
C41   H3    S    
C4    C6    A    
C5    C7    A    
C11   H8    S    
C50   H30   S    
Cu2   O4    S    
C58   C59   S    
C22   C25   D    
C9    C40   S    
C17   C21   A    
C56   C60   A    
C3    N1    A    
C38   H68   S    
C22   H1    S    
C18   C44   S    
C49   H35   S    
C15   O8    A    
C28   C49   S    
C47   C48   S    
C20   H21   S    
C47   H29   S    
C13   C21   S    
C14   C26   S    
C9    C11   A    
C4    H65   S    
C36   C51   S    
C58   H61   S    
C26   H24   S    
C7    C16   S    
C52   H41   S    
C42   H14   S    
C23   C36   A    
C48   H25   S    
C55   C57   S    
C12   O4    A    
C42   C43   S    
C32   C60   S    
C19   H20   S    
Cu1   N1    S    
C1    O3    A    
C53   H50   S    
C62   H62   S    
C15   O6    A    
C46   H17   S    
C27   C47   S    
C52   H40   S    
C29   H36   S    
C3    H64   S    
Cu1   O5    S    
C8    C10   A    
C24   H12   S    
C58   H60   S    
C3    C5    A    
C10   C13   A    
C41   H2    S    
C39   H66   S    
C35   H39   S    
C38   H67   S    
C28   C30   A    
C29   C31   A    
Cu1   O2    S    
C46   H16   S    
C11   C13   A    
C50   H32   S    
C38   C39   S    
Cu2   O8    S    
C43   H10   S    
C30   H37   S    
C45   C61   A    
C25   H22   S    
C17   C19   A    
C56   C58   S    
C54   H47   S    
C22   C24   S    
C28   C34   A    
C10   H7    S    
C49   H33   S    
Cu1   Cu2   S    
C5    H23   S    
C39   H45   S    
C14   O5    A    
C45   C55   S    
C42   H13   S    
C51   H43   S    
C49   C50   S    
C12   O2    A    
C40   C41   S    
C20   N2    A    
C1    O1    A    
C2    C62   A    
Cu1   O1    S    
C4    N1    A    
C55   H54   S    
