data_mof_unit_2952.cif
_audit_creation_date              2012-12-11T15:42:56-0500
_audit_creation_method            fapswitch 2.2
_symmetry_space_group_name_H-M    P1
_symmetry_Int_Tables_number       1
_space_group_crystal_system       triclinic
_cell_length_a                    19.138187
_cell_length_b                    10.944197
_cell_length_c                    18.85374
_cell_angle_alpha                 90.078922
_cell_angle_beta                  90.349222
_cell_angle_gamma                 90.029507
_cell_volume                      3948.87758517

loop_
_atom_site_label
_atom_site_type_symbol
_atom_type_description
_atom_site_fract_x
_atom_site_fract_y
_atom_site_fract_z
_atom_type_partial_charge
C1    C     C_R   0.727091 0.369925 0.143450 0.578924
C2    C     C_R   0.994915 0.003004 0.036862 -0.123515
C3    C     C_R   0.757060 0.455290 0.567301 0.019501
C4    C     C_R   0.730046 0.380671 0.351620 0.552589
C5    C     C_R   0.270174 0.378276 0.647628 0.556795
C6    C     C_R   0.230039 0.880645 0.351629 0.552591
C7    C     C_R   0.770168 0.878296 0.647637 0.556810
C8    C     C_R   0.531508 0.156825 0.353000 0.543119
C9    C     C_R   0.464837 0.156850 0.644658 0.543454
C10   C     C_R   0.031509 0.656823 0.353001 0.543085
C11   C     C_R   0.964842 0.656854 0.644661 0.543447
C12   C     C_R   0.741093 0.973646 0.355268 0.548789
C13   C     C_R   0.504896 0.503171 0.963987 -0.123608
C14   C     C_R   0.260508 0.978330 0.643050 0.550528
C15   C     C_R   0.241105 0.473606 0.355251 0.548762
C16   C     C_R   0.760518 0.478360 0.643034 0.550534
C17   C     C_R   0.497840 0.166367 0.925412 0.009388
C18   C     C_R   0.502461 0.166065 0.074464 0.009751
C19   C     C_R   0.997841 0.666368 0.925412 0.009388
C20   C     C_R   0.002461 0.666065 0.074463 0.009751
C21   C     C_R   0.501352 0.279658 0.962450 0.013186
C22   C     C_R   0.498560 0.279487 0.037742 0.013314
C23   C     C_R   0.001352 0.779658 0.962450 0.013187
C24   C     C_R   0.494915 0.503005 0.036862 -0.123515
C25   C     C_R   0.998561 0.779487 0.037742 0.013314
C26   C     C_R   0.499517 0.057063 0.036103 -0.153692
C27   C     C_R   0.501547 0.057252 0.963421 -0.153764
C28   C     C_R   0.999518 0.557063 0.036103 -0.153693
C29   C     C_R   0.001548 0.557252 0.963421 -0.153764
C30   C     C_R   0.760819 0.896290 0.930483 0.057476
C31   C     C_R   0.239015 0.895478 0.069391 0.058301
C32   C     C_R   0.260819 0.396290 0.930483 0.057474
C33   C     C_R   0.739015 0.395479 0.069391 0.058304
C34   C     C_R   0.695395 0.886580 0.962229 -0.027973
C35   C     C_R   0.304533 0.886991 0.037757 -0.026847
C36   C     C_R   0.195395 0.386579 0.962229 -0.027974
C37   C     C_R   0.272827 0.370261 0.856476 0.579059
C38   C     C_R   0.804533 0.386992 0.037758 -0.026847
C39   C     C_R   0.688976 0.902400 0.034985 0.047767
C40   C     C_R   0.310999 0.903130 0.965054 0.048124
C41   C     C_R   0.188976 0.402400 0.034985 0.047769
C42   C     C_R   0.810999 0.403131 0.965054 0.048122
C43   C     C_R   0.813737 0.929353 0.045798 -0.148968
C44   C     C_R   0.186156 0.928292 0.954034 -0.148471
C45   C     C_R   0.313737 0.429353 0.045798 -0.148968
C46   C     C_R   0.686157 0.428291 0.954034 -0.148471
C47   C     C_R   0.819825 0.916874 0.973452 -0.089745
C48   C     C_R   0.227091 0.869925 0.143450 0.578932
C49   C     C_R   0.179976 0.915187 0.026351 -0.089177
C50   C     C_R   0.319825 0.416874 0.973452 -0.089746
C51   C     C_R   0.679976 0.415187 0.026351 -0.089175
C52   C     C_3   0.645101 0.782102 0.960846 -0.235577
C53   C     C_3   0.355328 0.783353 0.038974 -0.236279
C54   C     C_3   0.145101 0.282101 0.960846 -0.235577
C55   C     C_3   0.855329 0.283356 0.038975 -0.236279
C56   C     C_3   0.636452 0.801668 0.039946 0.098550
C57   C     C_3   0.364016 0.803283 0.959934 0.098503
C58   C     C_3   0.136453 0.301667 0.039947 0.098549
C59   C     C_R   0.772827 0.870261 0.856476 0.579053
C60   C     C_3   0.864017 0.303284 0.959935 0.098504
C61   C     C_R   0.748548 0.921054 0.077460 0.068044
C62   C     C_R   0.251446 0.921132 0.922488 0.067418
C63   C     C_R   0.248548 0.421054 0.077460 0.068046
C64   C     C_R   0.751446 0.421132 0.922488 0.067415
C65   C     C_R   0.531051 0.155906 0.146830 0.535528
C66   C     C_R   0.469000 0.156035 0.853139 0.536158
C67   C     C_R   0.031051 0.655906 0.146830 0.535530
C68   C     C_R   0.969000 0.656035 0.853139 0.536154
C69   C     C_R   0.481567 0.163110 0.569535 0.019694
C70   C     C_R   0.507994 0.392910 0.926916 -0.116112
C71   C     C_R   0.495842 0.163140 0.421059 0.018791
C72   C     C_R   0.981585 0.663123 0.569540 0.019675
C73   C     C_R   0.995849 0.663111 0.421063 0.018790
C74   C     C_R   0.475838 0.055475 0.530415 0.039445
C75   C     C_R   0.482325 0.054757 0.458049 0.028601
C76   C     C_R   0.975958 0.555426 0.530443 0.039292
C77   C     C_R   0.982437 0.554688 0.458079 0.028546
C78   C     C_R   0.488704 0.274250 0.457779 -0.170754
C79   C     C_R   0.483256 0.274259 0.532124 -0.165314
C80   C     C_R   0.988619 0.774252 0.457757 -0.170739
C81   C     C_R   0.491718 0.392576 0.073589 -0.115481
C82   C     C_R   0.983177 0.774282 0.532104 -0.165225
C83   C     C_3   0.513474 0.937297 0.539697 -0.277746
C84   C     C_3   0.520170 0.934769 0.459874 -0.268280
C85   C     C_3   0.013712 0.437348 0.539755 -0.277786
C86   C     C_3   0.020412 0.434798 0.459933 -0.268207
C87   C     C_R   0.748631 0.921841 0.578207 0.015454
C88   C     C_R   0.250563 0.934522 0.419258 0.019341
C89   C     C_R   0.248666 0.421737 0.578171 0.015417
C90   C     C_R   0.750587 0.434638 0.419224 0.019393
C91   C     C_R   0.784591 0.017038 0.545223 0.021446
C92   C     C_R   0.007994 0.892911 0.926916 -0.116112
C93   C     C_R   0.202026 0.005966 0.456276 0.024532
C94   C     C_R   0.284650 0.516898 0.545184 0.021388
C95   C     C_R   0.702040 0.506030 0.456259 0.024540
C96   C     C_R   0.784413 0.026073 0.472583 0.043097
C97   C     C_R   0.205377 0.015215 0.528726 0.030290
C98   C     C_R   0.284476 0.525920 0.472542 0.043111
C99   C     C_R   0.705378 0.515231 0.528706 0.030315
C100  C     C_R   0.703182 0.859375 0.462576 -0.172607
C101  C     C_R   0.313534 0.904317 0.529856 -0.151962
C102  C     C_R   0.203256 0.359173 0.462535 -0.172667
C103  C     C_R   0.991718 0.892576 0.073589 -0.115482
C104  C     C_R   0.813663 0.404632 0.529795 -0.151924
C105  C     C_R   0.703185 0.849264 0.536567 -0.166778
C106  C     C_R   0.310645 0.895346 0.455609 -0.155175
C107  C     C_R   0.203253 0.349080 0.536523 -0.166777
C108  C     C_R   0.810766 0.395677 0.455542 -0.155152
C109  C     C_3   0.859326 0.057447 0.550014 -0.267537
C110  C     C_3   0.123774 0.000439 0.458029 -0.267925
C111  C     C_3   0.359401 0.557135 0.549968 -0.267557
C112  C     C_3   0.623817 0.500620 0.457998 -0.268110
C113  C     C_R   0.740837 0.969131 0.147985 0.567550
C114  C     C_R   0.004896 0.003171 0.963987 -0.123606
C115  C     C_R   0.259165 0.969256 0.852018 0.568139
C116  C     C_R   0.240837 0.469131 0.147985 0.567540
C117  C     C_R   0.759165 0.469256 0.852018 0.568150
C118  C     C_3   0.859448 0.062378 0.469898 -0.268554
C119  C     C_3   0.128176 0.010828 0.537748 -0.280016
C120  C     C_3   0.359525 0.562064 0.469855 -0.268583
C121  C     C_3   0.628197 0.510905 0.537723 -0.280093
C122  C     C_R   0.747596 0.943754 0.429813 0.021656
C123  C     C_R   0.257031 0.955217 0.567330 0.019530
C124  C     C_R   0.247644 0.443617 0.429777 0.021631
Cl1   Cl    Cl    0.665749 0.678057 0.093759 -0.645980
Cl2   Cl    Cl    0.335450 0.679268 0.905778 -0.646407
Cl3   Cl    Cl    0.165750 0.178056 0.093759 -0.645981
Cl4   Cl    Cl    0.835452 0.179268 0.905779 -0.646406
Cr1   Cr    Cr6+3 0.772010 0.169670 0.250090 1.010805
Cr2   Cr    Cr6+3 0.383290 0.010760 0.749160 1.045298
Cr3   Cr    Cr6+3 0.116710 0.510760 0.250840 1.042549
Cr4   Cr    Cr6+3 0.883290 0.510760 0.749160 1.045292
Cr5   Cr    Cr6+3 0.227990 0.169670 0.749910 1.009899
Cr6   Cr    Cr6+3 0.272010 0.669670 0.250090 1.010794
Cr7   Cr    Cr6+3 0.727990 0.669670 0.749910 1.009906
Cr8   Cr    Cr6+3 0.615000 0.323260 0.249260 1.029230
Cr9   Cr    Cr6+3 0.385000 0.323260 0.750740 1.030355
Cr10  Cr    Cr6+3 0.115000 0.823260 0.249260 1.029237
Cr11  Cr    Cr6+3 0.885000 0.823260 0.750740 1.030354
Cr12  Cr    Cr6+3 0.616710 0.010760 0.250840 1.042561
H1    H     H_    0.499025 0.969660 0.062573 0.124944
H2    H     H_    0.075263 0.442726 0.442373 0.172017
H3    H     H_    0.479642 0.863377 0.560532 0.132194
H4    H     H_    0.575020 0.942513 0.442312 0.171963
H5    H     H_    0.564288 0.948484 0.567856 0.143937
H6    H     H_    0.489573 0.860100 0.434443 0.125911
H7    H     H_    0.064521 0.448699 0.567918 0.143962
H8    H     H_    0.989890 0.360002 0.434513 0.125889
H9    H     H_    0.670078 0.799647 0.431178 0.126606
H10   H     H_    0.358373 0.868384 0.557813 0.127796
H11   H     H_    0.170168 0.299395 0.431135 0.126643
H12   H     H_    0.502592 0.969979 0.936664 0.125244
H13   H     H_    0.858608 0.368902 0.557727 0.127885
H14   H     H_    0.672435 0.777606 0.560369 0.139798
H15   H     H_    0.352364 0.850516 0.427443 0.118584
H16   H     H_    0.172521 0.277379 0.560319 0.139868
H17   H     H_    0.852587 0.351065 0.427339 0.118497
H18   H     H_    0.895244 0.987314 0.571121 0.161861
H19   H     H_    0.104228 0.910144 0.440665 0.169375
H20   H     H_    0.395249 0.486926 0.571074 0.161977
H21   H     H_    0.604229 0.410459 0.440575 0.169427
H22   H     H_    0.864636 0.148691 0.575361 0.131795
H23   H     H_    0.999027 0.469660 0.062572 0.124943
H24   H     H_    0.098911 0.080864 0.432237 0.131540
H25   H     H_    0.364783 0.648344 0.575314 0.131726
H26   H     H_    0.599020 0.581084 0.432247 0.131568
H27   H     H_    0.867325 0.155190 0.448614 0.138127
H28   H     H_    0.106211 0.097671 0.558376 0.133780
H29   H     H_    0.367471 0.654846 0.448570 0.138012
H30   H     H_    0.606262 0.597720 0.558396 0.133845
H31   H     H_    0.892571 0.990964 0.445161 0.136485
H32   H     H_    0.110693 0.927075 0.565875 0.141091
H33   H     H_    0.392591 0.490590 0.445117 0.136555
H34   H     H_    0.002593 0.469979 0.936664 0.125245
H35   H     H_    0.610693 0.427154 0.565804 0.141109
H36   H     H_    0.518414 0.398018 0.870760 0.141071
H37   H     H_    0.481208 0.397428 0.129743 0.140898
H38   H     H_    0.018414 0.898019 0.870760 0.141068
H39   H     H_    0.981208 0.897427 0.129742 0.140900
H40   H     H_    0.009601 0.088983 0.935919 0.140131
H41   H     H_    0.990190 0.088689 0.065187 0.139416
H42   H     H_    0.509602 0.588982 0.935919 0.140131
H43   H     H_    0.490191 0.588689 0.065186 0.139416
H44   H     H_    0.859544 0.949784 0.077122 0.135198
H45   H     H_    0.493014 0.360139 0.429980 0.115188
H46   H     H_    0.140342 0.948165 0.922647 0.134887
H47   H     H_    0.359544 0.449784 0.077122 0.135197
H48   H     H_    0.640342 0.448164 0.922647 0.134888
H49   H     H_    0.871342 0.921594 0.951132 0.188065
H50   H     H_    0.128413 0.919011 0.048626 0.187080
H51   H     H_    0.371342 0.421594 0.951132 0.188065
H52   H     H_    0.628413 0.419011 0.048626 0.187080
H53   H     H_    0.170438 0.194131 0.946683 0.190363
H54   H     H_    0.830392 0.194935 0.052896 0.189702
H55   H     H_    0.670437 0.694132 0.946682 0.190363
H56   H     H_    0.483449 0.360048 0.560327 0.117454
H57   H     H_    0.330391 0.694933 0.052895 0.189702
H58   H     H_    0.597096 0.803692 0.929901 0.097251
H59   H     H_    0.403174 0.805668 0.070061 0.097510
H60   H     H_    0.097096 0.303690 0.929901 0.097251
H61   H     H_    0.903175 0.305673 0.070061 0.097509
H62   H     H_    0.583896 0.834337 0.054662 0.124135
H63   H     H_    0.416421 0.836941 0.945407 0.124683
H64   H     H_    0.083896 0.334336 0.054662 0.124135
H65   H     H_    0.916422 0.336944 0.945408 0.124683
H66   H     H_    0.992846 0.860163 0.429935 0.115179
H67   H     H_    0.983308 0.860100 0.560290 0.117489
H68   H     H_    0.979941 0.363329 0.560601 0.132166
O1    O     O_R   0.787520 0.042810 0.170440 -0.545198
O2    O     O_R   0.454050 0.051210 0.669140 -0.518915
O3    O     O_R   0.045950 0.551210 0.330860 -0.523075
O4    O     O_R   0.954050 0.551210 0.669140 -0.518928
O5    O     O_R   0.681390 0.959480 0.325510 -0.505317
O6    O     O_R   0.318610 0.959480 0.674490 -0.503872
O7    O     O_R   0.181390 0.459480 0.325510 -0.505330
O8    O     O_R   0.818610 0.459480 0.674490 -0.503875
O9    O     O_3   0.667900 0.167900 0.250060 -0.261507
O10   O     O_3   0.332100 0.167900 0.749940 -0.263972
O11   O     O_3   0.167900 0.667900 0.250060 -0.261507
O12   O     O_R   0.212480 0.042810 0.829560 -0.544628
O13   O     O_3   0.832100 0.667900 0.749940 -0.263973
O14   O     O_R   0.765640 0.292100 0.175020 -0.515436
O15   O     O_R   0.234360 0.292100 0.824980 -0.514920
O16   O     O_R   0.265640 0.792100 0.175020 -0.515427
O17   O     O_R   0.734360 0.792100 0.824980 -0.514925
O18   O     O_R   0.670190 0.408840 0.168540 -0.476164
O19   O     O_R   0.329810 0.408840 0.831460 -0.476465
O20   O     O_R   0.170190 0.908840 0.168540 -0.476162
O21   O     O_R   0.829810 0.908840 0.831460 -0.476470
O22   O     O_R   0.556620 0.251410 0.175160 -0.517950
O23   O     O_R   0.287520 0.542810 0.170440 -0.545203
O24   O     O_R   0.443380 0.251410 0.824840 -0.517474
O25   O     O_R   0.056620 0.751410 0.175160 -0.517949
O26   O     O_R   0.943380 0.751410 0.824840 -0.517477
O27   O     O_R   0.545960 0.049620 0.170320 -0.518328
O28   O     O_R   0.454040 0.049620 0.829680 -0.518167
O29   O     O_R   0.045960 0.549620 0.170320 -0.518327
O30   O     O_R   0.954040 0.549620 0.829680 -0.518168
O31   O     O_R   0.681390 0.958010 0.176690 -0.469513
O32   O     O_R   0.318610 0.958010 0.823310 -0.468697
O33   O     O_R   0.181390 0.458010 0.176690 -0.469518
O34   O     O_R   0.712480 0.542810 0.829560 -0.544622
O35   O     O_R   0.818610 0.458010 0.823310 -0.468690
O36   O     O_R   0.787510 0.044390 0.330970 -0.518156
O37   O     O_R   0.212490 0.044390 0.669030 -0.519683
O38   O     O_R   0.287510 0.544390 0.330970 -0.518159
O39   O     O_R   0.712490 0.544390 0.669030 -0.519659
O40   O     O_R   0.765630 0.293570 0.323840 -0.504436
O41   O     O_R   0.234370 0.293570 0.676160 -0.509492
O42   O     O_R   0.265630 0.793570 0.323840 -0.504463
O43   O     O_R   0.734370 0.793570 0.676160 -0.509497
O44   O     O_R   0.670190 0.410420 0.329080 -0.516720
O45   O     O_R   0.556610 0.252880 0.323980 -0.513691
O46   O     O_R   0.329810 0.410420 0.670920 -0.516152
O47   O     O_R   0.170190 0.910420 0.329080 -0.516680
O48   O     O_R   0.829810 0.910420 0.670920 -0.516140
O49   O     O_R   0.443390 0.252880 0.676020 -0.512284
O50   O     O_R   0.056610 0.752880 0.323980 -0.513690
O51   O     O_R   0.943390 0.752880 0.676020 -0.512271
O52   O     O_R   0.545950 0.051210 0.330860 -0.523090

loop_
_geom_bond_atom_site_label_1
_geom_bond_atom_site_label_2
_ccdc_geom_bond_type
C3    C104  A    
C44   C49   A    
C80   H66   S    
Cr10  O50   S    
C47   H49   S    
C27   H12   S    
C87   C91   A    
C7    O48   A    
C35   C53   S    
C118  H27   S    
C20   C67   S    
Cr4   O4    S    
C29   H34   S    
C72   C76   A    
C112  C121  S    
Cr9   O49   S    
C1    C33   S    
C90   C95   A    
C94   C98   A    
C85   C86   S    
C18   C65   S    
C98   C124  A    
C112  H21   S    
Cr2   O32   S    
C100  C105  A    
C101  C123  A    
C65   O22   A    
C32   C36   A    
Cr7   O34   S    
C96   C118  S    
C28   C29   A    
C9    C69   S    
C41   C58   S    
C38   C42   A    
C9    O49   A    
C95   C112  S    
C115  O32   A    
C48   O20   A    
C10   C73   S    
C95   C99   A    
C120  H29   S    
C103  H39   S    
C56   H62   S    
C20   C25   A    
C84   H4    S    
Cr6   O11   S    
C55   H61   S    
C66   O24   A    
C94   C111  S    
C6    C88   S    
C106  H15   S    
C14   O6    A    
Cr3   O11   S    
C24   C81   A    
C54   H60   S    
C89   C94   A    
C16   O8    A    
Cr4   O30   S    
C4    O40   A    
Cr1   O9    S    
Cr8   O45   S    
Cr5   O15   S    
C91   C96   A    
C83   H5    S    
C40   C57   S    
C3    C16   S    
C7    C87   S    
C38   C55   S    
C83   C84   S    
C12   O36   A    
C18   C26   A    
Cr9   O10   S    
Cr12  O27   S    
C10   O50   A    
Cr2   O6    S    
C111  H25   S    
C104  H13   S    
C83   H3    S    
C26   H1    S    
Cr12  O52   S    
C74   C83   S    
Cr11  O48   S    
C107  H16   S    
C51   H52   S    
C102  H11   S    
C99   C121  S    
C14   O37   A    
C117  O34   A    
Cr11  O13   S    
C44   H46   S    
C121  H30   S    
C40   C62   A    
C58   H64   S    
C58   Cl3   S    
C54   H53   S    
C18   C22   A    
C55   C60   S    
C88   C93   A    
C24   H43   S    
C57   H63   S    
C36   C41   A    
C52   H55   S    
C12   O5    A    
C31   C49   A    
Cr9   O24   S    
C102  C124  A    
C109  H18   S    
C82   H67   S    
C90   C108  A    
C109  C118  S    
C4    C90   S    
C49   H50   S    
C5    C89   S    
C39   C61   A    
C71   C75   A    
Cr5   O12   S    
C85   H7    S    
C74   C75   A    
C30   C34   A    
Cr3   O7    S    
C34   C39   A    
C17   C27   A    
C22   C81   A    
Cr7   O39   S    
C30   C47   A    
C60   Cl4   S    
C36   C54   S    
C76   C77   A    
C4    O44   A    
C15   O7    A    
Cr3   O33   S    
C42   C60   S    
C57   Cl2   S    
C110  H24   S    
C11   C72   S    
C45   H47   S    
Cr8   O9    S    
C20   C28   A    
C44   C62   A    
Cr6   O23   S    
Cr8   O22   S    
C46   C51   A    
C67   O29   A    
Cr12  O31   S    
C17   C21   A    
C101  H10   S    
Cr4   O13   S    
C13   C24   A    
C7    O43   A    
C111  C120  S    
C2    H41   S    
C53   H59   S    
C75   C84   S    
C97   C119  S    
C19   C23   A    
C111  H20   S    
C19   C68   S    
C6    O42   A    
C5    O41   A    
C11   O4    A    
C88   C106  A    
Cr12  O9    S    
Cr4   O35   S    
C39   C56   S    
C87   C105  A    
C1    O18   A    
C37   O19   A    
C9    O2    A    
C112  H26   S    
C30   C59   S    
C89   C107  A    
Cr11  O26   S    
C26   C27   A    
Cr8   O44   S    
C69   C74   A    
Cr11  O21   S    
C78   H45   S    
C66   O28   A    
C32   C37   S    
Cr10  O20   S    
C50   H51   S    
C97   C123  A    
C32   C50   A    
C45   C63   A    
C68   O26   A    
Cr12  O5    S    
Cr4   O8    S    
C63   C116  S    
C117  O35   A    
Cr5   O10   S    
C80   C82   A    
C15   C124  S    
C5    O46   A    
Cr10  O11   S    
Cr7   O13   S    
C37   O15   A    
Cr6   O16   S    
C31   C48   S    
C116  O23   A    
Cr3   O3    S    
C31   C35   A    
C115  O12   A    
C69   C79   A    
C102  C107  A    
C52   H58   S    
C41   C63   A    
Cr5   O41   S    
Cr1   O1    S    
Cr10  O47   S    
C19   C29   A    
C93   C97   A    
C104  C108  A    
C86   H2    S    
C54   C58   S    
C16   O39   A    
C101  C106  A    
Cr8   O18   S    
C116  O33   A    
C67   O25   A    
C8    C71   S    
C15   O38   A    
C14   C123  S    
Cr7   O17   S    
C60   H65   S    
C78   C79   A    
C34   C52   S    
C65   O27   A    
C25   C103  A    
Cr9   O46   S    
Cr7   O43   S    
Cr1   O14   S    
C86   H8    S    
C110  C119  S    
C77   C86   S    
C42   C64   A    
C10   O3    A    
C98   C120  S    
C43   H44   S    
C108  H17   S    
Cr1   O36   S    
Cr11  O51   S    
C100  H9    S    
C33   C51   A    
C11   O51   A    
C48   O16   A    
C93   C110  S    
C114  H40   S    
C33   C38   A    
C96   C122  A    
C21   C70   A    
C109  H22   S    
C53   H57   S    
C91   C109  S    
C35   C40   A    
C81   H37   S    
C62   C115  S    
Cr9   O19   S    
C68   O30   A    
C92   H38   S    
C2    C114  A    
C43   C61   A    
C121  H35   S    
C70   H36   S    
C118  H31   S    
Cr3   O29   S    
C76   C85   S    
Cr2   O28   S    
C45   C50   A    
C73   C80   A    
C53   C57   S    
C6    O47   A    
C105  H14   S    
C100  C122  A    
C23   C25   A    
C17   C66   S    
C59   O17   A    
C119  H32   S    
C2    C103  A    
C79   H56   S    
C43   C47   A    
Cr2   O2    S    
C64   C117  S    
C61   C113  S    
C113  O1    A    
C110  H19   S    
C3    C99   A    
C120  H33   S    
C113  O31   A    
C55   H54   S    
C12   C122  S    
C28   H23   S    
C73   C77   A    
C56   Cl1   S    
C13   H42   S    
C13   C70   A    
C46   C64   A    
Cr6   O42   S    
C23   C92   A    
C1    O14   A    
Cr10  O25   S    
C84   H6    S    
C46   H48   S    
C21   C22   A    
Cr2   O10   S    
C92   C114  A    
C119  H28   S    
Cr6   O38   S    
C71   C78   A    
C72   C82   A    
C8    O45   A    
C52   C56   S    
C85   H68   S    
Cr5   O37   S    
C8    O52   A    
Cr1   O40   S    
C59   O21   A    
