data_mof_unit_2211.cif
_audit_creation_date              2012-12-10T17:53:22-0500
_audit_creation_method            fapswitch 2.2
_symmetry_space_group_name_H-M    P1
_symmetry_Int_Tables_number       1
_space_group_crystal_system       triclinic
_cell_length_a                    23.247925
_cell_length_b                    10.651092
_cell_length_c                    9.968845
_cell_angle_alpha                 90.708631
_cell_angle_beta                  88.877916
_cell_angle_gamma                 90.441351
_cell_volume                      2467.71258218

loop_
_atom_site_label
_atom_site_type_symbol
_atom_type_description
_atom_site_fract_x
_atom_site_fract_y
_atom_site_fract_z
_atom_type_partial_charge
Br1   Br    Br    0.398669 0.133065 0.338267 -0.455339
Br2   Br    Br    0.699233 0.172630 0.768664 -0.503624
Br3   Br    Br    0.271497 0.544894 0.875325 -0.350726
Br4   Br    Br    0.393967 0.704069 0.795613 -0.370487
Br5   Br    Br    0.185053 0.681273 0.373138 -0.404117
Br6   Br    Br    0.349997 0.253931 0.656729 -0.366586
Br7   Br    Br    0.210912 0.194132 0.613667 -0.307269
Br8   Br    Br    0.814937 0.680320 0.620196 -0.452338
C1    C     C_R   0.500431 0.260530 0.499288 0.926751
C2    C     C_R   0.121931 0.402988 0.374064 0.597908
C3    C     C_R   0.233564 0.552344 0.442624 0.266513
C4    C     C_R   0.389670 0.496978 0.501340 1.013075
C5    C     C_R   0.293266 0.570086 0.443466 -0.026462
C6    C     C_R   0.327758 0.480435 0.504150 -0.177069
C7    C     C_R   0.303346 0.372160 0.562532 0.190182
C8    C     C_R   0.244299 0.350081 0.552371 0.296999
C9    C     C_R   0.209385 0.441204 0.494828 0.093725
C10   C     C_R   0.766900 0.548461 0.550592 0.310950
C11   C     C_R   0.707830 0.565907 0.554009 -0.296466
C12   C     C_R   0.967933 0.403236 0.738900 0.127811
C13   C     C_R   0.671726 0.477445 0.494281 -0.067440
C14   C     C_R   0.694145 0.368809 0.431665 0.029933
C15   C     C_R   0.753607 0.346824 0.435470 0.110978
C16   C     C_R   0.502349 0.738932 0.500673 0.889652
C17   C     C_R   0.789866 0.437586 0.493728 0.225496
C18   C     C_R   0.594471 0.135815 0.627074 -0.228512
C19   C     C_R   0.639068 0.074005 0.689757 0.262181
C20   C     C_R   0.639610 0.942429 0.691712 0.082422
C21   C     C_R   0.595545 0.874608 0.630089 -0.188307
C22   C     C_R   0.549953 0.936622 0.567049 0.057687
C23   C     C_R   0.027841 0.411725 0.736432 -0.182017
C24   C     C_R   0.549313 0.068106 0.565200 0.013229
C25   C     C_R   0.504076 0.127780 0.497958 -0.138322
C26   C     C_R   0.461466 0.059365 0.430624 0.277415
C27   C     C_R   0.462548 0.931359 0.433343 -0.177424
C28   C     C_R   0.610312 0.497734 0.498528 0.873756
C29   C     C_R   0.505442 0.871105 0.501850 -0.121614
C30   C     C_R   0.400893 0.421193 0.127667 -0.118276
C31   C     C_R   0.348075 0.430891 0.064088 -0.002142
C32   C     C_R   0.344993 0.501754 0.946191 0.225786
C33   C     C_R   0.396289 0.544066 0.883547 0.254135
C34   C     C_R   0.058793 0.414115 0.614613 -0.041954
C35   C     C_R   0.449323 0.503706 0.933007 0.060876
C36   C     C_R   0.450489 0.475462 0.071232 0.043188
C37   C     C_R   0.549632 0.514660 0.068344 0.167509
C38   C     C_R   0.549707 0.505692 0.925393 -0.126032
C39   C     C_R   0.880398 0.418228 0.373798 0.571884
C40   C     C_R   0.877480 0.403262 0.612730 0.599949
C41   C     C_R   0.937906 0.401834 0.616833 -0.020200
C42   C     C_R   0.969268 0.403011 0.493559 -0.049265
C43   C     C_R   0.940102 0.405890 0.371468 -0.056902
C44   C     C_R   0.029867 0.404525 0.492175 -0.029776
C45   C     C_R   0.061349 0.399745 0.368786 -0.045772
C46   C     C_R   0.030790 0.395136 0.246479 0.099301
C47   C     C_R   0.970974 0.400345 0.249767 -0.106929
C48   C     C_R   0.118336 0.428932 0.612587 0.617357
H1    H     H_    0.690134 0.650169 0.599873 0.181209
H2    H     H_    0.952659 0.323006 0.918603 0.198834
H3    H     H_    0.661617 0.192786 0.405401 0.188032
H4    H     H_    0.668097 0.277920 0.263697 0.205869
H5    H     H_    0.759736 0.157094 0.434002 0.208172
H6    H     H_    0.767375 0.224274 0.280940 0.220226
H7    H     H_    0.723838 0.901559 0.708631 0.252111
H8    H     H_    0.685808 0.903401 0.855405 0.231831
H9    H     H_    0.631379 0.466753 0.105573 0.192451
H10   H     H_    0.619690 0.622950 0.098218 0.180118
H11   H     H_    0.278349 0.316970 0.056350 0.268746
H12   H     H_    0.596823 0.237021 0.624593 0.187556
H13   H     H_    0.269213 0.448944 0.150915 0.251854
H14   H     H_    0.084811 0.469081 0.104657 0.265251
H15   H     H_    0.082507 0.307773 0.108091 0.257794
H16   H     H_    0.302783 0.759276 0.435521 0.263497
H17   H     H_    0.308502 0.683509 0.284870 0.238594
H18   H     H_    0.598008 0.773312 0.630647 0.156119
H19   H     H_    0.428973 0.878066 0.383612 0.191859
H20   H     H_    0.049990 0.416685 0.830991 0.197463
H21   H     H_    0.403427 0.364962 0.215575 0.240777
H22   H     H_    0.590062 0.511481 0.869974 0.166565
H23   H     H_    0.948592 0.400533 0.155619 0.187179
H24   H     H_    0.949496 0.481778 0.920004 0.207899
N1    N     N_R   0.850622 0.417864 0.493248 -0.342811
N2    N     N_3   0.297863 0.376737 0.126198 -0.377249
N3    N     N_3   0.058412 0.389996 0.116763 -0.459111
N4    N     N_3   0.319391 0.680009 0.386015 -0.416911
N5    N     N_R   0.148426 0.422889 0.493796 -0.325123
N6    N     N_R   0.499460 0.498800 0.142780 -0.097146
N7    N     N_R   0.499440 0.498720 0.857170 -0.102407
N8    N     N_3   0.938218 0.400707 0.866113 -0.350091
N9    N     N_3   0.656307 0.281960 0.365349 -0.448886
N10   N     N_3   0.777866 0.232827 0.382118 -0.416039
N11   N     N_3   0.684778 0.875682 0.754512 -0.439502
N12   N     N_3   0.602760 0.538095 0.133599 -0.384574
O1    O     O_R   0.500000 0.316780 0.614690 -0.596692
O2    O     O_R   0.583850 0.500050 0.614640 -0.644944
O3    O     O_R   0.583840 0.500030 0.385310 -0.578796
O4    O     O_2   0.852236 0.432701 0.257875 -0.533716
O5    O     O_2   0.845434 0.392730 0.726417 -0.462619
O6    O     O_2   0.146201 0.450129 0.728350 -0.485604
O7    O     O_2   0.154609 0.388438 0.261851 -0.553948
O8    O     O_R   0.500000 0.316750 0.385360 -0.602510
O9    O     O_R   0.416160 0.499970 0.614690 -0.577578
O10   O     O_R   0.416150 0.499950 0.385360 -0.634076
O11   O     O_R   0.500000 0.683250 0.614640 -0.582890
O12   O     O_R   0.500000 0.683220 0.385310 -0.610894
Zn1   Zn    Zn3+2 0.500000 0.500020 0.653130 1.012206
Zn2   Zn    Zn3+2 0.500000 0.499980 0.346870 0.996623

loop_
_geom_bond_atom_site_label_1
_geom_bond_atom_site_label_2
_ccdc_geom_bond_type
H9    N12   S    
C1    C25   S    
O2    Zn1   S    
C18   C24   A    
C23   C34   A    
C48   O6    S    
O12   Zn2   S    
C23   H20   S    
C2    N5    A    
C13   C28   S    
H4    N9    S    
C44   C45   A    
C30   C36   A    
C40   O5    S    
C5    N4    S    
C27   H19   S    
C18   C19   A    
C21   C22   A    
C9    N5    S    
C20   C21   A    
C11   C13   A    
Br5   C3    S    
C30   C31   A    
C26   C27   A    
Br4   C33   S    
C7    C8    A    
H6    N10   S    
C40   N1    A    
C10   C11   A    
H3    N9    S    
C2    C45   A    
C37   N12   S    
H13   N2    S    
C34   C48   A    
Br6   C7    S    
C11   H1    S    
C3    C9    A    
C8    C9    A    
C42   C44   A    
C39   O4    S    
Br2   C19   S    
H17   N4    S    
O1    Zn1   S    
C15   C17   A    
C13   C14   A    
C17   N1    S    
C33   C35   A    
N6    Zn2   S    
C10   C17   A    
C36   N6    A    
C46   N3    S    
Br1   C26   S    
C16   C29   S    
H15   N3    S    
O9    Zn1   S    
C31   C32   A    
C38   H22   S    
H10   N12   S    
C21   H18   S    
C42   C43   A    
C37   C38   A    
Br8   C10   S    
C22   C29   A    
C16   O12   A    
C35   C36   A    
C4    O10   A    
C12   C41   A    
O3    Zn2   S    
C47   H23   S    
N7    Zn1   S    
C25   C26   A    
C15   N10   S    
O11   Zn1   S    
H14   N3    S    
H16   N4    S    
C32   C33   A    
C4    C6    S    
Br3   C32   S    
C1    O8    A    
C1    O1    A    
H5    N10   S    
C38   N7    A    
C46   C47   A    
C40   C41   A    
C27   C29   A    
C14   C15   A    
Br7   C8    S    
C31   N2    S    
H2    N8    S    
C39   C43   A    
C45   C46   A    
C30   H21   S    
O8    Zn2   S    
C16   O11   A    
C18   H12   S    
C24   C25   A    
C37   N6    A    
C35   N7    A    
C4    O9    A    
H24   N8    S    
C22   C24   A    
C3    C5    A    
C28   O3    A    
C48   N5    A    
C12   N8    S    
C14   N9    S    
O10   Zn2   S    
C20   N11   S    
C43   C47   A    
C39   N1    A    
C2    O7    S    
C28   O2    A    
H11   N2    S    
C41   C42   A    
H7    N11   S    
C19   C20   A    
C6    C7    A    
H8    N11   S    
C5    C6    A    
C34   C44   A    
C12   C23   A    
