data_mof_unit_389.cif
_audit_creation_date              2012-12-11T14:40:16-0500
_audit_creation_method            fapswitch 2.2
_symmetry_space_group_name_H-M    P1
_symmetry_Int_Tables_number       1
_space_group_crystal_system       triclinic
_cell_length_a                    19.644832
_cell_length_b                    10.888624
_cell_length_c                    19.46885
_cell_angle_alpha                 89.847581
_cell_angle_beta                  97.852016
_cell_angle_gamma                 90.037514
_cell_volume                      4125.42795467

loop_
_atom_site_label
_atom_site_type_symbol
_atom_type_description
_atom_site_fract_x
_atom_site_fract_y
_atom_site_fract_z
_atom_type_partial_charge
C1    C     C_R   0.724638 0.954440 0.361423 0.552233
C2    C     C_R   0.274385 0.951703 0.638992 0.546419
C3    C     C_R   0.227172 0.447256 0.358799 0.574201
C4    C     C_R   0.773218 0.448299 0.640583 0.580250
C5    C     C_3   0.724023 0.292936 0.484550 -0.071638
C6    C     C_3   0.291840 0.267691 0.502358 -0.113913
C7    C     C_3   0.176106 0.837449 0.489255 -0.169084
C8    C     C_3   0.820026 0.850120 0.511491 -0.185928
C9    C     C_3   0.745697 0.390945 0.434438 0.004000
C10   C     C_3   0.267457 0.345349 0.559942 -0.010122
C11   C     C_3   0.230747 0.837962 0.439737 -0.018743
C12   C     C_3   0.766032 0.853738 0.561484 -0.011901
C13   C     C_3   0.709902 0.490409 0.470320 0.371492
C14   C     C_3   0.294590 0.462170 0.530067 0.388741
C15   C     C_3   0.254569 0.965707 0.463060 0.384696
C16   C     C_3   0.743287 0.981918 0.537080 0.394464
C17   C     C_3   0.778360 0.514185 0.517425 -0.204955
C18   C     C_3   0.223652 0.482478 0.487179 -0.198224
C19   C     C_3   0.308370 0.908969 0.518222 -0.128937
C20   C     C_3   0.688553 0.924964 0.482691 -0.132345
C21   C     C_3   0.814024 0.412174 0.480859 -0.177979
C22   C     C_3   0.196331 0.364296 0.517221 -0.139406
C23   C     C_3   0.284381 0.779270 0.494655 -0.125037
C24   C     C_3   0.711459 0.795267 0.507577 -0.117154
C25   C     C_3   0.792873 0.315427 0.532095 -0.071610
C26   C     C_3   0.220123 0.287170 0.458715 -0.071812
C27   C     C_3   0.230342 0.779168 0.545922 -0.169133
C28   C     C_3   0.765337 0.791127 0.456338 -0.166097
C29   C     C_3   0.757098 0.416852 0.568242 0.009751
C30   C     C_3   0.247503 0.404776 0.428983 -0.003750
C31   C     C_3   0.254084 0.908620 0.568638 0.005261
C32   C     C_3   0.742615 0.919409 0.432319 0.005764
C33   C     C_3   0.552878 0.267182 0.965836 0.365943
C34   C     C_3   0.504049 0.276706 0.020254 0.386431
C35   C     C_3   0.052873 0.767181 0.965838 0.365143
C36   C     C_3   0.004043 0.776707 0.020257 0.386158
C37   C     C_3   0.594819 0.165132 0.008023 -0.222301
C38   C     C_3   0.456123 0.179198 0.982916 -0.174195
C39   C     C_3   0.094812 0.665129 0.008026 -0.222237
C40   C     C_3   0.956116 0.679199 0.982919 -0.174344
C41   C     C_3   0.544665 0.175064 0.062481 -0.073194
C42   C     C_3   0.505728 0.169870 0.927955 -0.042676
C43   C     C_3   0.044658 0.675063 0.062483 -0.070723
C44   C     C_3   0.005721 0.669870 0.927958 -0.042223
C45   C     C_R   0.560556 0.183010 0.348410 0.529169
C46   C     C_R   0.441530 0.183021 0.651795 0.507136
C47   C     C_R   0.034309 0.679682 0.337247 0.538605
C48   C     C_R   0.938847 0.682918 0.651651 0.512859
C49   C     C_3   0.497624 0.077226 0.024495 0.381359
C50   C     C_3   0.546190 0.067562 0.969344 0.368037
C51   C     C_3   0.997616 0.577227 0.024498 0.380220
C52   C     C_3   0.046182 0.567560 0.969347 0.367508
C53   C     C_1   0.763154 0.424562 0.904161 0.062336
C54   C     C_1   0.236612 0.425680 0.095613 0.044464
C55   C     C_1   0.263151 0.924555 0.904158 0.060296
C56   C     C_1   0.736615 0.925673 0.095616 0.040259
C57   C     C_1   0.747187 0.407585 0.034411 0.033508
C58   C     C_1   0.252354 0.408534 0.965272 0.034912
C59   C     C_1   0.247184 0.907576 0.034409 0.034127
C60   C     C_1   0.752356 0.908529 0.965274 0.034588
C61   C     C_1   0.754353 0.414518 0.963737 0.049467
C62   C     C_1   0.245259 0.415778 0.035984 0.026985
C63   C     C_1   0.254350 0.914509 0.963735 0.050096
C64   C     C_1   0.745261 0.915771 0.035987 0.025858
C65   C     C_1   0.742143 0.394757 0.094767 0.041440
C66   C     C_1   0.257505 0.395248 0.904975 0.050888
C67   C     C_1   0.242141 0.894751 0.094767 0.041801
C68   C     C_1   0.757505 0.895246 0.904976 0.051342
C69   C     C_R   0.739548 0.363182 0.361845 0.558606
C70   C     C_R   0.275075 0.310354 0.632482 0.547450
C71   C     C_R   0.224020 0.806724 0.366846 0.573764
C72   C     C_R   0.774642 0.812488 0.632358 0.543322
C73   C     C_R   0.721703 0.952821 0.163611 0.534309
C74   C     C_R   0.278212 0.952407 0.836269 0.547682
C75   C     C_R   0.221701 0.452827 0.163608 0.546046
C76   C     C_R   0.778214 0.452412 0.836271 0.556496
C77   C     C_R   0.564017 0.182868 0.137223 0.567519
C78   C     C_R   0.473339 0.178396 0.856855 0.596539
C79   C     C_R   0.064015 0.682868 0.137223 0.566515
C80   C     C_R   0.973336 0.678396 0.856857 0.594257
C81   C     C_R   0.735713 0.360431 0.164261 0.534537
C82   C     C_R   0.264219 0.360457 0.835657 0.554469
C83   C     C_R   0.235714 0.860433 0.164263 0.558647
C84   C     C_R   0.764219 0.860457 0.835656 0.567511
C85   C     C_1   0.469144 0.175181 0.587980 0.048261
C86   C     C_1   0.534858 0.174945 0.413260 0.054989
C87   C     C_1   0.961265 0.672810 0.585128 -0.002442
C88   C     C_1   0.007251 0.670485 0.401484 0.000843
C89   C     C_1   0.514334 0.171514 0.468501 0.078993
C90   C     C_1   0.490483 0.171644 0.533159 0.072841
C91   C     C_1   0.991139 0.666424 0.458800 -0.039339
C92   C     C_1   0.975896 0.667092 0.527246 -0.040991
C93   C     C_3   0.689241 0.395287 0.521577 0.422708
C94   C     C_3   0.318114 0.386595 0.471529 0.415417
C95   C     C_3   0.200995 0.966754 0.513165 0.394951
C96   C     C_3   0.796196 0.978756 0.486252 0.394067
Cr1   Cr    Cr6+3 0.765830 0.160660 0.268180 1.087801
Cr2   Cr    Cr6+3 0.234170 0.160660 0.731820 1.102452
Cr3   Cr    Cr6+3 0.265830 0.660660 0.268180 1.103914
Cr4   Cr    Cr6+3 0.734170 0.660660 0.731820 1.110946
Cr5   Cr    Cr6+3 0.612110 0.009150 0.248770 1.117380
Cr6   Cr    Cr6+3 0.387890 0.009150 0.751230 1.104642
Cr7   Cr    Cr6+3 0.112110 0.509150 0.248770 1.095878
Cr8   Cr    Cr6+3 0.887890 0.509150 0.751230 1.096205
Cr9   Cr    Cr6+3 0.615930 0.324050 0.248450 1.136409
Cr10  Cr    Cr6+3 0.384070 0.324050 0.751550 1.137891
Cr11  Cr    Cr6+3 0.115930 0.824050 0.248450 1.109449
Cr12  Cr    Cr6+3 0.884070 0.824050 0.751550 1.109839
H1    H     H_    0.826816 0.244612 0.559819 0.238939
H2    H     H_    0.187345 0.219329 0.427248 0.243149
H3    H     H_    0.220804 0.704205 0.582165 0.180728
H4    H     H_    0.774574 0.715740 0.420483 0.176384
O1    O     O_R   0.783230 0.287800 0.346510 -0.483595
O2    O     O_R   0.216770 0.287800 0.653490 -0.481760
O3    O     O_R   0.283230 0.787800 0.346510 -0.465112
O4    O     O_R   0.716770 0.787800 0.653490 -0.475602
O5    O     O_R   0.554500 0.081650 0.170370 -0.428324
O6    O     O_R   0.445500 0.081650 0.829630 -0.465421
O7    O     O_R   0.054500 0.581650 0.170370 -0.436229
O8    O     O_R   0.945500 0.581650 0.829630 -0.466901
O9    O     O_R   0.545430 0.285140 0.163100 -0.421902
O10   O     O_R   0.454570 0.285140 0.836900 -0.457340
O11   O     O_R   0.045430 0.785140 0.163100 -0.430985
O12   O     O_R   0.954570 0.785140 0.836900 -0.458195
O13   O     O_R   0.677850 0.374730 0.185500 -0.503906
O14   O     O_R   0.322150 0.374730 0.814500 -0.489446
O15   O     O_R   0.177850 0.874730 0.185500 -0.496659
O16   O     O_R   0.822150 0.874730 0.814500 -0.485804
O17   O     O_3   0.664630 0.164620 0.255130 -0.350411
O18   O     O_3   0.335370 0.164620 0.744870 -0.343745
O19   O     O_3   0.164630 0.664620 0.255130 -0.355484
O20   O     O_3   0.835370 0.664620 0.744870 -0.340845
O21   O     O_R   0.760130 0.037060 0.338610 -0.460044
O22   O     O_R   0.239870 0.037060 0.661390 -0.476048
O23   O     O_R   0.260130 0.537060 0.338610 -0.492955
O24   O     O_R   0.739870 0.537060 0.661390 -0.497842
O25   O     O_R   0.666620 0.921370 0.332440 -0.502567
O26   O     O_R   0.333380 0.921370 0.667560 -0.503719
O27   O     O_R   0.166620 0.421370 0.332440 -0.511581
O28   O     O_R   0.833380 0.421370 0.667560 -0.515067
O29   O     O_R   0.557170 0.082420 0.312350 -0.487487
O30   O     O_R   0.442830 0.082420 0.687650 -0.492913
O31   O     O_R   0.057170 0.582420 0.312350 -0.494268
O32   O     O_R   0.942830 0.582420 0.687650 -0.483368
O33   O     O_R   0.548310 0.285980 0.316250 -0.441511
O34   O     O_R   0.451690 0.285980 0.683750 -0.452498
O35   O     O_R   0.048310 0.785980 0.316250 -0.501881
O36   O     O_R   0.951690 0.785980 0.683750 -0.487197
O37   O     O_R   0.680520 0.375500 0.327470 -0.474641
O38   O     O_R   0.319480 0.375500 0.672530 -0.446054
O39   O     O_R   0.180520 0.875500 0.327470 -0.446740
O40   O     O_R   0.819480 0.875500 0.672530 -0.462260
O41   O     O_R   0.780350 0.286970 0.193350 -0.492466
O42   O     O_R   0.219650 0.286970 0.806650 -0.479296
O43   O     O_R   0.280350 0.786970 0.193350 -0.481034
O44   O     O_R   0.719650 0.786970 0.806650 -0.472782
O45   O     O_R   0.757460 0.036290 0.196640 -0.498352
O46   O     O_R   0.242540 0.036290 0.803360 -0.486797
O47   O     O_R   0.257460 0.536290 0.196640 -0.493737
O48   O     O_R   0.742540 0.536290 0.803360 -0.482240
O49   O     O_R   0.663740 0.920540 0.179290 -0.480884
O50   O     O_R   0.336260 0.920540 0.820710 -0.481050
O51   O     O_R   0.163740 0.420540 0.179290 -0.480353
O52   O     O_R   0.836260 0.420540 0.820710 -0.481856
H5    H     H_    0.700306 0.203792 0.467315 0.136486
H6    H     H_    0.322176 0.182279 0.512665 0.135712
H7    H     H_    0.121907 0.808222 0.475618 0.141102
H8    H     H_    0.874736 0.827303 0.524023 0.140928
F1    F     F_    0.625796 0.386536 0.544372 -0.570805
F2    F     F_    0.380137 0.399480 0.446215 -0.569145
F3    F     F_    0.158361 0.063450 0.524351 -0.616811
F4    F     F_    0.839801 0.072722 0.472694 -0.612225
F5    F     F_    0.665656 0.572541 0.432973 -0.607071
F6    F     F_    0.334317 0.547328 0.569998 -0.597992
F7    F     F_    0.267983 0.053318 0.415276 -0.624705
F8    F     F_    0.732512 0.075857 0.581954 -0.613643
H9    H     H_    0.362538 0.939854 0.530689 0.139378
H10   H     H_    0.634679 0.956897 0.469417 0.136519
H11   H     H_    0.803850 0.600853 0.535711 0.094717
H12   H     H_    0.193679 0.568436 0.477929 0.107320
H13   H     H_    0.864857 0.420435 0.462374 0.166449
H14   H     H_    0.145834 0.355457 0.536367 0.194895
H15   H     H_    0.319079 0.704748 0.482398 0.225944
H16   H     H_    0.675730 0.723335 0.521317 0.228374
H17   H     H_    0.651675 0.159626 0.019352 0.124470
H18   H     H_    0.399179 0.184817 0.972284 0.135556
H19   H     H_    0.151668 0.659621 0.019355 0.122399
H20   H     H_    0.899173 0.684820 0.972286 0.134102
F9    F     F_    0.580712 0.365742 0.934429 -0.566982
F10   F     F_    0.481973 0.386297 0.045404 -0.540388
F11   F     F_    0.080707 0.865739 0.934431 -0.570243
F12   F     F_    0.981968 0.886297 0.045408 -0.543411
F13   F     F_    0.469228 0.978441 0.055190 -0.549646
F14   F     F_    0.566987 0.959425 0.941545 -0.561988
F15   F     F_    0.969220 0.478445 0.055196 -0.553974
F16   F     F_    0.066978 0.459422 0.941548 -0.564684

loop_
_geom_bond_atom_site_label_1
_geom_bond_atom_site_label_2
_ccdc_geom_bond_type
C58   C62   S    
C6    H6    S    
C67   C83   S    
Cr10  O38   S    
Cr3   O47   S    
C24   H16   S    
Cr5   O17   S    
C17   C29   S    
C14   C18   S    
C19   C23   S    
C35   C36   S    
C8    C96   S    
Cr1   O21   S    
C44   C80   S    
C19   C31   S    
C80   O8    A    
C7    C27   S    
C46   O30   A    
C38   C49   S    
C46   O34   A    
C70   O2    A    
C15   C19   S    
C13   C93   S    
C69   O1    A    
C2    O22   A    
C41   C77   S    
C45   O33   A    
C33   C42   S    
C15   C95   S    
C75   O51   A    
C78   O6    A    
C9    C69   S    
C38   C42   S    
C77   O5    A    
Cr3   O3    S    
C1    O25   A    
C11   C71   S    
Cr2   O2    S    
C4    O28   A    
C43   C79   S    
C73   O45   A    
C81   O41   A    
C48   O32   A    
C33   F9    S    
Cr6   O26   S    
C11   C23   S    
C57   C61   S    
C9    C13   S    
Cr5   O5    S    
C82   O14   A    
C7    H7    S    
C8    H8    S    
C59   C67   T    
Cr12  O40   S    
C55   C74   S    
C11   C15   S    
C58   C66   T    
C37   H17   S    
C12   C16   S    
C70   O38   A    
C6    C94   S    
C55   C63   T    
C21   H13   S    
C73   O49   A    
C56   C64   T    
C18   C30   S    
Cr11  O11   S    
C8    C12   S    
Cr1   O17   S    
C24   C28   S    
C19   H9    S    
C4    C29   S    
Cr6   O6    S    
C37   C50   S    
C25   H1    S    
Cr9   O33   S    
C4    O24   A    
C46   C85   S    
C39   H19   S    
C44   C52   S    
C39   C52   S    
C12   C72   S    
C27   H3    S    
C34   C38   S    
C87   C92   T    
C45   O29   A    
Cr10  O10   S    
C34   C41   S    
C53   C61   T    
C84   O16   A    
Cr12  O12   S    
C1    O21   A    
C41   C49   S    
C7    C11   S    
Cr9   O37   S    
C25   C29   S    
C34   F10   S    
C47   O35   A    
C16   C96   S    
C13   F5    S    
C27   C31   S    
C51   C52   S    
C68   C84   S    
C20   C24   S    
C36   C40   S    
C50   F14   S    
Cr11  O19   S    
C10   C14   S    
C83   O15   A    
C91   C92   S    
C74   O50   A    
C77   O9    A    
C74   O46   A    
Cr9   O17   S    
C54   C62   T    
C72   O40   A    
C38   H18   S    
Cr10  O14   S    
C79   O11   A    
Cr1   O41   S    
C71   O3    A    
C1    C32   S    
C10   C22   S    
Cr8   O28   S    
Cr3   O43   S    
C2    C31   S    
C2    O26   A    
C17   H11   S    
C3    C30   S    
C35   C39   S    
C5    C9    S    
Cr7   O27   S    
C66   C82   S    
Cr11  O35   S    
Cr4   O48   S    
C65   C81   S    
C88   C91   T    
C28   C32   S    
C16   C20   S    
Cr7   O19   S    
C93   F1    S    
Cr2   O18   S    
Cr8   O32   S    
C33   C34   S    
C48   C87   S    
Cr3   O23   S    
Cr12  O16   S    
C35   F11   S    
C35   C44   S    
C23   H15   S    
C22   H14   S    
C42   C50   S    
C5    C25   S    
C26   H2    S    
C10   C70   S    
C32   C96   S    
C26   C30   S    
C23   C27   S    
Cr8   O20   S    
C8    C28   S    
Cr6   O30   S    
C79   O7    A    
C59   C63   S    
C76   O52   A    
C53   C76   S    
C3    O27   A    
Cr4   O44   S    
C96   F4    S    
Cr1   O1    S    
C9    C21   S    
C71   O39   A    
Cr6   O50   S    
C20   C32   S    
C75   O47   A    
Cr10  O18   S    
C21   C25   S    
C76   O48   A    
Cr5   O25   S    
C56   C73   S    
C81   O13   A    
C72   O4    A    
C36   F12   S    
Cr5   O29   S    
C15   F7    S    
Cr7   O7    S    
Cr6   O18   S    
C47   O31   A    
C57   C65   T    
C52   F16   S    
C86   C89   T    
Cr7   O31   S    
Cr2   O22   S    
C6    C10   S    
C5    C93   S    
C85   C90   T    
Cr4   O20   S    
C42   C78   S    
C40   H20   S    
Cr9   O13   S    
C40   C51   S    
C7    C95   S    
C12   C24   S    
Cr7   O51   S    
Cr10  O34   S    
C13   C17   S    
C60   C64   S    
C69   O37   A    
Cr4   O4    S    
C18   C22   S    
C45   C86   S    
C94   F2    S    
Cr11  O39   S    
C30   C94   S    
C51   F15   S    
C47   C88   S    
C29   C93   S    
Cr2   O42   S    
C84   O44   A    
C43   C51   S    
Cr8   O52   S    
C6    C26   S    
C49   F13   S    
C31   C95   S    
C48   O36   A    
Cr5   O49   S    
C14   C94   S    
C3    O23   A    
C5    H5    S    
C37   C41   S    
C78   O10   A    
C33   C37   S    
Cr12  O20   S    
C80   O12   A    
C16   F8    S    
C18   H12   S    
C54   C75   S    
C82   O42   A    
Cr2   O46   S    
C40   C44   S    
C83   O43   A    
C60   C68   T    
C14   F6    S    
C49   C50   S    
C22   C26   S    
C39   C43   S    
Cr9   O9    S    
C36   C43   S    
Cr11  O15   S    
Cr3   O19   S    
Cr8   O8    S    
C89   C90   S    
C95   F3    S    
C28   H4    S    
C20   H10   S    
Cr4   O24   S    
Cr1   O45   S    
Cr12  O36   S    
C17   C21   S    
