data_mof_unit_63.cif
_audit_creation_date              2012-10-26T19:00:14-0400
_audit_creation_method            fapswitch 2.2
_symmetry_space_group_name_H-M    P1
_symmetry_Int_Tables_number       1
_space_group_crystal_system       triclinic
_cell_length_a                    10.760789
_cell_length_b                    10.775406
_cell_length_c                    9.537193
_cell_angle_alpha                 90.028405
_cell_angle_beta                  90.114762
_cell_angle_gamma                 89.649578
_cell_volume                      1105.8323362

loop_
_atom_site_label
_atom_site_type_symbol
_atom_type_description
_atom_site_fract_x
_atom_site_fract_y
_atom_site_fract_z
_atom_type_partial_charge
C1    C     C_R   0.494912 0.262450 0.499969 0.554904
C2    C     C_R   0.878960 0.077671 0.713324 -0.132532
C3    C     C_R   0.818215 0.016322 0.604019 -0.114814
C4    C     C_R   0.262480 0.505695 0.499656 0.547783
C5    C     C_R   0.788731 0.080002 0.480785 -0.113353
C6    C     C_R   0.821484 0.204656 0.465628 -0.085463
C7    C     C_R   0.885317 0.266401 0.573616 0.034967
C8    C     C_R   0.456390 0.064134 0.622477 -0.004156
C9    C     C_R   0.476078 0.130034 0.498695 -0.047673
C10   C     C_R   0.470681 0.065759 0.370750 -0.145239
C11   C     C_R   0.469799 0.936651 0.369982 0.328473
C12   C     C_R   0.179567 0.951247 0.276214 -0.090362
C13   C     C_R   0.475934 0.870942 0.497705 0.018673
C14   C     C_R   0.456601 0.936758 0.621857 -0.031733
C15   C     C_3   0.516911 0.928966 0.762489 -0.267269
C16   C     C_R   0.494711 0.737819 0.499704 0.560201
C17   C     C_3   0.516885 0.070234 0.763356 -0.252415
C18   C     C_R   0.564376 0.588880 0.073876 0.214227
C19   C     C_R   0.428116 0.419911 0.074223 -0.039664
C20   C     C_R   0.427398 0.420554 0.925352 -0.020823
C21   C     C_R   0.566163 0.586778 0.926161 0.143594
C22   C     C_3   0.703349 0.605259 0.919923 -0.256664
C23   C     C_R   0.929913 0.597607 0.446266 -0.153660
C24   C     C_3   0.701871 0.611321 0.079695 -0.137949
C25   C     C_R   0.737385 0.493584 0.499907 0.542370
C26   C     C_R   0.143560 0.940517 0.415917 -0.119976
C27   C     C_R   0.111075 0.824944 0.469950 -0.116668
C28   C     C_R   0.114354 0.718393 0.384864 0.037677
C29   C     C_R   0.152209 0.728735 0.242698 0.069532
C30   C     C_R   0.185601 0.846126 0.190783 -0.039851
C31   C     C_3   0.738027 0.736891 0.147684 -0.259664
C32   C     C_3   0.695445 0.853940 0.069783 -0.393232
C33   C     C_3   0.162679 0.617876 0.145318 -0.261938
C34   C     C_R   0.871208 0.492419 0.498452 0.001426
C35   C     C_3   0.068458 0.622248 0.025550 -0.469904
C36   C     C_R   0.940862 0.389635 0.546373 -0.032180
C37   C     C_R   0.069918 0.399244 0.550554 -0.152087
C38   C     C_R   0.128596 0.504861 0.498613 -0.000978
C39   C     C_R   0.058686 0.603673 0.441604 -0.036958
C40   C     C_R   0.913037 0.202039 0.698132 -0.102549
Cu1   Cu    Cu3+1 0.499990 0.499980 0.640670 0.928564
Cu2   Cu    Cu3+1 0.500010 0.500020 0.359330 0.941874
F1    F     F_    0.467640 0.877609 0.244613 -0.670328
H1    H     H_    0.204759 0.041018 0.234474 0.105748
H2    H     H_    0.371477 0.353709 0.129975 0.111713
H3    H     H_    0.139670 0.022092 0.482134 0.119385
H4    H     H_    0.370179 0.354841 0.869287 0.114386
H5    H     H_    0.753188 0.521638 0.880377 0.140301
H6    H     H_    0.728269 0.691653 0.864033 0.126716
H7    H     H_    0.752599 0.531802 0.127848 0.139597
H8    H     H_    0.079862 0.818876 0.577675 0.109272
H9    H     H_    0.216665 0.856337 0.083467 0.117212
H10   H     H_    0.874899 0.675696 0.409442 0.099675
H11   H     H_    0.125622 0.321226 0.586724 0.108933
H12   H     H_    0.794443 0.919339 0.614475 0.099153
H13   H     H_    0.963936 0.247214 0.781699 0.097804
H14   H     H_    0.901691 0.028185 0.808813 0.098005
H15   H     H_    0.756522 0.872356 0.978601 0.108351
H16   H     H_    0.598042 0.845053 0.033787 0.211404
H17   H     H_    0.701835 0.935208 0.141024 0.157728
H18   H     H_    0.699730 0.739833 0.255446 0.200102
H19   H     H_    0.840423 0.741157 0.159027 0.128144
H20   H     H_    0.974724 0.600760 0.065950 0.148410
H21   H     H_    0.067282 0.714199 0.973093 0.146575
H22   H     H_    0.092958 0.550577 0.946376 0.145442
H23   H     H_    0.742519 0.032062 0.395913 0.108099
H24   H     H_    0.257714 0.616433 0.100262 0.171139
H25   H     H_    0.149764 0.528884 0.201416 0.163208
H26   H     H_    0.802095 0.251216 0.367300 0.111416
H27   H     H_    0.474191 0.114228 0.271370 0.144452
H28   H     H_    0.453659 0.888425 0.842026 0.150354
H29   H     H_    0.611354 0.887057 0.758472 0.127799
H30   H     H_    0.454091 0.110637 0.843991 0.130247
H31   H     H_    0.611284 0.111179 0.759965 0.165029
N1    N     N_R   0.500790 0.500930 0.147930 -0.242415
N2    N     N_R   0.500790 0.500890 0.852020 -0.234707
O1    O     O_R   0.500000 0.319640 0.618810 -0.496693
O2    O     O_R   0.500010 0.319680 0.381230 -0.518911
O3    O     O_R   0.319640 0.499990 0.618790 -0.504427
O4    O     O_R   0.319650 0.500030 0.381210 -0.512261
O5    O     O_R   0.499990 0.680320 0.618770 -0.512607
O6    O     O_R   0.500000 0.680360 0.381190 -0.435614
O7    O     O_R   0.680350 0.499970 0.618790 -0.499079
O8    O     O_R   0.680360 0.500010 0.381210 -0.523270

loop_
_geom_bond_atom_site_label_1
_geom_bond_atom_site_label_2
_ccdc_geom_bond_type
C6    H26   S    
C22   H5    S    
Cu2   O4    S    
C18   N1    A    
C18   C21   A    
C1    O1    A    
Cu1   Cu2   S    
C31   H18   S    
C19   C20   A    
Cu2   O6    S    
C32   H15   S    
C2    H14   S    
C15   H29   S    
C21   N2    A    
Cu2   N1    S    
C29   C30   A    
C18   C24   S    
C28   C29   A    
C4    O4    A    
Cu1   O1    S    
C5    C6    A    
C35   H22   S    
Cu1   O7    S    
C29   C33   S    
C20   N2    A    
C7    C36   S    
C3    H12   S    
C8    C9    A    
C40   H13   S    
C25   O8    A    
C7    C40   A    
C11   F1    S    
C35   H21   S    
C9    C10   A    
C25   C34   S    
C13   C14   A    
C17   H30   S    
C1    O2    A    
C31   H19   S    
C27   H8    S    
C23   H10   S    
C24   H7    S    
C1    C9    S    
C4    O3    A    
C28   C39   S    
C12   C26   A    
C37   C38   A    
C31   C32   S    
C23   C34   A    
Cu1   O5    S    
C16   O6    A    
C26   C27   A    
Cu2   O8    S    
C22   H6    S    
C37   H11   S    
C10   H27   S    
C4    C38   S    
Cu2   O2    S    
C17   H31   S    
C22   C24   S    
C32   H17   S    
C33   H24   S    
C15   C17   S    
C30   H9    S    
C36   C37   A    
C8    C14   A    
C12   C30   A    
C5    H23   S    
C3    C5    A    
Cu1   O3    S    
C19   H2    S    
C6    C7    A    
C15   H28   S    
C8    C17   S    
C19   N1    A    
C2    C3    A    
C24   C31   S    
C12   H1    S    
Cu1   N2    S    
C11   C13   A    
C38   C39   A    
C23   C39   A    
C16   O5    A    
C33   C35   S    
C34   C36   A    
C20   H4    S    
C10   C11   A    
C26   H3    S    
C2    C40   A    
C13   C16   S    
C27   C28   A    
C25   O7    A    
C14   C15   S    
C35   H20   S    
C32   H16   S    
C21   C22   S    
C33   H25   S    
