data_mof_unit_3139.cif
_audit_creation_date              2012-12-10T18:59:59-0500
_audit_creation_method            fapswitch 2.2
_symmetry_space_group_name_H-M    P1
_symmetry_Int_Tables_number       1
_space_group_crystal_system       triclinic
_cell_length_a                    10.730444
_cell_length_b                    10.672357
_cell_length_c                    9.816407
_cell_angle_alpha                 89.909274
_cell_angle_beta                  90.485758
_cell_angle_gamma                 90.098076
_cell_volume                      1124.12294926

loop_
_atom_site_label
_atom_site_type_symbol
_atom_type_description
_atom_site_fract_x
_atom_site_fract_y
_atom_site_fract_z
_atom_type_partial_charge
C1    C     C_R   0.498778 0.259882 0.499919 0.859336
C2    C     C_R   0.447510 0.063869 0.610962 -0.159088
C3    C     C_R   0.497061 0.872409 0.499229 0.005737
C4    C     C_R   0.496845 0.127500 0.499343 -0.023484
C5    C     C_R   0.554099 0.595914 0.072298 -0.057081
C6    C     C_R   0.445859 0.404134 0.927742 -0.081135
C7    C     C_R   0.554077 0.595852 0.928271 -0.056741
C8    C     C_R   0.445902 0.404273 0.071753 -0.081430
C9    C     C_R   0.260002 0.502314 0.499148 0.869465
C10   C     C_R   0.740098 0.497719 0.501008 0.884539
C11   C     C_R   0.230327 0.769332 0.140969 0.538123
C12   C     C_R   0.499232 0.740094 0.499893 0.854481
C13   C     C_R   0.774890 0.242841 0.873310 0.503544
C14   C     C_R   0.173676 0.724114 0.260063 0.051468
C15   C     C_R   0.830243 0.286069 0.751587 0.070039
C16   C     C_R   0.118737 0.603400 0.260362 0.032600
C17   C     C_R   0.882856 0.407022 0.744925 0.077297
C18   C     C_R   0.120628 0.530745 0.141294 -0.170247
C19   C     C_R   0.882829 0.483932 0.860306 -0.206179
C20   C     C_R   0.177943 0.575910 0.023941 -0.213029
C21   C     C_R   0.829946 0.442164 0.981062 -0.195003
C22   C     C_R   0.233902 0.693960 0.024032 -0.264466
C23   C     C_R   0.872621 0.497410 0.503143 -0.070659
C24   C     C_R   0.776215 0.323369 0.988529 -0.270517
C25   C     C_R   0.932378 0.544889 0.388151 -0.274285
C26   C     C_R   0.067963 0.458924 0.613326 -0.262643
C27   C     C_3   0.209528 0.972324 0.076501 0.106495
C28   C     C_3   0.268376 0.101684 0.085314 -0.851825
C29   C     C_3   0.660453 0.088104 0.991091 0.087594
C30   C     C_3   0.602304 0.959259 0.971943 -0.835598
C31   C     C_R   0.127631 0.505112 0.497866 -0.085287
C32   C     C_R   0.940354 0.454811 0.617973 0.057051
C33   C     C_R   0.060133 0.550431 0.384304 0.025501
C34   C     C_R   0.544769 0.064364 0.386926 -0.195745
C35   C     C_R   0.446781 0.935387 0.610373 -0.197884
C36   C     C_R   0.545429 0.936071 0.387247 -0.132301
H1    H     H_    0.280129 0.727174 0.933198 0.152380
H2    H     H_    0.120781 0.423587 0.699951 0.156549
H3    H     H_    0.583668 0.113950 0.300697 0.137337
H4    H     H_    0.406767 0.885393 0.695716 0.139360
H5    H     H_    0.585487 0.886746 0.301851 0.137974
H6    H     H_    0.408897 0.113180 0.697312 0.143758
H7    H     H_    0.597729 0.672333 0.127108 0.119741
H8    H     H_    0.402267 0.327647 0.873002 0.123208
H9    H     H_    0.116870 0.976237 0.126943 0.142067
H10   H     H_    0.196528 0.948505 0.966836 0.125270
H11   H     H_    0.358645 0.102282 0.031006 0.242159
H12   H     H_    0.736724 0.296514 0.085201 0.132665
H13   H     H_    0.205666 0.172091 0.037413 0.200027
H14   H     H_    0.284506 0.127476 0.193655 0.270193
H15   H     H_    0.584039 0.155613 0.011932 0.136051
H16   H     H_    0.726153 0.082525 0.079219 0.134567
H17   H     H_    0.676015 0.888682 0.952836 0.242227
H18   H     H_    0.550265 0.932141 0.064589 0.233727
H19   H     H_    0.536331 0.960846 0.884577 0.260893
H20   H     H_    0.077567 0.814687 0.406317 0.171790
H21   H     H_    0.217727 0.758305 0.457753 0.174030
H22   H     H_    0.882878 0.125187 0.660400 0.203616
H23   H     H_    0.597816 0.672046 0.873834 0.131029
H24   H     H_    0.743320 0.181487 0.607881 0.210957
H25   H     H_    0.402389 0.328284 0.126392 0.135681
H26   H     H_    0.079136 0.438136 0.140130 0.154386
H27   H     H_    0.923535 0.576822 0.856361 0.150170
H28   H     H_    0.180252 0.518620 0.933150 0.163744
H29   H     H_    0.830070 0.502559 0.069465 0.158898
H30   H     H_    0.879514 0.580771 0.301903 0.154869
N1    N     N_R   0.499970 0.499970 0.857200 -0.076593
N2    N     N_R   0.500030 0.500030 0.142800 -0.075487
N3    N     N_3   0.170526 0.803041 0.378012 -0.428666
N4    N     N_3   0.834489 0.206749 0.634011 -0.466834
O1    O     O_R   0.499990 0.316750 0.614620 -0.623978
O2    O     O_3   0.724693 0.121725 0.871500 -0.626978
O3    O     O_R   0.500010 0.683250 0.385380 -0.618806
O4    O     O_R   0.499990 0.316780 0.385290 -0.633513
O5    O     O_R   0.500010 0.683220 0.614710 -0.634385
O6    O     O_R   0.316760 0.500000 0.614660 -0.633320
O7    O     O_R   0.683240 0.500000 0.385340 -0.632926
O8    O     O_R   0.316760 0.500020 0.385330 -0.602183
O9    O     O_R   0.683240 0.499980 0.614670 -0.609031
O10   O     O_3   0.288479 0.884887 0.141871 -0.606357
Zn1   Zn    Zn3+2 0.500000 0.499980 0.653120 0.943870
Zn2   Zn    Zn3+2 0.500000 0.500020 0.346880 0.947225

loop_
_geom_bond_atom_site_label_1
_geom_bond_atom_site_label_2
_ccdc_geom_bond_type
C2    C35   A    
C28   H11   S    
C26   C32   A    
C30   H18   S    
C1    O1    A    
C1    O4    A    
O7    Zn2   S    
C19   C21   A    
C11   C14   A    
C3    C12   S    
C28   H14   S    
C19   H27   S    
C31   C33   A    
C9    O6    A    
H24   N4    S    
C18   C20   A    
C8    H25   S    
C29   O2    S    
C27   H9    S    
C5    H7    S    
C26   C31   A    
C6    H8    S    
C12   O3    A    
C36   H5    S    
O4    Zn2   S    
C5    N2    A    
C7    H23   S    
C10   O7    A    
C30   H17   S    
C4    C34   A    
C34   H3    S    
C24   H12   S    
C27   O10   S    
O9    Zn1   S    
H22   N4    S    
C6    C8    A    
C22   H1    S    
C13   C24   A    
C20   H28   S    
C2    C4    A    
C29   C30   S    
C16   C33   S    
C28   H13   S    
O8    Zn2   S    
C3    C35   A    
C27   H10   S    
C6    N1    A    
C20   C22   A    
N1    Zn1   S    
C13   C15   A    
C14   N3    S    
C14   C16   A    
C21   C24   A    
O3    Zn2   S    
C5    C7    A    
C29   H15   S    
C15   C17   A    
C15   N4    S    
C21   H29   S    
C26   H2    S    
C25   H30   S    
O6    Zn1   S    
C10   O9    A    
C8    N2    A    
C13   O2    S    
O5    Zn1   S    
C10   C23   S    
C30   H19   S    
C11   C22   A    
C1    C4    S    
N2    Zn2   S    
C23   C32   A    
C35   H4    S    
C3    C36   A    
C2    H6    S    
C17   C19   A    
C34   C36   A    
C9    O8    A    
C23   C25   A    
C11   O10   S    
C9    C31   S    
C7    N1    A    
C16   C18   A    
H20   N3    S    
C12   O5    A    
C27   C28   S    
C17   C32   S    
C18   H26   S    
H21   N3    S    
C25   C33   A    
O1    Zn1   S    
C29   H16   S    
