data_mof_unit_1369.cif
_audit_creation_date              2012-12-10T20:28:40-0500
_audit_creation_method            fapswitch 2.2
_symmetry_space_group_name_H-M    P1
_symmetry_Int_Tables_number       1
_space_group_crystal_system       triclinic
_cell_length_a                    10.607838
_cell_length_b                    10.660612
_cell_length_c                    9.906571
_cell_angle_alpha                 90.295824
_cell_angle_beta                  87.229366
_cell_angle_gamma                 91.083549
_cell_volume                      1118.77513817

loop_
_atom_site_label
_atom_site_type_symbol
_atom_type_description
_atom_site_fract_x
_atom_site_fract_y
_atom_site_fract_z
_atom_type_partial_charge
C1    C     C_R   0.498918 0.260626 0.499511 0.878521
C2    C     C_R   0.062363 0.623846 0.542940 0.018527
C3    C     C_R   0.127027 0.510350 0.517783 -0.047344
C4    C     C_R   0.063895 0.399367 0.485124 -0.199642
C5    C     C_R   0.935279 0.399589 0.476855 -0.189957
C6    C     C_R   0.873457 0.513399 0.483815 -0.038490
C7    C     C_R   0.589431 0.065534 0.563948 0.098891
C8    C     C_R   0.499653 0.129076 0.495599 -0.121914
C9    C     C_R   0.418438 0.064856 0.411003 -0.251169
C10   C     C_R   0.414697 0.934945 0.411861 0.263461
C11   C     C_R   0.494256 0.871712 0.497829 -0.122907
C12   C     C_R   0.260378 0.507380 0.504506 0.890587
C13   C     C_R   0.586981 0.937701 0.564850 0.093543
C14   C     C_3   0.625258 0.932955 0.707751 -0.387703
C15   C     C_3   0.627121 0.075178 0.706709 -0.480619
C16   C     C_R   0.399482 0.451229 0.075771 0.248183
C17   C     C_R   0.592130 0.560019 0.068882 -0.117311
C18   C     C_R   0.592193 0.561554 0.926092 0.302101
C19   C     C_R   0.399316 0.451422 0.933684 0.217843
C20   C     C_3   0.348099 0.320438 0.929962 -0.488943
C21   C     C_3   0.348961 0.319969 0.083422 -0.495518
C22   C     C_R   0.495283 0.739478 0.500271 0.965884
C23   C     C_R   0.739910 0.506701 0.495889 0.908568
C24   C     C_R   0.113502 0.733498 0.604467 0.262690
C25   C     C_R   0.054039 0.848326 0.591555 -0.151715
C26   C     C_R   0.946618 0.856159 0.517803 -0.183106
C27   C     C_R   0.888865 0.747256 0.470078 0.237838
C28   C     C_R   0.939165 0.628552 0.498499 0.026736
H1    H     H_    0.114173 0.312486 0.468946 0.137756
H2    H     H_    0.721154 0.894473 0.714875 0.239583
H3    H     H_    0.553002 0.115936 0.775491 0.217882
H4    H     H_    0.723249 0.117174 0.714458 0.208901
H5    H     H_    0.251468 0.315936 0.891306 0.222878
H6    H     H_    0.415593 0.254106 0.881200 0.209305
H7    H     H_    0.252841 0.314774 0.133223 0.218828
H8    H     H_    0.417585 0.253592 0.123262 0.222613
H9    H     H_    0.092526 0.932442 0.636948 0.176319
H10   H     H_    0.908370 0.947223 0.497382 0.173251
H11   H     H_    0.884088 0.311815 0.462834 0.140157
H12   H     H_    0.353606 0.115299 0.350732 0.175149
H13   H     H_    0.550810 0.891593 0.777842 0.251143
N1    N     N_R   0.499160 0.499140 0.142800 -0.135244
N2    N     N_R   0.499160 0.499180 0.857150 -0.135059
O1    O     O_R   0.500020 0.316790 0.614690 -0.628109
O2    O     O_R   0.500000 0.316760 0.385350 -0.625781
O3    O     O_R   0.316770 0.500020 0.614690 -0.590414
O4    O     O_R   0.316760 0.499980 0.385350 -0.600727
O5    O     O_R   0.500000 0.683240 0.614650 -0.579515
O6    O     O_R   0.499980 0.683210 0.385310 -0.560863
O7    O     O_R   0.683240 0.500020 0.614650 -0.575779
O8    O     O_R   0.683230 0.499980 0.385310 -0.602544
Zn1   Zn    Zn3+2 0.500010 0.500020 0.653130 1.013710
Zn2   Zn    Zn3+2 0.499990 0.499980 0.346870 1.008152
H14   H     H_    0.667654 0.606203 0.120351 0.220653
Br1   Br    Br    0.727760 0.655316 0.839432 -0.488831
Br2   Br    Br    0.236726 0.731942 0.739420 -0.476605
Br3   Br    Br    0.774864 0.770645 0.329367 -0.504106
Br4   Br    Br    0.291644 0.851049 0.305179 -0.469739

loop_
_geom_bond_atom_site_label_1
_geom_bond_atom_site_label_2
_ccdc_geom_bond_type
C7    C13   A    
O7    Zn1   S    
C15   H3    S    
C16   C21   S    
C21   H7    S    
C16   N1    A    
C24   Br2   S    
C1    C8    S    
C9    C10   A    
C11   C22   S    
C23   O8    A    
C19   C20   S    
O5    Zn1   S    
O4    Zn2   S    
C20   H6    S    
O1    Zn1   S    
C7    C15   S    
C17   C18   A    
O2    Zn2   S    
C15   H4    S    
C21   H8    S    
C18   N2    A    
C24   C25   A    
C4    C5    A    
C11   C13   A    
C1    O2    A    
C26   C27   A    
C18   Br1   S    
C14   H2    S    
C12   O4    A    
O6    Zn2   S    
C6    C23   S    
C10   Br4   S    
C19   N2    A    
C22   O5    A    
C2    C3    A    
C14   H13   S    
N1    Zn2   S    
C2    C24   A    
C5    C6    A    
N2    Zn1   S    
C10   C11   A    
C20   H5    S    
C3    C4    A    
O3    Zn1   S    
C7    C8    A    
C20   C21   S    
C12   O3    A    
C17   N1    A    
C27   Br3   S    
C22   O6    A    
C27   C28   A    
C5    H11   S    
C14   C15   S    
C26   H10   S    
C23   O7    A    
C2    C28   A    
C3    C12   S    
C1    O1    A    
C25   H9    S    
C25   C26   A    
C13   C14   S    
C17   H14   S    
C9    H12   S    
C6    C28   A    
C4    H1    S    
C8    C9    A    
O8    Zn2   S    
C16   C19   A    
