data_mof_unit_3378.cif
_audit_creation_date              2012-12-10T19:45:03-0500
_audit_creation_method            fapswitch 2.2
_symmetry_space_group_name_H-M    P1
_symmetry_Int_Tables_number       1
_space_group_crystal_system       triclinic
_cell_length_a                    15.077227
_cell_length_b                    10.843502
_cell_length_c                    13.680243
_cell_angle_alpha                 89.856544
_cell_angle_beta                  89.854713
_cell_angle_gamma                 89.805956
_cell_volume                      2236.55514312

loop_
_atom_site_label
_atom_site_type_symbol
_atom_type_description
_atom_site_fract_x
_atom_site_fract_y
_atom_site_fract_z
_atom_type_partial_charge
C1    C     C_R   0.498707 0.262151 0.499993 0.887686
C2    C     C_R   0.589210 0.874940 0.659248 0.232843
C3    C     C_R   0.447195 0.123107 0.246130 -0.154195
C4    C     C_R   0.552810 0.876846 0.753859 -0.154186
C5    C     C_R   0.405207 0.186292 0.169869 -0.218239
C6    C     C_R   0.594811 0.813654 0.830109 -0.218240
C7    C     C_R   0.326500 0.251135 0.187419 0.682909
C8    C     C_R   0.673534 0.748850 0.812547 0.682919
C9    C     C_R   0.460932 0.934682 0.423111 0.575862
C10   C     C_R   0.539062 0.065316 0.576890 0.575875
C11   C     C_R   0.502639 0.871688 0.500145 -0.303076
C12   C     C_R   0.501291 0.737849 0.500007 0.887694
C13   C     C_R   0.497356 0.128312 0.499855 -0.303077
C14   C     C_R   0.542344 0.937306 0.577637 -0.174787
C15   C     C_R   0.457652 0.062694 0.422361 -0.174778
C16   C     C_R   0.328456 0.500314 0.500105 0.815735
C17   C     C_R   0.671544 0.499687 0.499895 0.815745
C18   C     C_R   0.558287 0.425957 0.793150 0.103882
C19   C     C_R   0.441713 0.574043 0.206850 0.103863
C20   C     C_R   0.441869 0.574066 0.793263 0.043996
C21   C     C_R   0.558130 0.425933 0.206737 0.043997
C22   C     C_R   0.440570 0.575897 0.896313 -0.063593
C23   C     C_R   0.045794 0.469181 0.676561 -0.189727
C24   C     C_R   0.559429 0.424102 0.103687 -0.063587
C25   C     C_R   0.500085 0.499944 0.948156 0.023990
C26   C     C_R   0.499914 0.500055 0.051844 0.024005
C27   C     C_R   0.559746 0.423911 0.896346 -0.090194
C28   C     C_R   0.440253 0.576089 0.103654 -0.090188
C29   C     C_R   0.381447 0.651748 0.948417 -0.272301
C30   C     C_R   0.618552 0.348251 0.051582 -0.272308
C31   C     C_R   0.381099 0.651955 0.051141 0.642200
C32   C     C_R   0.618900 0.348044 0.948859 0.642206
C33   C     C_R   0.814875 0.514611 0.411678 -0.234176
C34   C     C_R   0.954205 0.530818 0.323438 -0.189727
C35   C     C_R   0.185125 0.485394 0.588323 -0.234170
C36   C     C_R   0.768352 0.499080 0.499755 -0.076832
C37   C     C_R   0.231648 0.500922 0.500245 -0.076828
C38   C     C_R   0.814497 0.483012 0.587794 -0.228998
C39   C     C_R   0.185503 0.516985 0.412205 -0.228999
C40   C     C_R   0.906866 0.483623 0.588564 0.093725
C41   C     C_R   0.093134 0.516373 0.411434 0.093734
C42   C     C_R   0.953515 0.499677 0.499929 0.066478
C43   C     C_R   0.046485 0.500321 0.500070 0.066478
C44   C     C_R   0.907286 0.515045 0.411146 0.101276
C45   C     C_R   0.289262 0.251956 0.281125 -0.198032
C46   C     C_R   0.092713 0.484956 0.588853 0.101276
C47   C     C_R   0.953322 0.468518 0.676416 -0.176169
C48   C     C_R   0.046678 0.531478 0.323582 -0.176175
C49   C     C_R   0.710774 0.748072 0.718841 -0.198042
C50   C     C_R   0.331256 0.189426 0.357743 -0.207456
C51   C     C_R   0.668767 0.810608 0.642234 -0.207500
C52   C     C_R   0.410799 0.125058 0.340741 0.232816
Cu1   Cu    Cu3+1 0.500010 0.499980 0.597420 0.973097
Cu2   Cu    Cu3+1 0.499990 0.500020 0.402580 0.973091
F1    F     F_    0.419656 0.871594 0.350452 -0.642236
F2    F     F_    0.580337 0.128404 0.649551 -0.642230
F3    F     F_    0.322975 0.726420 0.098975 -0.644017
F4    F     F_    0.677025 0.273579 0.901025 -0.644014
F5    F     F_    0.286333 0.313296 0.113587 -0.663355
F6    F     F_    0.713713 0.686684 0.886368 -0.663355
H1    H     H_    0.779292 0.526988 0.343546 0.163627
H2    H     H_    0.221372 0.530089 0.344172 0.175861
H3    H     H_    0.918140 0.456261 0.744916 0.178024
H4    H     H_    0.081860 0.543733 0.255082 0.178015
H5    H     H_    0.080610 0.457334 0.745169 0.164314
H6    H     H_    0.919390 0.542667 0.254831 0.164313
H7    H     H_    0.227959 0.301262 0.294476 0.159636
H8    H     H_    0.772089 0.698796 0.705480 0.159647
H9    H     H_    0.302385 0.191966 0.430298 0.140835
H10   H     H_    0.697639 0.808101 0.569678 0.140848
H11   H     H_    0.508736 0.074464 0.231946 0.161552
H12   H     H_    0.220707 0.473022 0.656456 0.163628
H13   H     H_    0.491256 0.925458 0.768051 0.161529
H14   H     H_    0.434102 0.185722 0.097351 0.168709
H15   H     H_    0.565913 0.814188 0.902627 0.168697
H16   H     H_    0.603523 0.368422 0.751813 0.208288
H17   H     H_    0.396477 0.631578 0.248187 0.208290
H18   H     H_    0.396737 0.632191 0.752275 0.131420
H19   H     H_    0.603263 0.367808 0.247724 0.131422
H20   H     H_    0.335387 0.710974 0.909607 0.170141
H21   H     H_    0.664612 0.289024 0.090393 0.170141
H22   H     H_    0.778627 0.469906 0.655826 0.175876
N1    N     N_R   0.499960 0.499900 0.743810 -0.211001
N2    N     N_R   0.500040 0.500100 0.256190 -0.211002
O1    O     O_R   0.500000 0.319630 0.582270 -0.528468
O2    O     O_R   0.500000 0.680370 0.417730 -0.528473
O3    O     O_R   0.499990 0.319660 0.417730 -0.600227
O4    O     O_R   0.500010 0.680340 0.582270 -0.600229
O5    O     O_R   0.370260 0.499960 0.582280 -0.597795
O6    O     O_R   0.629740 0.500040 0.417720 -0.597797
O7    O     O_R   0.370250 0.499990 0.417740 -0.591210
O8    O     O_R   0.629750 0.500010 0.582260 -0.591208

loop_
_geom_bond_atom_site_label_1
_geom_bond_atom_site_label_2
_ccdc_geom_bond_type
C1    O3    A    
C40   C47   A    
C30   C32   A    
C49   H8    S    
C3    H11   S    
C32   F4    S    
C34   H6    S    
Cu2   N2    S    
C6    H15   S    
C39   C41   A    
Cu1   Cu2   S    
C7    C45   A    
C22   C29   A    
C50   H9    S    
C24   C26   A    
Cu2   O6    S    
C47   H3    S    
Cu2   O3    S    
C11   C14   A    
C48   H4    S    
C33   C36   A    
C5    H14   S    
C19   H17   S    
C49   C51   A    
C22   C25   A    
C45   H7    S    
C50   C52   A    
C9    F1    S    
C51   H10   S    
C10   F2    S    
C16   C37   S    
C40   C42   A    
C16   O5    A    
C23   C46   A    
C38   H22   S    
C41   C43   A    
C17   O8    A    
C42   C44   A    
C7    F5    S    
C17   O6    A    
C1    O1    A    
C37   C39   A    
C23   C47   A    
C12   O4    A    
C34   C44   A    
C4    C6    A    
C10   C14   A    
Cu2   O2    S    
C6    C8    A    
C25   C26   A    
C2    C4    A    
C21   N2    A    
C3    C52   A    
C21   H19   S    
Cu1   O8    S    
C18   N1    A    
C15   C52   S    
C19   C28   A    
C9    C11   A    
C4    H13   S    
C17   C36   S    
C20   C22   A    
C35   H12   S    
C13   C15   A    
Cu1   O5    S    
C21   C24   A    
C1    C13   S    
C42   C43   A    
C19   N2    A    
C5    C7    A    
C39   H2    S    
C18   H16   S    
C35   C37   A    
C27   C32   A    
C33   C44   A    
C28   C31   A    
C18   C27   A    
C3    C5    A    
C10   C13   A    
C11   C12   S    
C20   H18   S    
C25   C27   A    
C26   C28   A    
C12   O2    A    
Cu1   N1    S    
C23   H5    S    
C30   H21   S    
C36   C38   A    
C9    C15   A    
Cu2   O7    S    
C29   C31   A    
C8    F6    S    
C38   C40   A    
C31   F3    S    
C29   H20   S    
C45   C50   A    
C41   C48   A    
Cu1   O4    S    
C2    C14   S    
C43   C46   A    
C24   C30   A    
C2    C51   A    
C34   C48   A    
C16   O7    A    
C33   H1    S    
C20   N1    A    
Cu1   O1    S    
C35   C46   A    
C8    C49   A    
