data_mof_unit_3702.cif
_audit_creation_date              2012-12-10T17:03:58-0500
_audit_creation_method            fapswitch 2.2
_symmetry_space_group_name_H-M    P1
_symmetry_Int_Tables_number       1
_space_group_crystal_system       triclinic
_cell_length_a                    9.803393
_cell_length_b                    11.045767
_cell_length_c                    15.771251
_cell_angle_alpha                 94.70336
_cell_angle_beta                  79.137399
_cell_angle_gamma                 111.268672
_cell_volume                      1562.79658662

loop_
_atom_site_label
_atom_site_type_symbol
_atom_type_description
_atom_site_fract_x
_atom_site_fract_y
_atom_site_fract_z
_atom_type_partial_charge
C1    C     C_R   0.556161 0.745413 0.506131 0.923134
C2    C     C_R   0.443912 0.254592 0.493747 0.854057
C3    C     C_R   0.324915 0.456824 0.078422 -0.238313
C4    C     C_R   0.669372 0.512200 0.920368 -0.238091
C5    C     C_R   0.220875 0.423460 0.023384 -0.211869
C6    C     C_R   0.766032 0.510498 0.974250 -0.206555
C7    C     C_2   0.587879 0.884528 0.509396 -0.312635
C8    C     C_2   0.412400 0.115475 0.490113 -0.339887
C9    C     C_2   0.484731 0.930569 0.497684 -0.126374
C10   C     C_2   0.516000 0.069469 0.501044 -0.153676
C11   C     C_2   0.923310 0.490265 0.492383 -0.080195
C12   C     C_2   0.076817 0.509941 0.507496 -0.061342
C13   C     C_R   0.412411 0.491723 0.663075 0.850440
C14   C     C_R   0.589845 0.518446 0.337236 0.847646
C15   C     C_R   0.360353 0.489077 0.757097 -0.054571
C16   C     C_R   0.644416 0.532503 0.243569 -0.052823
C17   C     C_R   0.162757 0.408021 0.879198 -0.201488
C18   C     C_R   0.820580 0.511360 0.118100 -0.191563
C19   C     C_R   0.210011 0.423555 0.790420 -0.229321
C20   C     C_R   0.776364 0.511555 0.207421 -0.226392
C21   C     C_R   0.462655 0.543720 0.814580 -0.068130
C22   C     C_R   0.559420 0.558034 0.188666 -0.073160
C23   C     C_R   0.420677 0.500923 0.900952 0.000407
C24   C     C_R   0.585749 0.526428 0.099816 -0.001697
C25   C     C_R   0.267281 0.444617 0.934781 0.170130
C26   C     C_R   0.725199 0.516817 0.063823 0.167905
C27   C     C_R   0.525287 0.511352 0.954878 0.063079
C28   C     C_R   0.478625 0.503638 0.045444 0.063935
Cu1   Cu    Cu3+1 0.362980 0.479380 0.485080 0.970123
Cu2   Cu    Cu3+1 0.637020 0.520620 0.514920 0.974229
H1    H     H_    0.045441 0.361300 0.903931 0.135706
H2    H     H_    0.925760 0.500402 0.091474 0.133008
N1    N     N_2   0.842890 0.551600 0.537350 -0.281374
N2    N     N_2   0.157110 0.448400 0.462650 -0.280461
O1    O     O_R   0.426810 0.668300 0.492040 -0.564924
O2    O     O_R   0.573190 0.331700 0.507960 -0.584430
O3    O     O_R   0.658240 0.703130 0.517240 -0.554242
O4    O     O_R   0.341760 0.296870 0.482760 -0.578187
O5    O     O_R   0.319390 0.472820 0.610170 -0.598357
O6    O     O_R   0.680610 0.527180 0.389830 -0.595579
O7    O     O_R   0.550820 0.507640 0.635370 -0.541330
O8    O     O_R   0.449180 0.492360 0.364630 -0.543357
H3    H     H_    0.103891 0.380958 0.050232 0.134879
H4    H     H_    0.873029 0.504481 0.945753 0.140597
C29   C     C_2   0.469472 0.642820 0.218443 0.349907
H5    H     H_    0.400704 0.658975 0.177549 0.080142
O9    O     O_2   0.480645 0.705223 0.285998 -0.535956
C30   C     C_2   0.596415 0.663631 0.791466 0.338854
H6    H     H_    0.676257 0.703942 0.834624 0.083395
O10   O     O_2   0.613096 0.725931 0.727412 -0.543627
H7    H     H_    0.845708 0.495961 0.248200 0.157384
H8    H     H_    0.128941 0.384534 0.747858 0.163964
H9    H     H_    0.284098 0.436310 0.146355 0.142747
H10   H     H_    0.704294 0.504280 0.851465 0.145130
H11   H     H_    0.624813 0.134471 0.512708 0.180152
H12   H     H_    0.376160 0.865586 0.485621 0.187334
H13   H     H_    0.303771 0.050188 0.478469 0.154766
H14   H     H_    0.696262 0.949780 0.521450 0.149689
H15   H     H_    0.122151 0.577898 0.557563 0.157172
H16   H     H_    0.878055 0.422436 0.442236 0.155897
H17   H     H_    0.111552 0.384598 0.415396 0.190497
H18   H     H_    0.888356 0.615302 0.584675 0.203597

loop_
_geom_bond_atom_site_label_1
_geom_bond_atom_site_label_2
_ccdc_geom_bond_type
Cu1   O4    S    
C11   C12   S    
Cu2   O7    S    
Cu1   Cu2   S    
C14   C16   S    
C23   C27   A    
C8    H13   S    
C9    C10   S    
Cu1   O1    S    
C7    H14   S    
C18   C26   A    
C16   C20   A    
C14   O8    A    
C21   C30   S    
C17   C25   A    
Cu1   O5    S    
C13   O7    A    
C5    H3    S    
Cu2   O6    S    
C9    H12   S    
C6    H4    S    
C29   H5    S    
C15   C19   A    
C10   H11   S    
C3    H9    S    
C6    C26   A    
C5    C25   A    
Cu1   N2    S    
C30   O10   D    
C3    C28   A    
C17   C19   A    
C17   H1    S    
C24   C26   A    
N1    H18   S    
C20   H7    S    
C18   C20   A    
C13   C15   S    
C21   C23   A    
Cu1   O8    S    
C22   C24   A    
C13   O5    A    
C4    C6    A    
C18   H2    S    
C14   O6    A    
C11   H16   S    
C15   C21   A    
C23   C25   A    
C2    O2    A    
C1    O1    A    
C8    C10   D    
C22   C29   S    
C29   O9    D    
C11   N1    D    
C27   C28   A    
C7    C9    D    
C2    O4    A    
C30   H6    S    
C16   C22   A    
C4    C27   A    
Cu2   N1    S    
C4    H10   S    
C1    C7    S    
C12   H15   S    
C12   N2    D    
C19   H8    S    
N2    H17   S    
C2    C8    S    
C24   C28   A    
Cu2   O3    S    
C1    O3    A    
C3    C5    A    
Cu2   O2    S    
