data_mof_unit_1016.cif
_audit_creation_date              2012-12-10T18:27:25-0500
_audit_creation_method            fapswitch 2.2
_symmetry_space_group_name_H-M    P1
_symmetry_Int_Tables_number       1
_space_group_crystal_system       triclinic
_cell_length_a                    14.884262
_cell_length_b                    14.12518
_cell_length_c                    27.691914
_cell_angle_alpha                 89.918317
_cell_angle_beta                  90.343356
_cell_angle_gamma                 90.243406
_cell_volume                      5821.86496597

loop_
_atom_site_label
_atom_site_type_symbol
_atom_type_description
_atom_site_fract_x
_atom_site_fract_y
_atom_site_fract_z
_atom_type_partial_charge
C1    C     C_R   0.327340 0.499617 0.499173 1.028072
C2    C     C_R   0.428847 0.517752 0.873517 -0.221281
C3    C     C_3   0.837599 0.763511 0.189696 -0.913334
C4    C     C_3   0.303546 0.684916 0.986642 0.076620
C5    C     C_3   0.300792 0.697576 0.041489 -0.335791
C6    C     C_3   0.307409 0.801816 0.055498 -0.909496
C7    C     C_3   0.725839 0.654364 0.007326 0.047138
C8    C     C_3   0.814200 0.703457 0.994565 -0.277921
C9    C     C_3   0.797898 0.799726 0.971108 -0.929925
C10   C     C_R   0.502165 0.498815 0.352974 -0.170299
C11   C     C_R   0.500404 0.499174 0.647028 -0.159409
C12   C     C_R   0.428357 0.510765 0.974836 -0.097880
C13   C     C_R   0.591546 0.501698 0.025565 -0.112125
C14   C     C_R   0.591081 0.483709 0.975293 0.012013
C15   C     C_R   0.427009 0.489638 0.024665 0.025404
C16   C     C_R   0.509525 0.497597 0.949704 -0.038494
C17   C     C_R   0.509284 0.494549 0.050496 -0.033725
C18   C     C_R   0.353908 0.549396 0.949716 0.450866
C19   C     C_R   0.672642 0.500006 0.500549 1.026477
C20   C     C_R   0.669349 0.530761 0.051559 0.434331
C21   C     C_R   0.353476 0.551859 0.899062 0.419706
C22   C     C_R   0.669580 0.528692 0.102206 0.429157
C23   C     C_R   0.500596 0.500113 0.405944 0.957368
C24   C     C_R   0.499552 0.500065 0.594054 0.961083
C25   C     C_R   0.348338 0.461525 0.049556 0.411711
C26   C     C_R   0.667023 0.450889 0.949644 0.409806
C27   C     C_R   0.811009 0.512506 0.454944 0.308084
C28   C     C_R   0.188407 0.511026 0.544046 0.295743
C29   C     C_R   0.767906 0.499885 0.499250 -0.239067
C30   C     C_R   0.509262 0.491600 0.101240 -0.129960
C31   C     C_R   0.232010 0.498704 0.499958 -0.236648
C32   C     C_R   0.814131 0.489581 0.542775 0.361083
C33   C     C_R   0.186330 0.488748 0.456194 0.367586
C34   C     C_R   0.906492 0.505553 0.542941 -0.025112
C35   C     C_R   0.093733 0.503024 0.455574 -0.024199
C36   C     C_R   0.952944 0.509910 0.498691 -0.052539
C37   C     C_R   0.047044 0.510406 0.499591 -0.054254
C38   C     C_R   0.905457 0.511880 0.453830 -0.044940
C39   C     C_R   0.094227 0.517156 0.544414 -0.059049
C40   C     C_R   0.952345 0.519925 0.586467 -0.316576
C41   C     C_R   0.508684 0.496783 0.898972 -0.126578
C42   C     C_R   0.047701 0.511399 0.411703 -0.315903
C43   C     C_R   0.045126 0.531673 0.587405 0.541220
C44   C     C_R   0.954372 0.513831 0.410078 0.525047
C45   C     C_R   0.578977 0.799695 0.505477 0.555893
C46   C     C_R   0.424304 0.200870 0.513079 0.500688
C47   C     C_R   0.421023 0.799162 0.494690 0.547856
C48   C     C_R   0.575872 0.201600 0.487057 0.502584
C49   C     C_R   0.428638 0.473497 0.176166 0.619536
C50   C     C_R   0.585390 0.472558 0.823399 0.617493
C51   C     C_R   0.418363 0.899271 0.501300 -0.200588
C52   C     C_R   0.428161 0.474842 0.125817 -0.058339
C53   C     C_R   0.580935 0.101677 0.493312 -0.194737
C54   C     C_R   0.581733 0.899925 0.498919 -0.206273
C55   C     C_R   0.419215 0.100950 0.506798 -0.199191
C56   C     C_R   0.500053 0.950100 0.500046 -0.098034
C57   C     C_R   0.500061 0.050829 0.500017 -0.091277
C58   C     C_R   0.336880 0.949932 0.507015 0.371386
C59   C     C_R   0.663000 0.051123 0.491562 0.335467
C60   C     C_R   0.663269 0.951329 0.493460 0.374086
C61   C     C_R   0.337183 0.049710 0.508776 0.338830
C62   C     C_R   0.587872 0.495572 0.177845 0.599596
C63   C     C_R   0.587420 0.473546 0.873807 -0.056494
C64   C     C_R   0.428277 0.506390 0.823183 0.592832
C65   C     C_R   0.522935 0.573610 0.275094 -0.238910
C66   C     C_R   0.487827 0.576066 0.724729 -0.233170
C67   C     C_R   0.521916 0.580351 0.325145 0.408664
C68   C     C_R   0.483548 0.581333 0.674699 0.401497
C69   C     C_R   0.485202 0.412215 0.329466 -0.369387
C70   C     C_R   0.518393 0.413077 0.670746 -0.365204
C71   C     C_R   0.487882 0.405917 0.279506 0.469848
C72   C     C_R   0.519963 0.407976 0.720809 0.477074
C73   C     C_R   0.506095 0.487172 0.252284 0.151484
C74   C     C_R   0.349046 0.457152 0.099739 -0.216683
C75   C     C_R   0.505730 0.490176 0.747861 0.151829
C76   C     C_3   0.783041 0.388027 0.606167 0.048800
C77   C     C_3   0.720428 0.312423 0.584860 -0.341305
C78   C     C_3   0.727568 0.219014 0.612280 -0.847861
C79   C     C_3   0.218094 0.384872 0.394000 0.036323
C80   C     C_3   0.281342 0.310725 0.415637 -0.330314
C81   C     C_3   0.274534 0.216672 0.388844 -0.854435
C82   C     C_3   0.069104 0.644448 0.646083 0.069116
C83   C     C_3   0.139140 0.713432 0.625674 -0.282694
C84   C     C_3   0.121466 0.814617 0.642195 -0.843924
C85   C     C_R   0.665303 0.448889 0.899370 -0.200406
C86   C     C_3   0.916610 0.435343 0.340769 0.079367
C87   C     C_3   0.861370 0.442827 0.294194 -0.252048
C88   C     C_3   0.868185 0.352882 0.264026 -0.898591
C89   C     C_3   0.662355 0.756624 0.570611 0.120522
C90   C     C_3   0.758336 0.732638 0.586084 -0.291264
C91   C     C_3   0.764200 0.711723 0.640087 -0.907334
C92   C     C_3   0.373907 0.259232 0.584869 0.170710
C93   C     C_3   0.316674 0.191186 0.614862 -0.376647
C94   C     C_3   0.332006 0.206883 0.668810 -0.835776
C95   C     C_3   0.336467 0.754837 0.430063 0.119306
C96   C     C_R   0.590203 0.504248 0.127290 -0.213820
C97   C     C_3   0.239464 0.732759 0.415384 -0.287401
C98   C     C_3   0.231724 0.709497 0.361725 -0.882705
C99   C     C_3   0.628718 0.263541 0.416245 0.160796
C100  C     C_3   0.688795 0.199738 0.385893 -0.370721
C101  C     C_3   0.673443 0.216977 0.332061 -0.883647
C102  C     C_3   0.292710 0.677156 0.858181 0.125968
C103  C     C_3   0.213776 0.706389 0.825999 -0.268442
C104  C     C_3   0.227732 0.805190 0.804900 -0.940102
C105  C     C_3   0.752266 0.644066 0.139446 0.129617
C106  C     C_3   0.830359 0.659897 0.174611 -0.284602
Cl1   Cl    Cl    0.233523 0.890811 0.517733 -0.529572
Cl2   Cl    Cl    0.758344 0.393177 0.977879 -0.494599
Cl3   Cl    Cl    0.742996 0.528958 0.402610 -0.561259
Cl4   Cl    Cl    0.254926 0.510175 0.597615 -0.578206
Cl5   Cl    Cl    0.768249 0.110506 0.492433 -0.537976
Cl6   Cl    Cl    0.766804 0.893078 0.483433 -0.462932
Cl7   Cl    Cl    0.232033 0.108326 0.508161 -0.533072
Cl8   Cl    Cl    0.469918 0.295284 0.251881 -0.587132
Cl9   Cl    Cl    0.537104 0.297420 0.748678 -0.581478
Cl10  Cl    Cl    0.452557 0.691619 0.649778 -0.612043
Cl11  Cl    Cl    0.549118 0.691816 0.350053 -0.563189
Cl12  Cl    Cl    0.252889 0.413520 0.020186 -0.494125
H1    H     H_    0.469980 0.348703 0.349772 0.192553
H2    H     H_    0.854071 0.364613 0.602626 0.160110
H3    H     H_    0.650031 0.337208 0.586544 0.246302
H4    H     H_    0.738448 0.300126 0.546561 0.285912
H5    H     H_    0.797289 0.191536 0.610599 0.289387
H6    H     H_    0.681438 0.166104 0.595700 0.269925
H7    H     H_    0.708223 0.228903 0.650622 0.272948
H8    H     H_    0.230620 0.389793 0.354561 0.191192
H9    H     H_    0.147372 0.360225 0.398109 0.142720
H10   H     H_    0.351529 0.336551 0.413589 0.245714
H11   H     H_    0.263690 0.298885 0.454053 0.286729
H12   H     H_    0.530989 0.349046 0.650530 0.189148
H13   H     H_    0.205008 0.188126 0.390895 0.288486
H14   H     H_    0.321153 0.164817 0.405631 0.271230
H15   H     H_    0.293452 0.226112 0.350385 0.271392
H16   H     H_    0.073647 0.646215 0.686131 0.181539
H17   H     H_    0.000092 0.668884 0.636594 0.111072
H18   H     H_    0.207240 0.692278 0.638158 0.292186
H19   H     H_    0.137424 0.711252 0.585563 0.249942
H20   H     H_    0.054620 0.838589 0.629108 0.271137
H21   H     H_    0.173740 0.862561 0.627291 0.307868
H22   H     H_    0.123838 0.818927 0.682238 0.246385
H23   H     H_    0.916230 0.524070 0.620254 0.190949
H24   H     H_    0.888194 0.376889 0.363211 0.147026
H25   H     H_    0.987251 0.418280 0.331170 0.123277
H26   H     H_    0.789720 0.455409 0.303170 0.269330
H27   H     H_    0.886044 0.503764 0.272493 0.232477
H28   H     H_    0.938634 0.341843 0.252359 0.269032
H29   H     H_    0.824853 0.359451 0.231417 0.307395
H30   H     H_    0.845656 0.290496 0.285233 0.261705
H31   H     H_    0.615404 0.704345 0.586620 0.197934
H32   H     H_    0.646417 0.828206 0.585275 0.121223
H33   H     H_    0.781882 0.670128 0.565817 0.257496
H34   H     H_    0.084115 0.515493 0.378008 0.188551
H35   H     H_    0.803609 0.792939 0.577364 0.251168
H36   H     H_    0.741312 0.773857 0.661175 0.271283
H37   H     H_    0.834844 0.696015 0.650205 0.254577
H38   H     H_    0.721965 0.649246 0.649259 0.288092
H39   H     H_    0.355679 0.332487 0.595169 0.218152
H40   H     H_    0.446260 0.249623 0.594693 0.101948
H41   H     H_    0.244450 0.202433 0.606313 0.283511
H42   H     H_    0.334393 0.116976 0.605941 0.237270
H43   H     H_    0.403406 0.193502 0.678389 0.284813
H44   H     H_    0.289051 0.157324 0.689692 0.277349
H45   H     H_    0.287856 0.437080 0.118200 0.225804
H46   H     H_    0.314442 0.280602 0.678898 0.291550
H47   H     H_    0.381609 0.701134 0.414175 0.196190
H48   H     H_    0.354162 0.825692 0.414777 0.124004
H49   H     H_    0.214214 0.671932 0.436648 0.252443
H50   H     H_    0.196369 0.794682 0.423516 0.259057
H51   H     H_    0.255861 0.770100 0.339658 0.268615
H52   H     H_    0.160367 0.694930 0.352329 0.274643
H53   H     H_    0.271950 0.645677 0.353116 0.284209
H54   H     H_    0.645740 0.338054 0.407252 0.204678
H55   H     H_    0.557033 0.251790 0.405473 0.109993
H56   H     H_    0.724267 0.424394 0.880410 0.226059
H57   H     H_    0.760433 0.214311 0.394834 0.265785
H58   H     H_    0.673759 0.124344 0.394080 0.251480
H59   H     H_    0.603008 0.199276 0.322035 0.298507
H60   H     H_    0.719140 0.171354 0.310854 0.278749
H61   H     H_    0.687143 0.292235 0.322848 0.275182
H62   H     H_    0.355509 0.682290 0.836616 0.129925
H63   H     H_    0.298081 0.727545 0.888799 0.097253
H64   H     H_    0.206227 0.654904 0.795901 0.262634
H65   H     H_    0.150946 0.705484 0.847501 0.228854
H66   H     H_    0.234396 0.858205 0.834309 0.270760
H67   H     H_    0.475486 0.638845 0.746103 0.176958
H68   H     H_    0.169076 0.824239 0.781957 0.268058
H69   H     H_    0.289082 0.806984 0.782254 0.281140
H70   H     H_    0.688988 0.667147 0.157257 0.123550
H71   H     H_    0.763679 0.688397 0.106901 0.128868
H72   H     H_    0.820273 0.615530 0.207322 0.255028
H73   H     H_    0.894180 0.638218 0.157241 0.233953
H74   H     H_    0.849186 0.809169 0.157616 0.262837
H75   H     H_    0.894919 0.772525 0.215147 0.280009
H76   H     H_    0.775092 0.786142 0.208031 0.280282
H77   H     H_    0.250825 0.730396 0.970230 0.176616
H78   H     H_    0.537598 0.635786 0.253519 0.181535
H79   H     H_    0.369772 0.711087 0.973018 0.079145
H80   H     H_    0.237096 0.667542 0.055769 0.258339
H81   H     H_    0.357936 0.659512 0.058405 0.207700
H82   H     H_    0.371195 0.832964 0.042034 0.264679
H83   H     H_    0.306205 0.808405 0.095441 0.274083
H84   H     H_    0.249776 0.841828 0.040194 0.272855
H85   H     H_    0.687534 0.701031 0.032259 0.097018
H86   H     H_    0.686067 0.644806 0.973586 0.144518
H87   H     H_    0.855181 0.713349 0.027885 0.227524
H88   H     H_    0.852510 0.658195 0.969210 0.253739
H89   H     H_    0.769766 0.393858 0.645488 0.195732
H90   H     H_    0.758323 0.791322 0.937231 0.268193
H91   H     H_    0.863324 0.833380 0.962263 0.277705
H92   H     H_    0.761067 0.846773 0.996205 0.269203
N1    N     N_R   0.507718 0.483399 0.200865 -0.332101
N2    N     N_R   0.506317 0.487553 0.799366 -0.334615
N3    N     N_R   0.500000 0.750030 0.500000 -0.196888
N4    N     N_R   0.500000 0.249970 0.500000 -0.221230
O1    O     O_R   0.367850 0.580280 0.500010 -0.561235
O2    O     O_2   0.661604 0.457030 0.798498 -0.532442
O3    O     O_2   0.350653 0.513078 0.797993 -0.495379
O4    O     O_2   0.664481 0.498843 0.204094 -0.531964
O5    O     O_3   0.766109 0.478160 0.585369 -0.668076
O6    O     O_3   0.234895 0.475910 0.413921 -0.665495
O7    O     O_3   0.087052 0.550368 0.631188 -0.573452
O8    O     O_3   0.912485 0.522656 0.365568 -0.574114
O9    O     O_3   0.655550 0.752604 0.519656 -0.562701
O10   O     O_3   0.354838 0.248596 0.534920 -0.583247
O11   O     O_3   0.344095 0.751631 0.481002 -0.571188
O12   O     O_R   0.632150 0.419720 0.499990 -0.609687
O13   O     O_3   0.646296 0.250210 0.466170 -0.587486
O14   O     O_3   0.277258 0.584108 0.875381 -0.550583
O15   O     O_3   0.749205 0.547278 0.126579 -0.552477
O16   O     O_3   0.282996 0.589749 0.974369 -0.565513
O17   O     O_3   0.745175 0.565562 0.028637 -0.564116
O18   O     O_R   0.632150 0.580280 0.499990 -0.548591
O19   O     O_R   0.367850 0.419720 0.500010 -0.601895
O20   O     O_R   0.500010 0.580260 0.428760 -0.577271
O21   O     O_R   0.499990 0.419740 0.571240 -0.675535
O22   O     O_R   0.499990 0.580260 0.571240 -0.581491
O23   O     O_R   0.500010 0.419740 0.428760 -0.679765
O24   O     O_2   0.350792 0.463051 0.200421 -0.537215
Zn1   Zn    Zn3+2 0.500000 0.607200 0.500000 1.081447
Zn2   Zn    Zn3+2 0.500000 0.392800 0.500000 0.956956

loop_
_geom_bond_atom_site_label_1
_geom_bond_atom_site_label_2
_ccdc_geom_bond_type
C4    H77   S    
C66   C68   A    
C87   C88   S    
C93   C94   S    
C50   C63   A    
C62   C96   A    
C27   C29   A    
C18   C21   A    
C102  H62   S    
O21   Zn2   S    
C70   H12   S    
C25   Cl12  S    
C4    O16   S    
C97   C98   S    
C53   C59   A    
C11   C70   A    
C46   O10   S    
C7    C8    S    
C5    H81   S    
C82   O7    S    
C54   C60   A    
C77   C78   S    
C91   H37   S    
C72   Cl9   S    
C76   H2    S    
C64   O3    S    
C103  H65   S    
C62   O4    S    
C105  H70   S    
C36   C37   A    
C35   C37   A    
C19   O12   A    
C51   C56   A    
C29   C32   A    
C52   C74   A    
C74   H45   S    
C23   O23   A    
C15   C25   A    
C27   C38   A    
C103  H64   S    
C47   N3    A    
C11   C24   S    
C1    C31   S    
C65   C73   A    
C56   C57   A    
C92   H40   S    
C58   Cl1   S    
C82   H17   S    
C93   H41   S    
C35   C42   A    
C69   C71   A    
C100  C101  S    
C7    H85   S    
C101  H60   S    
C23   O20   A    
C40   C43   A    
C7    O17   S    
C12   C16   A    
C84   H21   S    
C1    O19   A    
C8    C9    S    
C46   N4    A    
C99   H55   S    
C46   C55   A    
C100  H58   S    
O18   Zn1   S    
C45   N3    A    
C62   N1    A    
C31   C33   A    
C77   H4    S    
C87   H26   S    
C78   H6    S    
C19   O18   A    
C94   H44   S    
C90   C91   S    
C76   H89   S    
C65   H78   S    
C58   C61   A    
C89   H31   S    
C84   H20   S    
C59   C60   A    
C20   O17   S    
C13   C14   A    
C63   C85   A    
C17   C30   A    
C98   H51   S    
C102  C103  S    
C42   C44   A    
C106  H73   S    
C2    C21   A    
C72   C75   A    
C95   H47   S    
C101  H59   S    
C2    C64   A    
C86   H25   S    
C48   N4    A    
C3    C106  S    
C48   C53   A    
C25   C74   A    
C54   C56   A    
C75   N2    S    
C3    H76   S    
O12   Zn2   S    
C45   O9    S    
C105  H71   S    
C92   O10   S    
C77   H3    S    
C76   C77   S    
C6    H83   S    
C18   O16   S    
C9    H91   S    
C71   C73   A    
C48   O13   S    
C53   C57   A    
C86   C87   S    
C90   H33   S    
C81   H14   S    
C47   C51   A    
C99   H54   S    
C80   H10   S    
C28   C39   A    
C65   C67   A    
C97   H49   S    
C69   H1    S    
C71   Cl8   S    
C92   H39   S    
C32   C34   A    
C82   H16   S    
C93   H42   S    
N4    Zn2   S    
C95   O11   S    
C38   C44   A    
C7    H86   S    
C24   O22   A    
C101  H61   S    
C6    H84   S    
C59   Cl5   S    
C83   C84   S    
C47   O11   S    
C12   C15   A    
C50   O2    S    
C9    H92   S    
C49   C52   A    
C49   N1    A    
C100  H57   S    
C102  O14   S    
C85   H56   S    
C88   H30   S    
C51   C58   A    
C3    H75   S    
C14   C26   A    
C90   H35   S    
C8    H88   S    
C78   H5    S    
C67   Cl11  S    
C94   H43   S    
C27   Cl3   S    
C83   H18   S    
C30   C96   A    
C91   H36   S    
C98   H53   S    
C89   H32   S    
C104  H66   S    
C79   H8    S    
C68   Cl10  S    
C45   C54   A    
C55   C57   A    
C61   Cl7   S    
C14   C16   A    
C80   C81   S    
C66   H67   S    
O1    Zn1   S    
C41   C63   A    
C26   Cl2   S    
C19   C29   S    
C95   H48   S    
C94   H46   S    
C83   H19   S    
C79   H9    S    
C42   H34   S    
C11   C68   A    
C86   H24   S    
C106  H72   S    
C33   O6    S    
C15   C17   A    
C21   O14   S    
C30   C52   A    
C4    H79   S    
C60   Cl6   S    
C80   H11   S    
C87   H27   S    
C13   C20   A    
C43   O7    S    
C102  H63   S    
C22   C96   A    
O19   Zn2   S    
C28   C31   A    
C64   N2    A    
C20   C22   A    
C4    C5    S    
N3    Zn1   S    
C9    H90   S    
C89   O9    S    
C39   C43   A    
C95   C97   S    
C81   H15   S    
C5    H80   S    
C10   C23   S    
C97   H50   S    
C86   O8    S    
C105  C106  S    
C104  H68   S    
C99   C100  S    
C13   C17   A    
C28   Cl4   S    
C49   O24   S    
C104  H69   S    
C91   H38   S    
C37   C39   A    
C24   O21   A    
C10   C67   A    
C3    H74   S    
C6    H82   S    
C79   O6    S    
C5    C6    S    
C22   O15   S    
C26   C85   A    
C66   C75   A    
C55   C61   A    
C36   C38   A    
C92   C93   S    
C33   C35   A    
C88   H29   S    
C34   C36   A    
O20   Zn1   S    
C8    H87   S    
C73   N1    S    
C32   O5    S    
C81   H13   S    
C50   N2    A    
C79   C80   S    
C98   H52   S    
C10   C69   A    
C1    O1    A    
C44   O8    S    
C84   H22   S    
C82   C83   S    
O23   Zn2   S    
C12   C18   A    
C103  C104  S    
C2    C41   A    
C88   H28   S    
C34   C40   A    
C70   C72   A    
C76   O5    S    
C89   C90   S    
C40   H23   S    
C78   H7    S    
C16   C41   A    
O22   Zn1   S    
C99   O13   S    
C105  O15   S    
