data_mof_unit_1025.cif
_audit_creation_date              2013-03-05T16:46:54-0500
_audit_creation_method            fapswitch 2.2
_symmetry_space_group_name_H-M    P1
_symmetry_Int_Tables_number       1
_space_group_crystal_system       triclinic
_cell_length_a                    18.233266
_cell_length_b                    18.231504
_cell_length_c                    18.367672
_cell_angle_alpha                 119.93041
_cell_angle_beta                  90.089225
_cell_angle_gamma                 119.89437
_cell_volume                      4325.49979097

loop_
_atom_site_label
_atom_site_type_symbol
_atom_site_description
_atom_site_fract_x
_atom_site_fract_y
_atom_site_fract_z
_atom_type_partial_charge
Zn1   Zn    Zn3+2 0.456040 0.586770 0.543190 0.975541
Zn2   Zn    Zn3+2 0.456820 0.413240 0.543960 1.051226
Zn3   Zn    Zn3+2 0.631110 0.586750 0.543190 0.982054
Zn4   Zn    Zn3+2 0.456040 0.413240 0.369660 1.056963
O1    O     O_3   0.500000 0.500000 0.500000 -0.506286
O2    O     O_R   0.383400 0.268380 0.323710 -0.574683
O3    O     O_R   0.555060 0.731630 0.615290 -0.647943
O4    O     O_R   0.383950 0.439280 0.616600 -0.587759
O5    O     O_R   0.677590 0.560710 0.444390 -0.640756
O6    O     O_R   0.556370 0.439260 0.616600 -0.643197
O7    O     O_R   0.382640 0.439290 0.322940 -0.627083
O8    O     O_R   0.678360 0.560700 0.616060 -0.636565
O9    O     O_R   0.382640 0.560750 0.444390 -0.646733
O10   O     O_R   0.383400 0.560740 0.616060 -0.644763
O11   O     O_R   0.555060 0.439270 0.322940 -0.637542
O12   O     O_R   0.383950 0.268380 0.445700 -0.628615
O13   O     O_R   0.677590 0.731610 0.615290 -0.648862
C1    C     C_R   0.358697 0.219977 0.360849 0.856327
C2    C     C_R   0.640956 0.780903 0.639720 0.746108
C3    C     C_R   0.358627 0.499571 0.640252 0.846231
C4    C     C_R   0.640710 0.500393 0.359523 0.808114
C5    C     C_R   0.641818 0.500385 0.640353 0.821558
C6    C     C_R   0.357999 0.500032 0.359318 0.787677
C7    C     C_3   0.278875 0.420167 0.201388 -0.346803
H1    H     H_    0.245232 0.341375 0.186279 0.216784
H2    H     H_    0.342107 0.440141 0.185264 0.196447
C8    C     C_3   0.217526 0.418189 0.142030 -0.368239
H3    H     H_    0.248608 0.431483 0.094117 0.217941
H4    H     H_    0.153361 0.339467 0.101332 0.177094
H5    H     H_    0.174820 0.394169 0.308581 0.205524
H6    H     H_    0.085529 0.392129 0.218501 0.197220
C9    C     C_3   0.210456 0.471633 0.320630 -0.341175
C10   C     C_3   0.349144 0.608738 0.319803 -0.459903
C11   C     C_3   0.300305 0.500163 0.301637 0.091133
H7    H     H_    0.366671 0.668131 0.391497 0.161935
H8    H     H_    0.413521 0.629796 0.306024 0.202868
C12   C     C_3   0.198115 0.499869 0.199901 0.044427
C13   C     C_3   0.149931 0.470454 0.260251 -0.456608
C14   C     C_3   0.287949 0.610024 0.262180 0.189385
H9    H     H_    0.270865 0.663269 0.308702 0.116528
H10   H     H_    0.223674 0.528631 0.391747 0.212423
H11   H     H_    0.133236 0.525755 0.302661 0.205445
C15   C     C_3   0.672718 0.940762 0.657625 -0.393031
H12   H     H_    0.601123 0.912290 0.648640 0.179356
H13   H     H_    0.680186 0.912798 0.590573 0.170988
C16   C     C_3   0.732393 0.060615 0.717967 -0.397112
H14   H     H_    0.770609 0.090103 0.680687 0.185925
H15   H     H_    0.689274 0.089189 0.734780 0.156950
H16   H     H_    0.613652 0.903240 0.782556 0.167786
C17   C     C_3   0.685921 0.936004 0.791537 -0.455812
C18   C     C_3   0.799581 0.941596 0.713265 -0.373396
C19   C     C_3   0.698714 0.897253 0.699099 0.175990
H17   H     H_    0.820657 0.912803 0.744044 0.177364
H18   H     H_    0.811128 0.915032 0.647988 0.189766
C20   C     C_3   0.798599 0.102152 0.803955 0.097859
C21   C     C_3   0.744944 0.056527 0.854113 -0.149777
C22   C     C_3   0.857688 0.060864 0.774128 -0.399972
H19   H     H_    0.896233 0.091041 0.737466 0.182253
H20   H     H_    0.907080 0.088720 0.833273 0.179885
H21   H     H_    0.704736 0.906006 0.822573 0.164517
H22   H     H_    0.794555 0.081677 0.911569 0.161517
C23   C     C_3   0.680396 0.391388 0.241775 0.157509
H23   H     H_    0.609979 0.336271 0.195103 0.138439
C24   C     C_3   0.742828 0.393145 0.184373 -0.452994
H24   H     H_    0.787788 0.374468 0.199585 0.225148
H25   H     H_    0.701118 0.331966 0.112760 0.201763
H26   H     H_    0.604466 0.470905 0.199308 0.170716
H27   H     H_    0.687674 0.458723 0.109242 0.121316
C25   C     C_3   0.676776 0.527463 0.240795 -0.470354
C26   C     C_3   0.799358 0.584846 0.359972 -0.313333
C27   C     C_3   0.698425 0.500618 0.302255 0.003228
H28   H     H_    0.812364 0.662902 0.398434 0.206914
H29   H     H_    0.818641 0.574634 0.409791 0.220128
C28   C     C_3   0.799918 0.500996 0.200642 0.037843
C29   C     C_3   0.734411 0.524315 0.178481 -0.153354
C30   C     C_3   0.858624 0.581946 0.300950 -0.289272
H30   H     H_    0.901309 0.561571 0.317726 0.203775
H31   H     H_    0.904943 0.660463 0.316164 0.238318
H32   H     H_    0.688368 0.604684 0.282337 0.212768
H33   H     H_    0.478876 0.221531 0.671107 0.128815
C31   C     C_R   0.486668 0.193391 0.544091 -0.087168
H34   H     H_    0.558753 0.233439 0.564775 0.203403
C32   C     C_R   0.439241 0.148877 0.457382 -0.082990
H35   H     H_    0.475071 0.154532 0.411368 0.163247
C33   C     C_R   0.345919 0.098162 0.430565 0.088486
C34   C     C_R   0.300377 0.090625 0.490796 -0.064083
H36   H     H_    0.228189 0.050728 0.469581 0.185863
C35   C     C_R   0.347852 0.134852 0.577975 0.043932
C36   C     C_R   0.441270 0.186540 0.604139 -0.235349
C37   C     C_R   0.239400 0.943657 0.283661 -0.194944
H37   H     H_    0.236073 0.900620 0.309785 0.185326
C38   C     C_R   0.191462 0.891860 0.195206 -0.067809
C39   C     C_R   0.196464 0.947510 0.160334 -0.098106
C40   C     C_R   0.247547 0.055268 0.216751 0.298247
C41   C     C_R   0.299789 0.107349 0.305170 -0.153400
C42   C     C_R   0.294852 0.050431 0.338711 -0.030101
C43   C     C_R   0.192735 0.883691 0.001802 0.415634
C44   C     C_R   0.147040 0.839382 0.914081 -0.178478
H38   H     H_    0.180076 0.829859 0.864436 0.178557
C45   C     C_R   0.058287 0.805612 0.888832 -0.224937
H39   H     H_    0.024359 0.771487 0.820829 0.168287
C46   C     C_R   0.013021 0.814816 0.950361 -0.091345
H40   H     H_    0.943711 0.787018 0.928320 0.171543
C47   C     C_R   0.056536 0.859634 0.039144 -0.011315
C48   C     C_R   0.147512 0.895289 0.065613 -0.030468
C49   C     C_R   0.919833 0.635910 0.574249 -0.280097
H41   H     H_    0.940736 0.605272 0.517659 0.226587
C50   C     C_R   0.868925 0.572959 0.602464 0.291157
C51   C     C_R   0.841354 0.613320 0.676258 0.008253
C52   C     C_R   0.865456 0.714863 0.719794 -0.241209
H42   H     H_    0.845762 0.746961 0.777057 0.158119
C53   C     C_R   0.914609 0.775602 0.690044 -0.197876
H43   H     H_    0.931381 0.853255 0.724660 0.169828
C54   C     C_R   0.942281 0.736843 0.616925 0.311435
C55   C     C_R   0.840826 0.549700 0.766071 -0.212752
H44   H     H_    0.912085 0.587373 0.776519 0.171521
C56   C     C_R   0.799538 0.498196 0.805548 0.000256
C57   C     C_R   0.706143 0.446733 0.789859 0.058633
C58   C     C_R   0.656993 0.450617 0.736505 -0.262032
H45   H     H_    0.585697 0.412888 0.726035 0.183127
C59   C     C_R   0.698346 0.502524 0.697338 -0.024241
C60   C     C_R   0.791725 0.553731 0.712841 0.068915
C61   C     C_R   0.627144 0.286841 0.792210 0.053046
C62   C     C_R   0.580068 0.239280 0.833428 -0.222050
H46   H     H_    0.557004 0.160557 0.806924 0.114433
C63   C     C_R   0.561954 0.292247 0.908965 -0.089628
H47   H     H_    0.525608 0.254625 0.939964 0.149455
C64   C     C_R   0.590269 0.393377 0.944383 -0.153725
H48   H     H_    0.575580 0.433996 0.002590 0.138400
C65   C     C_R   0.637803 0.442490 0.905146 -0.191128
H49   H     H_    0.659607 0.521269 0.933772 0.151176
C66   C     C_R   0.657081 0.390690 0.829396 0.113744
H50   H     H_    0.410756 0.888180 0.700712 0.140445
C67   C     C_R   0.428121 0.835039 0.776313 -0.092138
H51   H     H_    0.489052 0.909151 0.826824 0.146769
C68   C     C_R   0.393828 0.751545 0.782481 -0.154857
H52   H     H_    0.429143 0.762081 0.838097 0.158720
C69   C     C_R   0.314064 0.655238 0.718095 0.029171
C70   C     C_R   0.267563 0.643097 0.646313 0.350529
C71   C     C_R   0.304035 0.728389 0.641178 -0.192080
H53   H     H_    0.270869 0.721476 0.586909 0.173835
C72   C     C_R   0.383680 0.823329 0.705521 -0.172736
C73   C     C_R   0.226019 0.569005 0.784505 -0.177786
H54   H     H_    0.211508 0.626660 0.812383 0.183312
C74   C     C_R   0.192820 0.495584 0.803653 -0.107148
C75   C     C_R   0.211976 0.420455 0.767162 -0.132586
C76   C     C_R   0.264203 0.420621 0.711878 0.282122
C77   C     C_R   0.300044 0.497368 0.694824 -0.146921
C78   C     C_R   0.279243 0.571225 0.731000 0.024779
C79   C     C_R   0.224374 0.361211 0.860953 -0.036593
H55   H     H_    0.283290 0.438408 0.910279 0.145380
C80   C     C_R   0.194576 0.283369 0.874522 -0.139646
H56   H     H_    0.230134 0.300569 0.934162 0.133322
C81   C     C_R   0.119457 0.183038 0.810644 -0.076119
H57   H     H_    0.096785 0.122673 0.820915 0.148187
C82   C     C_R   0.073994 0.160412 0.733137 -0.077716
H58   H     H_    0.016624 0.082379 0.683175 0.165363
C83   C     C_R   0.102744 0.238302 0.719859 -0.085837
H59   H     H_    0.067235 0.219882 0.659433 0.154068
C84   C     C_R   0.178058 0.339236 0.783798 0.171234
Zn5   Zn    Zn3+2 0.041710 0.413240 0.959030 0.989246
Zn6   Zn    Zn3+2 0.866640 0.413270 0.959030 0.994881
Zn7   Zn    Zn3+2 0.040930 0.586780 0.958260 1.006929
Zn8   Zn    Zn3+2 0.041710 0.586770 0.132560 1.013327
O14   O     O_3   0.997750 0.500010 0.002220 -0.493053
O15   O     O_R   0.942690 0.560750 0.179280 -0.642429
O16   O     O_R   0.114340 0.439270 0.886160 -0.648788
O17   O     O_R   0.820160 0.268410 0.886930 -0.630586
O18   O     O_R   0.113800 0.731630 0.056520 -0.641336
O19   O     O_R   0.819390 0.439310 0.886160 -0.641059
O20   O     O_R   0.115110 0.560720 0.179280 -0.637061
O21   O     O_R   0.941380 0.560750 0.885620 -0.655044
O22   O     O_R   0.115110 0.439270 0.057830 -0.644104
O23   O     O_R   0.942690 0.268390 0.886930 -0.651245
O24   O     O_R   0.114340 0.731630 0.178520 -0.637879
O25   O     O_R   0.820160 0.439310 0.057830 -0.638548
O26   O     O_R   0.113800 0.560730 0.885620 -0.634893
C85   C     C_R   0.857233 0.500013 0.142883 0.774868
C86   C     C_R   0.137924 0.498919 0.861115 0.852143
C87   C     C_R   0.856788 0.218976 0.862475 0.766270
C88   C     C_R   0.137259 0.779794 0.140989 0.847621
C89   C     C_R   0.855969 0.499948 0.862186 0.825079
C90   C     C_R   0.139533 0.499616 0.142708 0.812295
C91   C     C_2   0.687718 0.094835 0.890698 0.435692
H60   H     H_    0.632016 0.075168 0.845888 0.048800
O27   O     O_2   0.703201 0.147605 0.970938 -0.563226
N1    N     N_R   0.689038 0.353447 0.293262 0.219093
O28   O     O_R   0.766919 0.395132 0.344859 -0.357310
O29   O     O_R   0.618332 0.273925 0.284479 -0.343579
C92   C     C_2   0.781153 0.620744 0.179499 0.402482
H61   H     H_    0.775561 0.613150 0.116900 0.069122
O30   O     O_2   0.826742 0.707061 0.249325 -0.544655
C93   C     C_2   0.301135 0.127785 0.642358 0.522470
H62   H     H_    0.339214 0.162340 0.709293 0.048133
O31   O     O_2   0.219897 0.083768 0.621777 -0.499455
N2    N     N_R   0.241429 0.110879 0.185420 0.208749
O32   O     O_R   0.202170 0.157388 0.218505 -0.406209
O33   O     O_R   0.275935 0.116228 0.124851 -0.360762
N3    N     N_R   0.284606 0.916928 0.024634 0.214973
O34   O     O_R   0.333959 0.941742 0.978937 -0.375502
O35   O     O_R   0.316801 0.912390 0.084371 -0.358291
C94   C     C_2   0.006540 0.868925 0.103394 0.418326
H63   H     H_    0.039204 0.905249 0.172660 0.081965
O36   O     O_2   0.927664 0.835715 0.079654 -0.561727
N4    N     N_R   0.992786 0.799516 0.586056 0.215557
O37   O     O_R   0.019367 0.764246 0.518802 -0.394735
O38   O     O_R   0.012404 0.892376 0.624702 -0.393219
N5    N     N_R   0.846103 0.469302 0.555605 0.233736
O39   O     O_R   0.771622 0.395371 0.549279 -0.341042
O40   O     O_R   0.895978 0.446146 0.512009 -0.290208
C95   C     C_2   0.642442 0.224674 0.711204 0.356568
H64   H     H_    0.612942 0.143931 0.683503 0.049404
O41   O     O_2   0.687552 0.261466 0.674379 -0.544637
N6    N     N_R   0.184224 0.546882 0.579219 0.199134
O42   O     O_R   0.162522 0.458978 0.562279 -0.370248
O43   O     O_R   0.131617 0.545934 0.530255 -0.371802
N7    N     N_R   0.279901 0.341385 0.673053 0.225358
O44   O     O_R   0.231897 0.259968 0.591592 -0.360625
O45   O     O_R   0.337918 0.347503 0.721124 -0.415051
N8    N     N_R   0.334852 0.650778 0.212570 0.206269
O46   O     O_R   0.341836 0.730010 0.222340 -0.373930
O47   O     O_R   0.373467 0.612274 0.162076 -0.408572

loop_
_geom_bond_atom_site_label_1
_geom_bond_atom_site_label_2
_geom_bond_distance
_ccdc_geom_bond_type
O16   C86   1.269986 A    
C20   C21   1.566570 S    
C9    C11   1.552253 S    
C92   H61   1.085493 S    
C61   C66   1.423845 A    
C8    H4    1.113694 S    
C20   C87   1.508900 S    
C43   N3    1.442728 S    
C47   C48   1.420507 A    
C41   C42   1.417568 A    
C7    C8    1.535564 S    
C50   N5    1.441273 S    
C64   H48   1.082439 S    
C38   C39   1.415790 A    
N8    O47   1.301431 A    
C43   C44   1.403173 A    
C37   H37   1.085319 S    
C61   C62   1.406053 A    
C33   C34   1.404682 A    
C91   H60   1.085078 S    
H27   C29   1.112110 S    
N6    O42   1.300639 A    
H50   C72   1.082567 S    
C12   C13   1.553967 S    
C94   O36   1.221344 D    
C49   C54   1.406061 A    
C32   H35   1.083166 S    
C40   N2    1.437479 S    
C30   H31   1.111522 S    
O20   C90   1.280336 A    
Zn8   O14   1.956341 S    
Zn7   O14   1.951794 S    
C71   C72   1.396204 A    
C13   H11   1.113076 S    
C38   C88   1.447974 S    
C74   C75   1.417331 A    
C33   C42   1.480897 S    
C34   C35   1.405363 A    
C15   C19   1.552685 S    
C22   H20   1.113387 S    
Zn6   O25   1.944985 S    
C49   H41   1.082463 S    
C70   N6    1.443871 S    
C73   H54   1.085187 S    
C12   C90   1.493748 S    
O8    C5    1.269834 A    
C10   H8    1.112630 S    
C50   C51   1.416662 A    
O9    C6    1.282518 A    
Zn8   O24   1.930485 S    
O7    C6    1.277971 A    
H33   C36   1.080942 S    
C25   C27   1.553145 S    
C57   C58   1.377789 A    
C53   H43   1.082423 S    
C23   C24   1.552275 S    
Zn3   O8    1.948800 S    
C39   C48   1.491695 S    
C52   H42   1.083552 S    
C2    C19   1.503066 S    
C76   C77   1.417579 A    
C92   O30   1.221076 D    
N5    O39   1.301208 A    
C55   C56   1.396672 A    
C61   C95   1.486546 S    
C16   C20   1.553862 S    
Zn7   O26   1.942485 S    
C17   C19   1.550756 S    
C9    H10   1.113141 S    
C3    C77   1.465611 S    
C25   C29   1.554342 S    
C26   C27   1.556029 S    
C18   C22   1.540979 S    
C9    C13   1.548220 S    
Zn2   O12   1.932840 S    
C81   C82   1.397665 A    
C93   H62   1.085776 S    
O24   C88   1.288427 A    
Zn8   O15   1.943816 S    
C43   C48   1.424019 A    
N4    O38   1.301669 A    
N3    O34   1.301690 A    
C55   C60   1.377462 A    
O19   C89   1.269893 A    
C83   C84   1.403827 A    
C1    C41   1.455491 S    
C46   H40   1.083074 S    
Zn7   O18   1.932738 S    
C53   C54   1.402894 A    
N8    O46   1.301129 A    
C31   C32   1.396164 A    
C31   H34   1.081676 S    
C52   C53   1.394316 A    
C58   C59   1.396926 A    
C69   C78   1.482813 S    
C71   H53   1.082574 S    
O2    C1    1.285463 A    
C16   H15   1.110552 S    
C62   H46   1.083630 S    
N1    O29   1.301093 A    
C28   C29   1.565388 S    
C18   C19   1.552489 S    
O10   C3    1.279902 A    
C14   N8    1.469144 S    
C29   C92   1.513620 S    
C7    H1    1.113615 S    
N2    O33   1.300897 A    
C94   H63   1.084259 S    
C14   H9    1.115359 S    
C34   H36   1.083784 S    
Zn4   O1    1.956341 S    
C67   C68   1.394454 A    
C21   C91   1.512718 S    
C93   O31   1.221307 D    
N7    O44   1.301047 A    
O17   C87   1.287244 A    
O6    C5    1.281256 A    
C7    C11   1.555682 S    
H26   C25   1.113479 S    
C24   H25   1.113529 S    
C28   C85   1.490312 S    
C65   C66   1.404447 A    
C15   H12   1.113184 S    
C23   H23   1.115349 S    
C76   N7    1.436004 S    
C79   C80   1.398627 A    
C67   C72   1.392893 A    
Zn6   O14   1.954174 S    
Zn5   O22   1.951796 S    
C37   C38   1.391820 A    
C95   H64   1.085188 S    
Zn6   O19   1.948656 S    
O11   C4    1.283337 A    
C70   C71   1.408869 A    
C6    C11   1.493522 S    
C74   C86   1.455834 S    
C26   H29   1.108984 S    
C45   C46   1.392225 A    
C10   C11   1.550995 S    
C81   H57   1.082417 S    
C21   H22   1.114865 S    
C39   C40   1.393708 A    
C10   C14   1.553351 S    
C30   H30   1.113695 S    
Zn4   O7    1.946733 S    
C46   C47   1.405895 A    
Zn7   O21   1.949874 S    
C15   H13   1.112853 S    
O18   C88   1.274841 A    
C59   C60   1.414314 A    
Zn5   O16   1.945072 S    
C28   C30   1.556970 S    
O15   C85   1.280285 A    
Zn4   O2    1.930530 S    
C95   O41   1.220042 D    
O4    C3    1.280692 A    
C4    C27   1.489063 S    
H16   C17   1.112085 S    
C44   C45   1.390132 A    
C20   C22   1.557637 S    
C26   C30   1.532716 S    
C83   H59   1.083016 S    
Zn6   O17   1.929315 S    
C25   H32   1.113473 S    
Zn2   O1    1.951647 S    
Zn1   O9    1.951897 S    
O13   C2    1.285314 A    
Zn2   O6    1.949976 S    
O23   C87   1.286092 A    
Zn1   O1    1.946262 S    
C5    C59   1.440561 S    
C62   C63   1.396048 A    
C75   C76   1.393246 A    
C80   C81   1.398022 A    
C73   C74   1.394508 A    
N4    O37   1.301606 A    
C16   H14   1.113042 S    
C82   H58   1.082179 S    
C63   C64   1.393691 A    
C32   C33   1.402687 A    
Zn1   O3    1.933343 S    
C35   C93   1.478660 S    
Zn2   O4    1.942440 S    
C7    H2    1.113440 S    
N2    O32   1.301094 A    
Zn3   O1    1.954173 S    
C64   C65   1.394514 A    
C58   H45   1.084388 S    
C54   N4    1.440257 S    
C37   C42   1.380157 A    
C67   H51   1.081772 S    
Zn1   O10   1.945175 S    
N7    O45   1.300887 A    
O3    C2    1.286216 A    
C91   O27   1.220842 D    
H6    C13   1.113135 S    
C18   H18   1.113300 S    
C17   H21   1.113236 S    
C24   H24   1.112875 S    
Zn4   O11   1.943819 S    
C82   C83   1.398138 A    
C65   H49   1.083478 S    
C31   C36   1.398043 A    
N1    O28   1.301363 A    
C12   C14   1.564412 S    
N5    O40   1.301543 A    
C56   C57   1.413945 A    
H5    C9    1.112956 S    
Zn5   O23   1.933241 S    
O5    C4    1.280777 A    
C22   H19   1.111678 S    
C49   C50   1.407299 A    
C8    C12   1.555521 S    
C63   H47   1.082425 S    
O25   C85   1.283747 A    
C45   H39   1.080912 S    
C10   H7    1.113355 S    
O26   C86   1.286287 A    
C23   C27   1.564176 S    
Zn3   O13   1.929316 S    
N6    O43   1.301721 A    
C77   C78   1.419679 A    
C40   C41   1.414656 A    
C51   C60   1.483577 S    
C15   C16   1.548077 S    
C17   C21   1.557624 S    
Zn3   O5    1.944985 S    
C57   C66   1.484231 S    
C69   C70   1.422831 A    
O21   C89   1.280743 A    
C73   C78   1.383026 A    
C75   C84   1.485845 S    
C35   C36   1.402063 A    
O22   C90   1.279493 A    
O12   C1    1.280636 A    
C44   H38   1.082790 S    
C79   C84   1.405154 A    
C68   C69   1.404906 A    
C8    H3    1.109914 S    
N3    O35   1.300884 A    
C24   C28   1.552927 S    
C79   H55   1.083096 S    
C68   H52   1.083467 S    
Zn8   O20   1.946729 S    
C26   H28   1.113690 S    
C80   H56   1.082136 S    
C18   H17   1.113274 S    
C51   C52   1.403741 A    
Zn5   O14   1.946262 S    
C55   H44   1.083910 S    
C56   C89   1.439693 S    
C47   C94   1.486662 S    
C23   N1    1.469233 S    
