data_mof_unit_2791.cif
_audit_creation_date              2013-03-05T15:55:02-0500
_audit_creation_method            fapswitch 2.2
_symmetry_space_group_name_H-M    P1
_symmetry_Int_Tables_number       1
_space_group_crystal_system       triclinic
_cell_length_a                    23.245344
_cell_length_b                    10.635845
_cell_length_c                    9.971506
_cell_angle_alpha                 93.795765
_cell_angle_beta                  90.063432
_cell_angle_gamma                 92.147121
_cell_volume                      2458.14317098

loop_
_atom_site_label
_atom_site_type_symbol
_atom_site_description
_atom_site_fract_x
_atom_site_fract_y
_atom_site_fract_z
_atom_type_partial_charge
O1    O     O_R   0.500000 0.316780 0.614690 -0.574574
O2    O     O_R   0.500000 0.316750 0.385360 -0.586383
C1    C     C_R   0.501370 0.260616 0.495374 0.917941
O3    O     O_R   0.416160 0.499970 0.614690 -0.522651
O4    O     O_R   0.416150 0.499950 0.385360 -0.522060
C2    C     C_R   0.389641 0.510704 0.500322 0.942070
Zn1   Zn    Zn3+2 0.500000 0.500020 0.653130 1.047292
Zn2   Zn    Zn3+2 0.500000 0.499980 0.346870 0.997563
O5    O     O_R   0.500000 0.683250 0.614640 -0.574214
O6    O     O_R   0.500000 0.683220 0.385310 -0.647698
O7    O     O_R   0.583850 0.500050 0.614640 -0.605976
O8    O     O_R   0.583840 0.500030 0.385310 -0.630990
C3    C     C_R   0.500772 0.740165 0.504521 0.814770
C4    C     C_R   0.610746 0.506496 0.500200 0.890247
C5    C     C_R   0.882115 0.705307 0.514544 0.680358
N1    N     N_R   0.853324 0.591219 0.494341 -0.321346
C6    C     C_R   0.881599 0.481405 0.473527 0.634067
C7    C     C_R   0.941540 0.482639 0.478300 -0.056538
C8    C     C_R   0.972332 0.598817 0.498563 -0.012651
C9    C     C_R   0.942450 0.711573 0.515149 -0.076700
C10   C     C_R   0.970853 0.370133 0.464706 -0.242641
C11   C     C_R   0.030849 0.371268 0.467603 0.518293
C12   C     C_R   0.062327 0.487655 0.487532 -0.113563
C13   C     C_R   0.032914 0.602002 0.502001 -0.140842
C14   C     C_R   0.063864 0.719301 0.519813 -0.112090
C15   C     C_R   0.033485 0.832378 0.536186 0.520962
C16   C     C_R   0.973206 0.827253 0.532007 -0.244094
C17   C     C_R   0.122549 0.493715 0.491775 0.547830
N2    N     N_R   0.151694 0.607625 0.505953 -0.346150
C18   C     C_R   0.124372 0.718966 0.520497 0.547117
O9    O     O_2   0.852392 0.811556 0.533596 -0.512685
O10   O     O_2   0.851549 0.371276 0.449077 -0.565213
H1    H     H_    0.947375 0.280106 0.453277 0.210235
O11   O     O_2   0.152379 0.387005 0.481426 -0.502268
O12   O     O_2   0.155966 0.828038 0.534808 -0.502034
H2    H     H_    0.950658 0.914715 0.540892 0.206778
C19   C     C_R   0.244090 0.617966 0.622146 -0.201260
H3    H     H_    0.222512 0.641215 0.716287 0.164287
C20   C     C_R   0.302500 0.592506 0.621878 0.395378
C21   C     C_R   0.329113 0.548608 0.500520 -0.305115
C22   C     C_R   0.298449 0.552966 0.377758 0.432333
C23   C     C_R   0.240231 0.579483 0.380654 -0.211792
H4    H     H_    0.215438 0.572186 0.288208 0.160242
C24   C     C_R   0.212917 0.607910 0.502462 0.179847
C25   C     C_R   0.760914 0.572281 0.375008 0.319269
C26   C     C_R   0.701648 0.547160 0.378028 -0.293191
H5    H     H_    0.677874 0.538265 0.284213 0.218446
C27   C     C_R   0.673102 0.532147 0.499905 -0.181874
C28   C     C_R   0.703971 0.546592 0.620710 -0.235595
H6    H     H_    0.682185 0.533507 0.714968 0.233299
C29   C     C_R   0.763220 0.573483 0.621446 0.275231
C30   C     C_R   0.791940 0.584217 0.497379 0.062718
H7    H     H_    0.412728 0.104679 0.445228 0.169761
C31   C     C_R   0.610845 0.132391 0.493507 -0.339455
H8    H     H_    0.613642 0.226038 0.457203 0.137719
C32   C     C_R   0.661700 0.069622 0.522424 0.559151
C33   C     C_R   0.656776 0.951925 0.575168 -0.215400
H9    H     H_    0.695099 0.911085 0.612947 0.223591
C34   C     C_R   0.602720 0.895270 0.596133 0.200362
C35   C     C_R   0.553684 0.944659 0.538239 0.004842
C36   C     C_R   0.556460 0.069955 0.504590 -0.032790
C37   C     C_R   0.504182 0.127930 0.483582 -0.082428
C38   C     C_R   0.452398 0.058911 0.465636 -0.045931
H10   H     H_    0.412002 0.875392 0.455616 0.124515
C39   C     C_R   0.451617 0.930586 0.475641 -0.174436
C40   C     C_R   0.501502 0.874302 0.514961 -0.022679
H11   H     H_    0.548352 0.670321 0.136433 0.153180
C41   C     C_R   0.450034 0.290058 0.121395 0.406525
C42   C     C_R   0.451087 0.174184 0.044419 0.214224
C43   C     C_R   0.443076 0.176632 0.905828 0.085650
C44   C     C_R   0.443914 0.295640 0.850816 0.390929
C45   C     C_R   0.473087 0.400173 0.921442 -0.058650
C46   C     C_R   0.474435 0.398812 0.065059 -0.055644
N3    N     N_R   0.499460 0.498800 0.142780 -0.079880
C47   C     C_R   0.526302 0.593683 0.078169 -0.086105
H12   H     H_    0.551280 0.664073 0.889125 0.227432
C48   C     C_R   0.527188 0.591921 0.935862 -0.041690
N4    N     N_R   0.499440 0.498720 0.857170 -0.088130
N5    N     N_R   0.793345 0.587226 0.748382 0.234160
O13   O     O_R   0.846575 0.555412 0.758737 -0.372705
O14   O     O_R   0.766152 0.624194 0.857130 -0.276844
O15   O     O_3   0.717119 0.117998 0.503043 -0.571794
C49   C     C_3   0.722155 0.247847 0.539375 -0.165007
H13   H     H_    0.694699 0.277120 0.626729 0.127774
H14   H     H_    0.712612 0.300582 0.450430 0.176112
H15   H     H_    0.767220 0.271422 0.570331 0.246275
N6    N     N_R   0.595814 0.822369 0.710550 0.211252
O16   O     O_R   0.558548 0.859682 0.800493 -0.389004
O17   O     O_R   0.637171 0.752875 0.746758 -0.411297
O18   O     O_3   0.058224 0.257658 0.460802 -0.559434
C50   C     C_3   0.056281 0.205468 0.327012 -0.151905
H16   H     H_    0.082761 0.120666 0.320013 0.221618
H17   H     H_    0.074756 0.272624 0.255958 0.140775
H18   H     H_    0.011655 0.174707 0.296533 0.144532
O19   O     O_3   0.418081 0.300289 0.238189 -0.535837
C51   C     C_3   0.361081 0.251630 0.216971 -0.169287
H19   H     H_    0.359032 0.147112 0.212911 0.178076
H20   H     H_    0.341457 0.286313 0.125032 0.144222
H21   H     H_    0.334587 0.283435 0.304250 0.195780
O20   O     O_3   0.445306 0.062041 0.106238 -0.573480
C52   C     C_3   0.500958 0.024808 0.138478 -0.168340
H22   H     H_    0.524058 0.097103 0.206400 0.145427
H23   H     H_    0.526902 0.005080 0.046263 0.211427
H24   H     H_    0.497035 0.936362 0.191357 0.177736
N7    N     N_R   0.426374 0.062756 0.826416 0.252814
O21   O     O_R   0.445565 0.954738 0.856186 -0.358632
O22   O     O_R   0.391145 0.065072 0.725353 -0.413134
O23   O     O_3   0.406861 0.313178 0.746657 -0.528263
C53   C     C_3   0.351029 0.328699 0.800195 -0.147170
H25   H     H_    0.350121 0.411113 0.874918 0.170674
H26   H     H_    0.334426 0.242943 0.847718 0.143260
H27   H     H_    0.321130 0.344887 0.716927 0.199354
O24   O     O_3   0.062451 0.948731 0.545854 -0.560512
C54   C     C_3   0.058199 0.001717 0.678765 -0.144626
H28   H     H_    0.085888 0.089095 0.688739 0.220606
H29   H     H_    0.073868 0.936827 0.752903 0.138891
H30   H     H_    0.013404 0.028519 0.702679 0.145042
O25   O     O_3   0.332203 0.603815 0.742318 -0.635175
C55   C     C_3   0.351336 0.730493 0.767027 -0.149232
H31   H     H_    0.380139 0.761646 0.685436 0.178896
H32   H     H_    0.376586 0.738520 0.861860 0.205965
H33   H     H_    0.314496 0.793978 0.780352 0.163733
O26   O     O_3   0.323585 0.520833 0.255254 -0.596934
C56   C     C_3   0.336042 0.631782 0.189032 -0.226803
H34   H     H_    0.363512 0.700575 0.252242 0.156168
H35   H     H_    0.295873 0.676125 0.158468 0.151064
H36   H     H_    0.360516 0.606320 0.096269 0.191870
N8    N     N_R   0.789182 0.581225 0.247205 0.238192
O27   O     O_R   0.835573 0.651976 0.236001 -0.344397
O28   O     O_R   0.766330 0.525100 0.138930 -0.310927

loop_
_geom_bond_atom_site_label_1
_geom_bond_atom_site_label_2
_geom_bond_distance
_ccdc_geom_bond_type
N6    O16   1.300994 A    
C38   C39   1.374501 A    
C52   H22   1.112467 S    
C7    C10   1.397977 A    
C46   N3    1.383287 A    
C8    C9    1.408704 A    
N8    O27   1.300848 A    
C54   H28   1.109348 S    
C33   H9    1.083565 S    
O26   C56   1.410805 S    
C48   N4    1.364687 A    
O23   C53   1.415116 S    
Zn1   O7    1.986960 S    
N7    O22   1.299908 A    
C15   C16   1.400681 A    
C19   H3    1.083308 S    
C18   O12   1.348886 S    
C17   N2    1.364697 A    
C53   H26   1.112062 S    
O4    C2    1.302459 A    
O7    C4    1.306337 A    
C1    C37   1.412313 S    
C10   H1    1.083482 S    
C25   N8    1.441572 S    
C5    N1    1.366519 A    
C51   H21   1.108590 S    
C32   C33   1.390429 A    
C7    C8    1.407251 A    
C22   C23   1.392638 A    
O5    C3    1.288295 A    
O25   C55   1.408798 S    
C45   N4    1.387901 A    
C31   H8    1.081782 S    
O19   C51   1.414801 S    
N1    C6    1.365628 A    
C28   C29   1.396032 A    
C51   H20   1.114039 S    
C12   C13   1.416562 A    
C43   C44   1.411911 A    
N2    C18   1.364019 A    
C35   C40   1.411935 A    
C34   C35   1.411401 A    
C52   H23   1.112832 S    
C44   O23   1.375180 S    
C42   C43   1.396325 A    
C23   C24   1.391862 A    
O3    Zn1   1.985783 S    
C31   C36   1.413677 A    
C26   C27   1.400822 A    
C3    C40   1.423023 S    
C55   H32   1.109205 S    
C5    C9    1.401574 A    
C31   C32   1.417816 A    
C41   O19   1.382408 S    
N3    C47   1.364764 A    
C29   C30   1.415645 A    
C13   C14   1.417283 A    
C34   N6    1.427181 S    
O3    C2    1.309411 A    
C53   H27   1.108463 S    
C20   C21   1.419010 A    
N5    O14   1.301440 A    
C41   C42   1.409136 A    
C4    C27   1.464894 S    
C25   C30   1.412757 A    
C41   C46   1.418728 A    
C25   C26   1.394196 A    
O6    C3    1.297694 A    
C35   C36   1.394798 A    
O1    C1    1.296454 A    
C37   C38   1.391333 A    
Zn1   N4    2.035601 S    
C50   H17   1.114130 S    
C49   H13   1.114996 S    
Zn2   O8    1.985781 S    
C51   H19   1.108926 S    
Zn2   N3    2.034314 S    
C6    C7    1.393634 A    
C11   O18   1.384368 S    
C12   C17   1.399414 A    
H12   C48   1.065576 S    
C32   O15   1.387674 S    
C47   C48   1.418086 A    
C56   H36   1.110015 S    
C21   C22   1.420115 A    
C49   H14   1.106871 S    
O8    C4    1.301207 A    
C39   C40   1.392409 A    
C52   H24   1.109322 S    
N6    O17   1.299497 A    
N2    C24   1.423501 S    
C2    C21   1.478022 S    
H11   C47   1.081669 S    
C23   H4    1.083480 S    
C50   H16   1.109319 S    
C56   H35   1.112918 S    
O24   C54   1.410472 S    
C55   H33   1.112937 S    
C14   C18   1.406691 A    
Zn1   O5    2.011016 S    
C26   H5    1.082911 S    
C27   C28   1.398179 A    
O1    Zn1   1.961191 S    
O2    Zn2   2.011014 S    
N1    C30   1.426503 S    
C45   C46   1.433420 A    
C43   N7    1.442855 S    
N8    O28   1.301481 A    
O4    Zn2   1.986962 S    
C54   H29   1.114133 S    
C55   H31   1.113677 S    
C5    O9    1.349389 S    
C9    C16   1.399855 A    
C16   H2    1.083341 S    
C20   O25   1.380696 S    
N7    O21   1.300102 A    
H10   C39   1.084464 S    
C22   O26   1.382630 S    
C19   C24   1.391468 A    
O2    C1    1.284110 A    
C14   C15   1.417621 A    
C15   O24   1.384102 S    
C44   C45   1.425032 A    
C19   C20   1.394372 A    
C53   H25   1.113058 S    
C50   H18   1.111849 S    
H7    C38   1.083998 S    
O18   C50   1.410632 S    
O20   C52   1.409972 S    
C8    C13   1.407724 A    
C36   C37   1.404812 A    
C29   N5    1.442117 S    
C54   H30   1.111811 S    
C33   C34   1.395066 A    
C17   O11   1.350254 S    
N5    O13   1.300733 A    
C42   O20   1.380645 S    
C49   H15   1.106739 S    
Zn2   O6    1.961193 S    
C28   H6    1.082740 S    
C6    O10   1.349026 S    
C11   C12   1.416494 A    
O15   C49   1.404933 S    
C10   C11   1.394478 A    
C56   H34   1.115083 S    
