data_mof_unit_373.cif
_audit_creation_date              2012-12-10T16:47:49-0500
_audit_creation_method            fapswitch 2.2
_symmetry_space_group_name_H-M    P1
_symmetry_Int_Tables_number       1
_space_group_crystal_system       triclinic
_cell_length_a                    7.750288
_cell_length_b                    8.595413
_cell_length_c                    10.701361
_cell_angle_alpha                 90.682849
_cell_angle_beta                  86.475184
_cell_angle_gamma                 93.47502
_cell_volume                      710.210866995

loop_
_atom_site_label
_atom_site_type_symbol
_atom_type_description
_atom_site_fract_x
_atom_site_fract_y
_atom_site_fract_z
_atom_type_partial_charge
C1    C     C_R   0.546065 0.794172 0.502975 0.854196
C2    C     C_2   0.572685 0.956326 0.521205 0.311110
C3    C     C_3   0.199554 0.535440 0.105647 -0.292670
C4    C     C_3   0.794136 0.987672 0.655561 0.097252
C5    C     C_3   0.766361 0.127672 0.742720 -0.311827
C6    C     C_3   0.831377 0.100651 0.871948 -0.971040
C7    C     C_2   0.434086 0.042089 0.513666 -0.512074
C8    C     C_R   0.502668 0.495880 0.736960 0.877327
C9    C     C_R   0.455233 0.205438 0.507259 0.975053
C10   C     C_R   0.497984 0.507983 0.262095 0.813122
C11   C     C_2   0.644043 0.521156 0.059498 -0.276739
C12   C     C_2   0.496976 0.539787 0.129962 0.378982
C13   C     C_2   0.647230 0.532430 0.925287 -0.145846
C14   C     C_2   0.508452 0.478747 0.867448 -0.241683
H1    H     H_    0.761936 0.486500 0.098492 0.139090
H2    H     H_    0.934853 0.968438 0.646078 0.159178
H3    H     H_    0.729556 0.879936 0.698766 0.104881
H4    H     H_    0.836993 0.232982 0.701287 0.250993
H5    H     H_    0.626115 0.148654 0.753041 0.206809
H6    H     H_    0.760742 0.997137 0.916163 0.276112
H7    H     H_    0.809090 0.204153 0.932571 0.269707
H8    H     H_    0.972337 0.082452 0.864438 0.264180
H9    H     H_    0.763932 0.580066 0.874396 0.154338
H10   H     H_    0.396040 0.421350 0.916350 0.163601
H11   H     H_    0.303217 0.991307 0.505471 0.162769
H12   H     H_    0.013570 0.382659 0.406818 0.198233
H13   H     H_    0.986391 0.617334 0.593186 0.183820
H14   H     H_    0.130825 0.586352 0.189054 0.204347
H15   H     H_    0.208027 0.407394 0.117158 0.129672
H16   H     H_    0.119285 0.551700 0.024975 0.177276
N1    N     N_2   0.950320 0.457950 0.466680 -0.174248
N2    N     N_2   0.049680 0.542050 0.533320 -0.177177
O1    O     O_R   0.389250 0.738570 0.508180 -0.637777
O2    O     O_3   0.740360 0.019485 0.534683 -0.607195
O3    O     O_R   0.678390 0.711630 0.486820 -0.606372
O4    O     O_R   0.355470 0.513470 0.691600 -0.611924
O5    O     O_R   0.644610 0.486520 0.670240 -0.648985
O6    O     O_R   0.321610 0.288370 0.513180 -0.632759
O7    O     O_R   0.610750 0.261430 0.491820 -0.545472
O8    O     O_R   0.355390 0.513480 0.329760 -0.614540
O9    O     O_R   0.644530 0.486530 0.308400 -0.640041
O10   O     O_3   0.362299 0.616544 0.081173 -0.592479
Zn1   Zn    Zn3+2 0.306940 0.517990 0.514260 0.938551
Zn2   Zn    Zn3+2 0.693060 0.482010 0.485740 0.950245

loop_
_geom_bond_atom_site_label_1
_geom_bond_atom_site_label_2
_ccdc_geom_bond_type
C4    H2    S    
C3    H16   S    
C12   O10   S    
C11   C12   D    
C3    O10   S    
O7    Zn2   S    
C5    H5    S    
C8    O5    A    
C6    H6    S    
C2    C7    D    
C7    H11   S    
C9    O7    A    
C2    O2    S    
O5    Zn2   S    
C1    O1    A    
O6    Zn1   S    
C13   C14   D    
C10   O9    A    
O3    Zn2   S    
C11   C13   S    
C1    O3    A    
C10   C12   S    
C4    H3    S    
C9    O6    A    
N2    Zn1   S    
C5    C6    S    
O9    Zn2   S    
C4    O2    S    
N1    Zn2   S    
O1    Zn1   S    
H12   N1    S    
C3    H15   S    
C13   H9    S    
C10   O8    A    
C1    C2    S    
C8    O4    A    
C14   H10   S    
C7    C9    S    
C3    H14   S    
O4    Zn1   S    
C8    C14   S    
C5    H4    S    
H13   N2    S    
C6    H7    S    
C11   H1    S    
O8    Zn1   S    
N1    N2    D    
C4    C5    S    
C6    H8    S    
