data_mof_unit_4445.cif
_audit_creation_date              2012-12-10T18:52:10-0500
_audit_creation_method            fapswitch 2.2
_symmetry_space_group_name_H-M    P1
_symmetry_Int_Tables_number       1
_space_group_crystal_system       triclinic
_cell_length_a                    15.689408
_cell_length_b                    10.823609
_cell_length_c                    9.82086
_cell_angle_alpha                 89.579131
_cell_angle_beta                  91.284546
_cell_angle_gamma                 90.051535
_cell_volume                      1667.2747871

loop_
_atom_site_label
_atom_site_type_symbol
_atom_type_description
_atom_site_fract_x
_atom_site_fract_y
_atom_site_fract_z
_atom_type_partial_charge
C1    C     C_R   0.502528 0.259605 0.501223 0.915540
C2    C     C_R   0.435003 0.445069 0.069796 0.560347
C3    C     C_R   0.337772 0.500797 0.498795 0.886733
C4    C     C_R   0.662018 0.497653 0.501424 0.869274
C5    C     C_3   0.976762 0.416563 0.616359 0.486604
C6    C     C_3   0.021519 0.542769 0.395918 0.429603
C7    C     C_3   0.031740 0.366348 0.501868 0.442324
C8    C     C_3   0.968227 0.593399 0.511428 0.428950
C9    C     C_1   0.248805 0.498309 0.497310 -0.202014
C10   C     C_1   0.750357 0.486657 0.504804 -0.206352
C11   C     C_3   0.029127 0.537544 0.621561 -0.442774
C12   C     C_R   0.504634 0.739964 0.499886 0.923691
C13   C     C_3   0.969525 0.421105 0.391451 -0.560656
C14   C     C_3   0.082848 0.486872 0.504165 -0.050494
C15   C     C_3   0.915944 0.473388 0.508694 -0.083540
C16   C     C_1   0.173526 0.493957 0.499341 0.059979
C17   C     C_1   0.825316 0.477886 0.507557 0.015753
C18   C     C_R   0.509863 0.063162 0.380196 0.407180
C19   C     C_R   0.504046 0.934733 0.625780 0.423232
C20   C     C_3   0.069887 0.192239 0.381734 0.097330
C21   C     C_3   0.135876 0.089284 0.381444 -0.854021
C22   C     C_3   0.985605 0.802643 0.545465 0.117107
C23   C     C_R   0.529682 0.938764 0.380510 -0.059451
C24   C     C_3   0.940154 0.926638 0.538634 -0.863036
C25   C     C_3   0.896468 0.256419 0.705563 0.123698
C26   C     C_3   0.899936 0.159937 0.818915 -0.840291
C27   C     C_3   0.983619 0.634773 0.191224 0.127151
C28   C     C_3   0.013814 0.721547 0.079740 -0.855139
C29   C     C_3   0.406858 0.096951 0.217398 0.152708
C30   C     C_3   0.399310 0.097257 0.063083 -0.829392
C31   C     C_3   0.396322 0.877851 0.763803 0.109918
C32   C     C_3   0.372080 0.789187 0.877608 -0.813950
C33   C     C_3   0.571395 0.885899 0.254465 -0.323632
C34   C     C_R   0.518638 0.060971 0.630211 -0.072211
C35   C     C_3   0.661956 0.838824 0.289092 -0.339037
C36   C     C_3   0.717599 0.836625 0.163415 -0.912388
C37   C     C_3   0.542719 0.117475 0.768363 -0.304787
C38   C     C_3   0.634352 0.167944 0.770878 -0.335585
C39   C     C_3   0.658424 0.219147 0.911025 -0.884346
C40   C     C_3   0.706126 0.578791 0.885366 0.064620
C41   C     C_3   0.771348 0.661153 0.816482 -0.759179
C42   C     C_3   0.291533 0.444021 0.106771 0.101415
C43   C     C_3   0.220019 0.364604 0.161464 -0.822778
C44   C     C_R   0.513501 0.872159 0.501248 -0.277321
C45   C     C_R   0.510336 0.126972 0.504806 -0.283399
C46   C     C_R   0.562921 0.558584 0.074432 -0.334188
C47   C     C_R   0.437588 0.440595 0.925503 -0.365035
C48   C     C_R   0.563767 0.558628 0.929664 0.566614
H1    H     H_    0.942872 0.373722 0.300096 0.167017
H2    H     H_    0.038962 0.804492 0.472545 0.166504
H3    H     H_    0.011385 0.789726 0.651069 0.138780
H4    H     H_    0.884339 0.925354 0.606246 0.260261
H5    H     H_    0.984268 0.000927 0.572775 0.234631
H6    H     H_    0.917959 0.946415 0.432518 0.252523
H7    H     H_    0.909558 0.209038 0.607859 0.149575
H8    H     H_    0.831049 0.295628 0.700588 0.137194
H9    H     H_    0.886897 0.203696 0.918243 0.252407
H10   H     H_    0.963997 0.116341 0.824117 0.265552
H11   H     H_    0.851283 0.087361 0.798792 0.204171
H12   H     H_    0.054787 0.582746 0.714957 0.169315
H13   H     H_    0.928743 0.679144 0.241646 0.171768
H14   H     H_    0.962195 0.547215 0.142595 0.147903
H15   H     H_    0.067825 0.679222 0.025686 0.255652
H16   H     H_    0.960857 0.739536 0.005268 0.210598
H17   H     H_    0.034911 0.810646 0.124749 0.255133
H18   H     H_    0.364864 0.169635 0.258545 0.193204
H19   H     H_    0.382827 0.005340 0.253240 0.097307
H20   H     H_    0.437441 0.020052 0.023132 0.236457
H21   H     H_    0.331627 0.085437 0.030270 0.207257
H22   H     H_    0.423943 0.185008 0.020782 0.275525
H23   H     H_    0.611491 0.606813 0.132435 0.179341
H24   H     H_    0.359622 0.850579 0.670083 0.119484
H25   H     H_    0.377500 0.973130 0.792334 0.129324
H26   H     H_    0.411924 0.806099 0.970471 0.244868
H27   H     H_    0.303938 0.801867 0.902281 0.194050
H28   H     H_    0.381633 0.692510 0.844560 0.266221
H29   H     H_    0.684323 0.788949 0.078068 0.282927
H30   H     H_    0.732585 0.932484 0.130514 0.263115
H31   H     H_    0.778296 0.787748 0.187850 0.255004
H32   H     H_    0.693467 0.899734 0.365902 0.228942
H33   H     H_    0.658724 0.744415 0.333382 0.236270
H34   H     H_    0.389355 0.390502 0.868052 0.176121
H35   H     H_    0.531762 0.813700 0.204759 0.208470
H36   H     H_    0.577297 0.958639 0.174781 0.241531
H37   H     H_    0.614122 0.294374 0.938544 0.262933
H38   H     H_    0.655891 0.144878 0.989543 0.272093
H39   H     H_    0.724199 0.256814 0.909797 0.237435
H40   H     H_    0.679221 0.092127 0.746720 0.214168
H41   H     H_    0.642343 0.242018 0.693593 0.231095
H42   H     H_    0.495651 0.187353 0.799625 0.209794
H43   H     H_    0.540939 0.047064 0.850821 0.230464
H44   H     H_    0.710819 0.484211 0.842615 0.163316
H45   H     H_    0.085620 0.258052 0.298508 0.153041
H46   H     H_    0.723529 0.574792 0.995674 0.116064
H47   H     H_    0.773090 0.753341 0.865334 0.237434
H48   H     H_    0.835661 0.618669 0.825925 0.218386
H49   H     H_    0.754437 0.673518 0.706938 0.274239
H50   H     H_    0.279089 0.455745 0.995461 0.122265
H51   H     H_    0.289210 0.536435 0.155472 0.168000
H52   H     H_    0.231901 0.343928 0.270966 0.260835
H53   H     H_    0.158282 0.413969 0.148729 0.236257
H54   H     H_    0.216486 0.276041 0.105186 0.239534
H55   H     H_    0.005720 0.152086 0.360622 0.142634
H56   H     H_    0.123159 0.021173 0.463530 0.255755
H57   H     H_    0.133389 0.041348 0.281840 0.210124
H58   H     H_    0.200729 0.128465 0.397927 0.244517
N1    N     N_R   0.499980 0.499970 0.857200 -0.130379
N2    N     N_R   0.500020 0.500030 0.142800 -0.123056
O1    O     O_R   0.499990 0.316750 0.614620 -0.641734
O2    O     O_3   0.926605 0.708901 0.512391 -0.610901
O3    O     O_3   0.955831 0.350954 0.735911 -0.594937
O4    O     O_3   0.051556 0.612024 0.284519 -0.618054
O5    O     O_3   0.492545 0.121791 0.256956 -0.590124
O6    O     O_3   0.485282 0.871815 0.744898 -0.572730
O7    O     O_3   0.623534 0.627715 0.860723 -0.560717
O8    O     O_3   0.370445 0.386045 0.137997 -0.594831
O9    O     O_R   0.500010 0.683250 0.385380 -0.651536
O10   O     O_R   0.500000 0.316780 0.385290 -0.532765
O11   O     O_R   0.500000 0.683220 0.614710 -0.521840
O12   O     O_R   0.376780 0.499970 0.614640 -0.630206
O13   O     O_R   0.623220 0.500030 0.385360 -0.627272
O14   O     O_R   0.376780 0.500000 0.385310 -0.582562
O15   O     O_R   0.623220 0.500000 0.614690 -0.592574
O16   O     O_3   0.071196 0.249119 0.510440 -0.596858
Zn1   Zn    Zn3+2 0.500000 0.499980 0.653120 0.979552
Zn2   Zn    Zn3+2 0.500000 0.500020 0.346880 0.983965

loop_
_geom_bond_atom_site_label_1
_geom_bond_atom_site_label_2
_ccdc_geom_bond_type
C24   H4    S    
C20   H45   S    
C34   C37   S    
C35   C36   S    
C25   H8    S    
C39   H39   S    
C7    O16   S    
C32   H27   S    
C35   H33   S    
C20   H55   S    
C38   H41   S    
C29   C30   S    
C37   H42   S    
C9    C16   T    
C5    C11   S    
C36   H29   S    
C42   H50   S    
C32   H26   S    
C38   C39   S    
C11   C14   S    
O15   Zn1   S    
C40   O7    S    
C10   C17   T    
C24   H6    S    
C35   H32   S    
C47   H34   S    
C27   H13   S    
C1    O1    A    
C29   H19   S    
C21   H56   S    
C2    O8    S    
C7    C14   S    
C23   C33   S    
C46   N2    A    
C14   C16   S    
O9    Zn2   S    
C31   O6    S    
C21   H58   S    
C3    O14   A    
C22   H2    S    
C18   O5    S    
C30   H22   S    
C46   C48   A    
C5    C15   S    
C37   H43   S    
C18   C23   A    
C43   H52   S    
N1    Zn1   S    
C5    C7    S    
O12   Zn1   S    
C6    C8    S    
C5    O3    S    
C19   O6    S    
C22   O2    S    
C25   C26   S    
C19   C34   A    
C23   C44   A    
C12   O9    A    
C4    O15   A    
C38   H40   S    
C26   H9    S    
O14   Zn2   S    
C43   H53   S    
C37   C38   S    
C3    C9    S    
C27   H14   S    
C8    O2    S    
C6    C14   S    
C12   O11   A    
C26   H10   S    
C31   C32   S    
C34   C45   A    
C40   H44   S    
C33   H35   S    
C46   H23   S    
C48   O7    S    
C13   H1    S    
O11   Zn1   S    
O1    Zn1   S    
C40   C41   S    
C27   O4    S    
C8    C15   S    
C47   N1    A    
C13   C15   S    
C22   C24   S    
C42   C43   S    
C39   H37   S    
C4    C10   S    
C11   H12   S    
C18   C45   A    
C28   H16   S    
C30   H21   S    
C19   C44   A    
C26   H11   S    
C42   O8    S    
C15   C17   S    
C29   O5    S    
C31   H24   S    
C6    O4    S    
C25   H7    S    
C40   H46   S    
C36   H31   S    
C32   H28   S    
C2    C47   A    
C28   H17   S    
C24   H5    S    
C43   H54   S    
O13   Zn2   S    
C12   C44   S    
C36   H30   S    
C42   H51   S    
C6    C13   S    
C1    C45   S    
C41   H47   S    
C8    C11   S    
C2    N2    A    
C48   N1    A    
C33   C35   S    
C4    O13   A    
C41   H49   S    
C1    O10   A    
C33   H36   S    
C30   H20   S    
C20   O16   S    
C31   H25   S    
C3    O12   A    
C25   O3    S    
C29   H18   S    
C41   H48   S    
C28   H15   S    
C7    C13   S    
C20   C21   S    
C27   C28   S    
O10   Zn2   S    
C39   H38   S    
N2    Zn2   S    
C21   H57   S    
C22   H3    S    
