data_mof_unit_2968.cif
_audit_creation_date              2012-12-10T20:43:17-0500
_audit_creation_method            fapswitch 2.2
_symmetry_space_group_name_H-M    P1
_symmetry_Int_Tables_number       1
_space_group_crystal_system       triclinic
_cell_length_a                    15.822305
_cell_length_b                    10.689881
_cell_length_c                    9.870634
_cell_angle_alpha                 88.94168
_cell_angle_beta                  90.713298
_cell_angle_gamma                 90.389828
_cell_volume                      1669.05456576

loop_
_atom_site_label
_atom_site_type_symbol
_atom_type_description
_atom_site_fract_x
_atom_site_fract_y
_atom_site_fract_z
_atom_type_partial_charge
C1    C     C_R   0.503962 0.260039 0.501048 0.883490
C2    C     C_R   0.045477 0.551327 0.604097 -0.184223
C3    C     C_1   0.823884 0.506685 0.499152 0.007345
C4    C     C_1   0.176100 0.505255 0.494248 -0.027639
C5    C     C_1   0.250973 0.502508 0.497087 -0.165190
C6    C     C_1   0.749037 0.503339 0.501582 -0.158976
C7    C     C_R   0.529681 0.061316 0.621957 -0.073779
C8    C     C_R   0.521778 0.129670 0.501460 -0.114437
C9    C     C_R   0.535451 0.070369 0.378117 -0.223200
C10   C     C_R   0.536108 0.940886 0.373860 -0.032186
C11   C     C_R   0.522175 0.871808 0.495858 -0.104307
C12   C     C_R   0.339378 0.500036 0.499210 0.927702
C13   C     C_R   0.528036 0.933767 0.618892 -0.049190
C14   C     C_3   0.480286 0.919892 0.748562 0.320794
C15   C     C_3   0.480683 0.062420 0.752187 0.289404
C16   C     C_R   0.428722 0.468431 0.070461 0.120335
C17   C     C_R   0.566343 0.547466 0.073275 -0.128022
C18   C     C_R   0.565955 0.549932 0.929510 0.012598
C19   C     C_R   0.427943 0.471330 0.928006 0.054645
C20   C     C_3   0.376934 0.352536 0.924509 0.360704
C21   C     C_3   0.380291 0.348430 0.079190 -0.526197
C22   C     C_R   0.504619 0.740195 0.498519 0.916741
C23   C     C_R   0.660625 0.500259 0.500723 0.887559
C24   C     C_R   0.958101 0.551727 0.605867 -0.254679
C25   C     C_R   0.912738 0.510459 0.493164 0.025545
C26   C     C_R   0.953513 0.471352 0.375835 0.497862
C27   C     C_R   0.041841 0.467709 0.375450 -0.111066
C28   C     C_R   0.086968 0.508422 0.490243 0.046614
H1    H     H_    0.080730 0.582851 0.692075 0.147466
H2    H     H_    0.619927 0.584670 0.129069 0.154834
H3    H     H_    0.412642 0.275887 0.879128 0.157004
H4    H     H_    0.318231 0.358879 0.128905 0.221329
H5    H     H_    0.419293 0.270322 0.121082 0.196232
H6    H     H_    0.925891 0.582828 0.695384 0.169640
H7    H     H_    0.539310 0.123707 0.283747 0.177578
H8    H     H_    0.519173 0.871642 0.828671 0.112305
H9    H     H_    0.416721 0.103307 0.737274 0.131164
N1    N     N_R   0.499440 0.499140 0.142800 -0.097264
N2    N     N_R   0.499440 0.499180 0.857150 -0.141689
O1    O     O_R   0.500010 0.316790 0.614690 -0.620679
O2    O     O_R   0.500000 0.316760 0.385350 -0.620741
O3    O     O_R   0.378030 0.499990 0.614640 -0.595546
O4    O     O_R   0.378020 0.499950 0.385300 -0.614776
O5    O     O_R   0.500000 0.683240 0.614650 -0.592034
O6    O     O_R   0.499990 0.683210 0.385310 -0.625025
O7    O     O_R   0.621980 0.500050 0.614700 -0.617454
O8    O     O_R   0.621970 0.500010 0.385360 -0.620959
Zn1   Zn    Zn3+2 0.500010 0.500020 0.653130 0.976256
Zn2   Zn    Zn3+2 0.499990 0.499980 0.346870 0.959107
O9    O     O_3   0.521310 0.108025 0.871676 -0.640728
C29   C     C_3   0.609882 0.121480 0.861641 -0.273070
H10   H     H_    0.626449 0.196726 0.787198 0.187118
H11   H     H_    0.640189 0.031653 0.835671 0.158786
H12   H     H_    0.635492 0.149670 0.961728 0.189310
C30   C     C_1   0.634725 0.612930 0.862612 0.213622
N3    N     N_1   0.690298 0.664929 0.810563 -0.233816
O10   O     O_3   0.293380 0.359481 0.868478 -0.576473
C31   C     C_3   0.253363 0.476240 0.884957 -0.229344
H13   H     H_    0.283123 0.550106 0.820680 0.169116
H14   H     H_    0.252893 0.505302 0.992310 0.147822
H15   H     H_    0.186564 0.467237 0.851033 0.183697
O11   O     O_3   0.907125 0.427472 0.266504 -0.597503
C32   C     C_3   0.889373 0.529219 0.177935 -0.305351
H16   H     H_    0.948442 0.572468 0.137997 0.156230
H17   H     H_    0.850462 0.600980 0.227918 0.159628
H18   H     H_    0.852316 0.494219 0.090161 0.198738
C33   C     C_1   0.085116 0.421158 0.258422 0.221538
N4    N     N_1   0.119698 0.383918 0.164894 -0.206408
C34   C     C_1   0.544472 0.885523 0.242127 0.216460
N5    N     N_1   0.551122 0.842355 0.136160 -0.228529
O12   O     O_3   0.398317 0.870417 0.726207 -0.603039
C35   C     C_3   0.363153 0.834879 0.851702 -0.279410
H19   H     H_    0.361486 0.915034 0.922047 0.174338
H20   H     H_    0.398489 0.755295 0.898835 0.163008
H21   H     H_    0.297121 0.803079 0.834056 0.179266

loop_
_geom_bond_atom_site_label_1
_geom_bond_atom_site_label_2
_ccdc_geom_bond_type
C8    C9    A    
C7    C13   A    
C2    C28   A    
C18   N2    A    
C32   H17   S    
C35   H20   S    
C16   C21   S    
C1    C8    S    
C14   O12   S    
C11   C22   S    
C19   C20   S    
O6    Zn2   S    
C30   N3    T    
C29   H12   S    
C3    C6    T    
C31   H15   S    
C7    C15   S    
C17   C18   A    
C26   C27   A    
C32   H18   S    
O12   C35   S    
O8    Zn2   S    
C23   O7    A    
O3    Zn1   S    
C13   C14   S    
C25   C26   A    
C14   H8    S    
C17   H2    S    
C11   C13   A    
C35   H21   S    
O10   C31   S    
O11   C32   S    
C19   N2    A    
C18   C30   S    
C2    H1    S    
C4    C5    T    
O2    Zn2   S    
C4    C28   S    
C22   O5    A    
O9    C29   S    
C12   O4    A    
C26   O11   S    
C17   N1    A    
C16   C19   A    
C2    C24   A    
C34   N5    T    
C21   H4    S    
C24   H6    S    
C31   H13   S    
C21   H5    S    
C10   C11   A    
C6    C23   S    
C29   H11   S    
C31   H14   S    
C29   H10   S    
C10   C34   S    
O5    Zn1   S    
C3    C25   S    
C22   O6    A    
C27   C33   S    
C24   C25   A    
C5    C12   S    
C20   C21   S    
C7    C8    A    
C9    C10   A    
C15   O9    S    
C1    O2    A    
C27   C28   A    
C9    H7    S    
O1    Zn1   S    
C14   C15   S    
O4    Zn2   S    
C12   O3    A    
C1    O1    A    
N1    Zn2   S    
C20   O10   S    
C32   H16   S    
O7    Zn1   S    
C15   H9    S    
C33   N4    T    
C16   N1    A    
C35   H19   S    
N2    Zn1   S    
C20   H3    S    
C23   O8    A    
