data_mof_unit_2096.cif
_audit_creation_date              2012-12-10T18:06:37-0500
_audit_creation_method            fapswitch 2.2
_symmetry_space_group_name_H-M    P1
_symmetry_Int_Tables_number       1
_space_group_crystal_system       triclinic
_cell_length_a                    12.605362
_cell_length_b                    13.148346
_cell_length_c                    15.284434
_cell_angle_alpha                 83.39489
_cell_angle_beta                  98.533793
_cell_angle_gamma                 96.880327
_cell_volume                      2474.91827062

loop_
_atom_site_label
_atom_site_type_symbol
_atom_type_description
_atom_site_fract_x
_atom_site_fract_y
_atom_site_fract_z
_atom_type_partial_charge
C1    C     C_R   0.442080 0.308600 0.507032 0.854335
C2    C     C_R   0.692824 0.562471 0.926587 0.035831
C3    C     C_R   0.583474 0.573413 0.892569 0.049543
C4    C     C_R   0.436701 0.515964 0.335314 0.851664
C5    C     C_R   0.761462 0.531036 0.872540 0.627550
C6    C     C_R   0.720376 0.505154 0.787107 -0.282435
C7    C     C_R   0.542692 0.539144 0.809965 -0.270741
C8    C     C_R   0.643237 0.943569 0.366383 -0.283205
C9    C     C_R   0.582704 0.801274 0.467955 -0.186601
C10   C     C_R   0.331895 0.158653 0.570627 -0.186339
C11   C     C_R   0.311995 0.052984 0.589838 -0.132276
C12   C     C_R   0.465846 0.591250 0.095136 0.004236
C13   C     C_R   0.370292 0.987415 0.555304 -0.180787
C14   C     C_R   0.446368 0.027133 0.496961 0.111953
C15   C     C_R   0.453572 0.132776 0.467219 0.089374
C16   C     C_R   0.556009 0.691693 0.488553 0.902597
C17   C     C_R   0.515501 0.965682 0.467013 0.091759
C18   C     C_R   0.577431 0.005913 0.398033 0.083327
C19   C     C_R   0.571085 0.107010 0.360575 -0.206240
C20   C     C_R   0.509667 0.169794 0.394619 -0.201422
C21   C     C_R   0.525962 0.865515 0.504986 -0.341655
C22   C     C_R   0.644410 0.840559 0.400025 0.635229
C23   C     C_R   0.359663 0.612980 0.059482 -0.083370
C24   C     C_R   0.405328 0.199051 0.511739 -0.119012
C25   C     C_R   0.138668 0.641769 0.623488 -0.241080
C26   C     C_R   0.757503 0.380460 0.394976 0.031319
C27   C     C_R   0.852702 0.354562 0.372631 -0.242034
C28   C     C_R   0.565494 0.490829 0.664230 0.898822
C29   C     C_R   0.950442 0.399608 0.412826 -0.183180
C30   C     C_R   0.952782 0.471348 0.475653 0.017716
C31   C     C_R   0.853445 0.494849 0.496103 0.244195
C32   C     C_R   0.049027 0.520730 0.518533 -0.009831
C33   C     C_R   0.044217 0.592215 0.580746 0.164278
C34   C     C_R   0.546332 0.598038 0.038797 0.032796
C35   C     C_R   0.945292 0.613738 0.599455 -0.245606
C36   C     C_R   0.851183 0.565767 0.557381 -0.180489
C37   C     C_R   0.150763 0.502359 0.502186 -0.048786
C38   C     C_R   0.236773 0.620179 0.604119 0.036595
C39   C     C_R   0.406298 0.544368 0.240153 -0.061397
C40   C     C_R   0.610170 0.507721 0.756073 -0.161114
C41   C     C_R   0.279324 0.603920 0.115418 -0.086232
C42   C     C_R   0.302664 0.570200 0.205377 -0.208384
C43   C     C_R   0.486357 0.554572 0.184821 -0.160697
C44   C     C_R   0.514364 0.606609 0.946125 -0.119807
C45   C     C_R   0.412308 0.642247 0.911768 0.307336
C46   C     C_R   0.335612 0.643201 0.968645 0.613127
C47   C     C_R   0.656843 0.592511 0.071494 -0.182319
C48   C     C_R   0.729854 0.578730 0.015053 -0.161226
F1    F     F_    0.236954 0.672814 0.934453 -0.620564
F2    F     F_    0.867420 0.523614 0.902743 -0.655687
F3    F     F_    0.699911 0.778581 0.362603 -0.655966
H1    H     H_    0.614907 0.138098 0.305888 0.144395
H2    H     H_    0.940540 0.668106 0.646623 0.172221
H3    H     H_    0.136563 0.696400 0.671027 0.183772
H4    H     H_    0.163163 0.449780 0.456585 0.126933
H5    H     H_    0.681053 0.346526 0.363654 0.126981
H6    H     H_    0.022013 0.376921 0.393109 0.139681
H7    H     H_    0.850783 0.300033 0.324323 0.154175
H8    H     H_    0.777705 0.585984 0.573954 0.206970
H9    H     H_    0.774528 0.482756 0.745681 0.192590
H10   H     H_    0.813591 0.573405 0.042423 0.199272
H11   H     H_    0.198194 0.621862 0.089652 0.200141
H12   H     H_    0.690045 0.973373 0.313244 0.170475
H13   H     H_    0.239843 0.564367 0.247504 0.162210
H14   H     H_    0.564256 0.530574 0.212236 0.156851
H15   H     H_    0.688747 0.599758 0.140332 0.160509
H16   H     H_    0.455263 0.710765 0.801590 0.329430
H17   H     H_    0.486866 0.833686 0.561760 0.170588
H18   H     H_    0.292487 0.208806 0.604038 0.166777
H19   H     H_    0.352170 0.906148 0.573564 0.138922
H20   H     H_    0.254513 0.021906 0.634625 0.158773
H21   H     H_    0.505255 0.247317 0.362821 0.149655
H22   H     H_    0.311254 0.657495 0.636159 0.158689
H23   H     H_    0.456915 0.534421 0.787822 0.220947
N1    N     N_R   0.239390 0.551900 0.544730 -0.111629
N2    N     N_R   0.759950 0.448600 0.455730 -0.125470
O1    O     O_R   0.374950 0.371210 0.521360 -0.612855
O2    O     O_R   0.542050 0.338030 0.492790 -0.609487
O3    O     O_R   0.368720 0.526070 0.390200 -0.613040
O4    O     O_R   0.535820 0.492890 0.361630 -0.619853
O5    O     O_R   0.457950 0.661970 0.507210 -0.620966
O6    O     O_R   0.625050 0.628790 0.478640 -0.577836
O7    O     O_R   0.464180 0.507110 0.638370 -0.611969
O8    O     O_R   0.631280 0.473930 0.609800 -0.635801
O9    O     O_3   0.387128 0.683099 0.824879 -0.743792
Zn1   Zn    Zn3+2 0.388420 0.522150 0.519080 0.945790
Zn2   Zn    Zn3+2 0.611580 0.477850 0.480920 0.960852

loop_
_geom_bond_atom_site_label_1
_geom_bond_atom_site_label_2
_ccdc_geom_bond_type
O2    Zn2   S    
C28   O8    A    
C1    O1    A    
C41   C42   A    
C19   C20   A    
O8    Zn2   S    
C36   H8    S    
C31   N2    A    
C45   C46   A    
C46   F1    S    
C26   C27   A    
C9    C16   S    
C4    O4    A    
C12   C43   A    
C3    C7    A    
C5    C6    A    
C11   H20   S    
C9    C22   A    
C35   H2    S    
C13   H19   S    
C28   C40   S    
O6    Zn2   S    
C27   C29   A    
C18   C19   A    
C19   H1    S    
C35   C36   A    
C8    C22   A    
C7    C40   A    
C39   C42   A    
C47   H15   S    
O5    Zn1   S    
C37   N1    A    
C23   C46   A    
C13   C14   A    
C28   O7    A    
C1    O2    A    
C14   C17   A    
C41   H11   S    
C7    H23   S    
C38   N1    A    
C15   C20   A    
C3    C44   A    
H16   O9    S    
C6    H9    S    
C34   C44   A    
C25   H3    S    
C4    O3    A    
C39   C43   A    
C2    C48   A    
C8    C18   A    
C45   O9    S    
C29   C30   A    
C25   C38   A    
N1    Zn1   S    
C26   N2    A    
C47   C48   A    
C12   C23   A    
C4    C39   S    
C43   H14   S    
C16   O6    A    
C17   C18   A    
C32   C37   A    
N2    Zn2   S    
C15   C24   A    
C29   H6    S    
O1    Zn1   S    
C21   H17   S    
C6    C40   A    
C5    F2    S    
C2    C5    A    
C12   C34   A    
C42   H13   S    
C44   C45   A    
C14   C15   A    
C27   H7    S    
C26   H5    S    
O4    Zn2   S    
C23   C41   A    
C10   C24   A    
C32   C33   A    
C2    C3    A    
C30   C32   A    
C11   C13   A    
C9    C21   A    
C48   H10   S    
C30   C31   A    
C16   O5    A    
C33   C35   A    
C17   C21   A    
C10   C11   A    
C8    H12   S    
C37   H4    S    
C10   H18   S    
O7    Zn1   S    
C1    C24   S    
C31   C36   A    
C20   H21   S    
C34   C47   A    
O3    Zn1   S    
C25   C33   A    
C22   F3    S    
C38   H22   S    
