data_mof_unit_1509.cif
_audit_creation_date              2012-12-10T17:18:56-0500
_audit_creation_method            fapswitch 2.2
_symmetry_space_group_name_H-M    P1
_symmetry_Int_Tables_number       1
_space_group_crystal_system       triclinic
_cell_length_a                    9.649062
_cell_length_b                    10.784787
_cell_length_c                    13.366949
_cell_angle_alpha                 94.747277
_cell_angle_beta                  71.976559
_cell_angle_gamma                 90.415964
_cell_volume                      1317.96438294

loop_
_atom_site_label
_atom_site_type_symbol
_atom_type_description
_atom_site_fract_x
_atom_site_fract_y
_atom_site_fract_z
_atom_type_partial_charge
C1    C     C_R   0.498617 0.737373 0.504271 0.908958
C2    C     C_R   0.431445 0.470646 0.978527 0.031982
C3    C     C_R   0.468494 0.439116 0.868104 0.026847
C4    C     C_R   0.541018 0.463814 0.028833 0.025193
C5    C     C_R   0.675452 0.402304 0.972712 0.044713
C6    C     C_R   0.699767 0.350999 0.869445 -0.307802
C7    C     C_R   0.596724 0.366463 0.816923 0.396998
C8    C     C_R   0.524243 0.520486 0.131339 0.367579
C9    C     C_R   0.757076 0.431692 0.126667 -0.246077
C10   C     C_R   0.371932 0.477405 0.814259 -0.095478
C11   C     C_R   0.333878 0.895144 0.698683 0.407445
C12   C     C_R   0.421264 0.491596 0.699568 0.881270
C13   C     C_R   0.251954 0.974708 0.785344 -0.216147
C14   C     C_R   0.248847 0.102185 0.779018 -0.185589
C15   C     C_R   0.327847 0.152981 0.686829 -0.102467
C16   C     C_R   0.411539 0.076841 0.597678 -0.006704
C17   C     C_R   0.413125 0.945964 0.602481 0.053371
C18   C     C_R   0.496791 0.871753 0.511182 -0.179609
C19   C     C_R   0.578603 0.925352 0.420669 -0.211125
C20   C     C_R   0.577382 0.052571 0.415168 0.408914
C21   C     C_R   0.495203 0.129088 0.504312 -0.164692
C22   C     C_R   0.911396 0.344465 0.350697 -0.184478
C23   C     C_R   0.499154 0.262938 0.500576 0.812783
C24   C     C_R   0.009293 0.275596 0.267812 -0.091740
C25   C     C_R   0.153001 0.274377 0.261469 -0.332041
C26   C     C_R   0.201583 0.336402 0.340533 0.458068
C27   C     C_R   0.105213 0.421092 0.423421 0.159555
C28   C     C_R   0.954604 0.422909 0.425328 0.125992
C29   C     C_R   0.896805 0.573245 0.570890 -0.033114
C30   C     C_R   0.044091 0.573152 0.570981 -0.071945
C31   C     C_R   0.578865 0.501732 0.299783 0.778787
C32   C     C_R   0.783774 0.390129 0.021132 -0.158307
C33   C     C_R   0.624476 0.490552 0.183851 -0.150922
C34   C     C_R   0.228145 0.513401 0.872779 -0.231056
C35   C     C_R   0.183364 0.519770 0.982275 -0.181402
C36   C     C_R   0.284031 0.500997 0.035050 -0.070848
Cu1   Cu    Cu3+1 0.359340 0.500010 0.500010 0.999785
Cu2   Cu    Cu3+1 0.640660 0.499990 0.499990 0.974946
H1    H     H_    0.838160 0.414448 0.164474 0.167776
H2    H     H_    0.190877 0.937733 0.858769 0.145828
H3    H     H_    0.185736 0.162353 0.846421 0.159840
H4    H     H_    0.322349 0.252691 0.686654 0.146592
H5    H     H_    0.817776 0.633712 0.629246 0.140862
H6    H     H_    0.801840 0.332715 0.353249 0.213487
H7    H     H_    0.227311 0.216018 0.197587 0.156789
H8    H     H_    0.799251 0.297728 0.829572 0.143578
H9    H     H_    0.074361 0.633426 0.629339 0.148525
H10   H     H_    0.886934 0.343610 0.978612 0.152934
H11   H     H_    0.150214 0.538181 0.833968 0.161235
H12   H     H_    0.242763 0.505047 0.120117 0.191021
H13   H     H_    0.071173 0.543792 0.026642 0.155040
H14   H     H_    0.641024 0.866821 0.351628 0.164115
N1    N     N_R   0.852480 0.498790 0.499000 -0.182623
N2    N     N_R   0.148360 0.498710 0.498970 -0.183033
O1    O     O_R   0.381190 0.680360 0.500010 -0.555801
O2    O     O_R   0.618760 0.680340 0.500000 -0.578836
O3    O     O_R   0.323240 0.499990 0.650990 -0.590805
O4    O     O_R   0.560820 0.499960 0.650980 -0.532496
O5    O     O_R   0.381240 0.319660 0.500000 -0.526566
O6    O     O_R   0.618810 0.319640 0.499990 -0.577303
O7    O     O_R   0.439180 0.500040 0.349020 -0.512245
O8    O     O_R   0.676760 0.500010 0.349010 -0.614601
O9    O     O_3   0.339970 0.769143 0.708496 -0.760453
H15   H     H_    0.279419 0.750831 0.780230 0.312139
O10   O     O_3   0.655377 0.096961 0.320243 -0.722614
H16   H     H_    0.626659 0.184300 0.318317 0.307676
C37   C     C_1   0.961616 0.199942 0.190895 0.293659
N3    N     N_1   0.924014 0.139296 0.128880 -0.259752
O11   O     O_3   0.338830 0.302962 0.338365 -0.694545
H17   H     H_    0.389964 0.247226 0.274882 0.303379
O12   O     O_3   0.416996 0.610924 0.175720 -0.744776
H18   H     H_    0.445191 0.665528 0.229336 0.326844
O13   O     O_3   0.612367 0.300657 0.720733 -0.725062
H19   H     H_    0.706549 0.253799 0.696873 0.328549

loop_
_geom_bond_atom_site_label_1
_geom_bond_atom_site_label_2
_ccdc_geom_bond_type
C16   C21   A    
O13   H19   S    
C31   O7    A    
C35   C36   A    
C4    C8    A    
C27   N2    A    
C7    O13   S    
C23   O5    A    
C30   N2    A    
C26   C27   A    
C29   C30   A    
C1    O2    A    
C18   C19   A    
C11   O9    S    
C5    C6    A    
C15   C16   A    
C9    H1    S    
C34   C35   A    
C13   H2    S    
C9    C32   A    
Cu2   O4    S    
C19   H14   S    
C22   H6    S    
C19   C20   A    
C16   C17   A    
C34   H11   S    
C31   C33   S    
C24   C37   S    
C5    C32   A    
C12   O4    A    
C22   C28   A    
C13   C14   A    
C29   H5    S    
C9    C33   A    
C32   H10   S    
C31   O8    A    
C23   O6    A    
C37   N3    T    
C30   H9    S    
C24   C25   A    
C25   C26   A    
C2    C4    A    
Cu1   Cu2   S    
C20   O10   S    
C17   C18   A    
C1    C18   S    
C10   C34   A    
Cu1   O5    S    
C10   C12   S    
C14   H3    S    
Cu2   O6    S    
C12   O3    A    
C21   C23   S    
C35   H13   S    
C22   C24   A    
Cu1   N2    S    
C25   H7    S    
C36   H12   S    
C2    C36   A    
C11   C17   A    
C8    O12   S    
C6    H8    S    
C15   H4    S    
C4    C5    A    
Cu1   O7    S    
C28   N1    A    
C6    C7    A    
C3    C7    A    
C2    C3    A    
C1    O1    A    
O12   H18   S    
C3    C10   A    
C11   C13   A    
Cu2   N1    S    
C29   N1    A    
C8    C33   A    
O11   H17   S    
O9    H15   S    
Cu1   O1    S    
Cu2   O2    S    
C20   C21   A    
O10   H16   S    
C27   C28   A    
C26   O11   S    
C14   C15   A    
Cu1   O3    S    
Cu2   O8    S    
