data_mof_unit_3130.cif
_audit_creation_date              2012-10-26T20:03:18-0400
_audit_creation_method            fapswitch 2.2
_symmetry_space_group_name_H-M    P1
_symmetry_Int_Tables_number       1
_space_group_crystal_system       triclinic
_cell_length_a                    10.609986
_cell_length_b                    12.349479
_cell_length_c                    13.200395
_cell_angle_alpha                 116.714774
_cell_angle_beta                  77.561258
_cell_angle_gamma                 101.373099
_cell_volume                      1498.70535507

loop_
_atom_site_label
_atom_site_type_symbol
_atom_type_description
_atom_site_fract_x
_atom_site_fract_y
_atom_site_fract_z
_atom_type_partial_charge
C1    C     C_R   0.510817 0.854811 0.286633 0.527642
C2    C     C_R   0.496166 0.566154 0.009499 0.031959
C3    C     C_R   0.458541 0.649576 0.124194 0.023487
C4    C     C_R   0.740384 0.999411 0.499759 0.550773
C5    C     C_R   0.455368 0.439583 0.976294 0.028030
C6    C     C_R   0.367204 0.399793 0.053584 0.051317
C7    C     C_R   0.319066 0.484965 0.161027 -0.141771
C8    C     C_R   0.362586 0.608062 0.195360 -0.125027
C9    C     C_R   0.500618 0.350962 0.868664 -0.137053
C10   C     C_R   0.367727 0.189502 0.911909 -0.139774
C11   C     C_R   0.516612 0.772642 0.163607 -0.004632
C12   C     C_3   0.021071 0.032657 0.607015 -0.125238
C13   C     C_R   0.701661 0.346411 0.325413 -0.138479
C14   C     C_R   0.324964 0.760066 0.646047 0.048282
C15   C     C_R   0.286887 0.663984 0.678175 -0.162868
C16   C     C_R   0.480650 0.145073 0.713368 0.540653
C17   C     C_R   0.352128 0.560256 0.623101 -0.137662
C18   C     C_R   0.456916 0.551416 0.534646 0.000239
C19   C     C_R   0.492671 0.652783 0.505010 0.179826
C20   C     C_R   0.527835 0.446670 0.474720 -0.024062
C21   C     C_R   0.630663 0.445967 0.386147 0.009885
C22   C     C_R   0.663863 0.545211 0.358847 -0.174507
C23   C     C_3   0.930483 0.919395 0.539678 -0.113785
C24   C     C_R   0.597436 0.646671 0.417743 -0.095234
C25   C     C_R   0.502024 0.341935 0.498006 0.006152
C26   C     C_R   0.674863 0.247795 0.354108 0.288133
C27   C     C_R   0.259672 0.000113 0.499764 0.544153
C28   C     C_3   0.978896 0.965290 0.392118 -0.132431
C29   C     C_3   0.034609 0.886689 0.431965 -0.122804
C30   C     C_3   0.122791 0.000024 0.499250 0.050307
C31   C     C_3   0.069400 0.078727 0.459349 -0.120808
C32   C     C_3   0.965464 0.111505 0.567252 -0.125718
C33   C     C_3   0.884838 0.177149 0.309013 -0.302526
C34   C     C_3   0.877196 0.998342 0.499858 0.044438
C35   C     C_R   0.325688 0.275115 0.021403 -0.134178
C36   C     C_R   0.453202 0.227922 0.834525 -0.002174
C37   C     C_R   0.592131 0.814913 0.084577 -0.133550
C38   C     C_R   0.616439 0.736181 0.969558 -0.143837
C39   C     C_R   0.571558 0.612874 0.932199 -0.122351
Cu1   Cu    Cu3+1 0.529830 0.098270 0.475420 0.951161
Cu2   Cu    Cu3+1 0.470170 0.901730 0.524580 0.908168
H1    H     H_    0.066195 0.794808 0.376550 0.104569
H2    H     H_    0.273735 0.840139 0.689386 0.123091
H3    H     H_    0.958465 0.934741 0.303801 0.102178
H4    H     H_    0.318643 0.488564 0.651230 0.099373
H5    H     H_    0.206475 0.669946 0.746031 0.099786
H6    H     H_    0.632418 0.718593 0.391857 0.184908
H7    H     H_    0.128676 0.143997 0.426344 0.114341
H8    H     H_    0.934016 0.203441 0.622569 0.107571
H9    H     H_    0.041681 0.060264 0.694845 0.102279
H10   H     H_    0.870890 0.854010 0.572396 0.121540
H11   H     H_    0.329617 0.094349 0.886417 0.119045
H12   H     H_    0.572415 0.375056 0.808629 0.116371
H13   H     H_    0.247396 0.456348 0.219010 0.102993
H14   H     H_    0.257946 0.244263 0.079874 0.100781
H15   H     H_    0.739839 0.105583 0.207310 0.216897
H16   H     H_    0.935035 0.243907 0.274345 0.103800
H17   H     H_    0.934059 0.093245 0.262043 0.127596
H18   H     H_    0.893973 0.215336 0.401362 0.171435
H19   H     H_    0.635054 0.908773 0.111902 0.125478
H20   H     H_    0.594772 0.557396 0.841731 0.103457
H21   H     H_    0.673869 0.770299 0.909308 0.115349
H22   H     H_    0.316708 0.670035 0.277157 0.147645
H23   H     H_    0.743487 0.545178 0.291683 0.107193
H24   H     H_    0.779031 0.345743 0.256489 0.090161
H25   H     H_    0.424703 0.334613 0.563296 0.121512
N1    N     N_R   0.575030 0.246270 0.438190 -0.214060
N2    N     N_R   0.425760 0.754330 0.561190 -0.237495
N3    N     N_2   0.749343 0.147899 0.293098 -0.450073
O1    O     O_R   0.537510 0.972500 0.318130 -0.476358
O2    O     O_R   0.487140 0.806530 0.359650 -0.531604
O3    O     O_R   0.708330 0.082950 0.479220 -0.471539
O4    O     O_R   0.657960 0.916980 0.520740 -0.526168
O5    O     O_R   0.512860 0.193470 0.640350 -0.513884
O6    O     O_R   0.462490 0.027500 0.681870 -0.505782
O7    O     O_R   0.342040 0.083020 0.479260 -0.510980
O8    O     O_R   0.291670 0.917050 0.520780 -0.515543

loop_
_geom_bond_atom_site_label_1
_geom_bond_atom_site_label_2
_ccdc_geom_bond_type
C33   H17   S    
C29   H1    S    
C16   O6    A    
C25   N1    A    
C10   H11   S    
C7    C8    A    
C13   H24   S    
C12   C23   S    
C1    O2    A    
Cu1   O1    S    
C16   O5    A    
C26   N1    A    
C23   C29   S    
C28   C29   S    
C37   C38   A    
C17   H4    S    
Cu2   O8    S    
C5    C6    A    
C20   C25   A    
C6    C35   A    
C18   C19   A    
C11   C37   A    
C2    C39   A    
Cu1   N1    S    
C1    C11   S    
C9    C36   A    
C10   C35   A    
C33   N3    S    
Cu2   O2    S    
C28   C34   S    
C33   H18   S    
C21   C22   A    
C12   C32   S    
C27   C30   S    
Cu2   N2    S    
C38   C39   A    
C39   H20   S    
C4    C34   S    
C35   H14   S    
C3    C8    A    
C22   H23   S    
C28   H3    S    
Cu1   O7    S    
C32   C34   S    
C5    C9    A    
C29   C30   S    
Cu2   O6    S    
C23   H10   S    
C31   C32   S    
C23   C34   S    
C17   C18   A    
C13   C21   A    
C19   N2    A    
C4    O4    A    
Cu1   Cu2   S    
C31   H7    S    
C22   C24   A    
C13   C26   A    
C2    C5    A    
C9    H12   S    
C27   O7    A    
C4    O3    A    
C15   C17   A    
C33   H16   S    
Cu1   O3    S    
C12   C30   S    
C24   H6    S    
C28   C31   S    
C25   H25   S    
C27   O8    A    
C12   H9    S    
C6    C7    A    
C1    O1    A    
C7    H13   S    
C19   C24   A    
C16   C36   S    
C30   C31   S    
Cu1   O5    S    
C2    C3    A    
C18   C20   A    
C32   H8    S    
C37   H19   S    
C3    C11   A    
C8    H22   S    
Cu2   O4    S    
C20   C21   A    
H15   N3    S    
C26   N3    S    
C14   N2    A    
C14   C15   A    
C10   C36   A    
C15   H5    S    
C14   H2    S    
C38   H21   S    
