data_mof_unit_3685.cif
_audit_creation_date              2013-03-05T15:48:42-0500
_audit_creation_method            fapswitch 2.2
_symmetry_space_group_name_H-M    P1
_symmetry_Int_Tables_number       1
_space_group_crystal_system       triclinic
_cell_length_a                    22.114432
_cell_length_b                    7.070501
_cell_length_c                    19.979453
_cell_angle_alpha                 90.000666
_cell_angle_beta                  98.917154
_cell_angle_gamma                 90.000701
_cell_volume                      3086.23144682

loop_
_atom_site_label
_atom_site_type_symbol
_atom_site_description
_atom_site_fract_x
_atom_site_fract_y
_atom_site_fract_z
_atom_type_partial_charge
O1    O     O_R   0.448420 0.506120 0.415750 -0.580298
O2    O     O_R   0.551580 0.006120 0.584250 -0.580268
O3    O     O_R   0.436490 0.174470 0.555610 -0.573049
O4    O     O_R   0.563510 0.674470 0.444390 -0.573039
C1    C     C_R   0.423466 0.344582 0.577888 1.091365
C2    C     C_R   0.576534 0.844583 0.422112 1.091359
O5    O     O_R   0.441310 0.176330 0.414520 -0.583264
O6    O     O_R   0.558690 0.676330 0.585480 -0.583280
O7    O     O_R   0.556430 0.007110 0.442150 -0.577785
O8    O     O_R   0.443570 0.507110 0.557850 -0.577783
C3    C     C_R   0.425890 0.345067 0.389876 1.065552
C4    C     C_R   0.574110 0.845070 0.610123 1.065584
O9    O     O_3   0.537770 0.339560 0.509230 -0.275332
O10   O     O_3   0.462230 0.839560 0.490770 -0.275358
V1    V     V_3+5 0.492990 0.064280 0.498290 1.267359
V2    V     V_3+5 0.507010 0.564280 0.501710 1.267347
C5    C     C_R   0.878616 0.867781 0.706757 0.669733
C6    C     C_R   0.121386 0.367845 0.293244 0.669735
H1    H     H_    0.962946 0.907804 0.773705 0.148320
H2    H     H_    0.037057 0.407872 0.226296 0.148319
C7    C     C_R   0.885724 0.935653 0.825578 -0.145194
C8    C     C_R   0.114278 0.435670 0.174421 -0.145198
C9    C     C_R   0.589317 0.848669 0.733515 -0.295455
C10   C     C_R   0.410685 0.348655 0.266484 -0.295444
C11   C     C_R   0.623511 0.853200 0.798318 0.409856
C12   C     C_R   0.376491 0.353198 0.201681 0.409851
C13   C     C_R   0.687406 0.866407 0.805479 -0.240291
C14   C     C_R   0.312597 0.366421 0.194519 -0.240287
C15   C     C_R   0.718608 0.875263 0.748794 0.049697
C16   C     C_R   0.281394 0.375275 0.251204 0.049706
C17   C     C_R   0.683265 0.863781 0.682386 -0.068435
C18   C     C_R   0.316736 0.363776 0.317613 -0.068467
C19   C     C_R   0.784148 0.891303 0.756705 0.019474
C20   C     C_R   0.215854 0.391326 0.243293 0.019475
C21   C     C_R   0.813811 0.878204 0.698549 -0.201321
C22   C     C_R   0.186191 0.378254 0.301451 -0.201355
C23   C     C_R   0.779269 0.880383 0.633393 0.375793
C24   C     C_R   0.220734 0.380424 0.366607 0.375862
C25   C     C_R   0.715027 0.868406 0.625794 0.185951
C26   C     C_R   0.284975 0.368393 0.374204 0.185930
C27   C     C_R   0.821793 0.922716 0.820483 -0.186289
C28   C     C_R   0.178209 0.422719 0.179515 -0.186282
C29   C     C_R   0.913412 0.908962 0.768887 -0.364886
C30   C     C_R   0.086590 0.409018 0.231113 -0.364883
C31   C     C_R   0.617277 0.853225 0.675467 -0.183451
C32   C     C_R   0.382725 0.353213 0.324531 -0.183460
H3    H     H_    0.803256 0.940542 0.866864 0.120842
H4    H     H_    0.196745 0.440514 0.133132 0.120837
H5    H     H_    0.539844 0.839421 0.727918 0.175068
H6    H     H_    0.460158 0.339401 0.272081 0.175068
H7    H     H_    0.711858 0.865338 0.856364 0.170084
H8    H     H_    0.288146 0.365370 0.143634 0.170084
C33   C     C_3   0.794941 0.765280 0.247787 -0.434806
C34   C     C_3   0.205062 0.265275 0.752217 -0.434812
C35   C     C_3   0.784968 0.124765 0.244913 0.667856
C36   C     C_3   0.215034 0.624760 0.755088 0.667860
C37   C     C_3   0.742413 0.088102 0.301407 0.430572
C38   C     C_3   0.257591 0.588096 0.698596 0.430572
H9    H     H_    0.767763 0.725649 0.347139 0.194666
H10   H     H_    0.232242 0.225638 0.652867 0.194647
H11   H     H_    0.840888 0.764317 0.278908 0.257946
H12   H     H_    0.159116 0.264304 0.721095 0.257950
H13   H     H_    0.774518 0.051949 0.348563 -0.006158
H14   H     H_    0.225489 0.551938 0.651438 -0.006156
C39   C     C_1   0.620628 0.858900 0.375088 -0.248559
C40   C     C_1   0.379374 0.358897 0.624914 -0.248570
C41   C     C_3   0.782515 0.938296 0.199023 -0.152826
C42   C     C_3   0.217488 0.438297 0.800979 -0.152821
C43   C     C_3   0.745682 0.739896 0.293656 -0.614984
C44   C     C_3   0.254322 0.239892 0.706349 -0.614996
C45   C     C_3   0.700905 0.907421 0.286052 -0.012515
C46   C     C_3   0.299099 0.407421 0.713953 -0.012509
C47   C     C_3   0.667089 0.898249 0.210966 0.115923
C48   C     C_3   0.332914 0.398261 0.789039 0.115931
C49   C     C_3   0.715093 0.904506 0.160022 0.068475
C50   C     C_3   0.284909 0.404518 0.839982 0.068471
C51   C     C_1   0.656797 0.880295 0.335384 0.105528
C52   C     C_1   0.343207 0.380292 0.664620 0.105530
C53   C     C_1   0.830725 0.934566 0.152563 0.117030
C54   C     C_1   0.169277 0.434567 0.847439 0.117025
C55   C     C_1   0.871204 0.939735 0.116825 -0.307564
C56   C     C_1   0.128797 0.439736 0.883176 -0.307564
H15   H     H_    0.715282 0.758351 0.139123 0.118875
H16   H     H_    0.284721 0.258366 0.860882 0.118878
H17   H     H_    0.645640 0.755042 0.205221 0.113993
H18   H     H_    0.354363 0.255057 0.794785 0.113991
H19   H     H_    0.792685 0.639077 0.216867 0.230298
H20   H     H_    0.207318 0.139076 0.783138 0.230298
H21   H     H_    0.720203 0.607581 0.278542 0.270692
H22   H     H_    0.279801 0.107582 0.721464 0.270696
O11   O     O_R   0.056480 0.288780 0.942210 -0.597675
O12   O     O_R   0.943520 0.788780 0.057790 -0.597674
O13   O     O_R   0.058700 0.616820 0.085490 -0.591225
O14   O     O_R   0.941300 0.116820 0.914510 -0.591226
C57   C     C_R   0.074352 0.447899 0.109013 0.951797
C58   C     C_R   0.925650 0.947895 0.890986 0.951799
O15   O     O_R   0.063520 0.618570 0.944410 -0.598518
O16   O     O_R   0.936480 0.118570 0.055590 -0.598516
O17   O     O_R   0.948420 0.787670 0.915740 -0.590208
O18   O     O_R   0.051580 0.287670 0.084260 -0.590209
C59   C     C_R   0.079958 0.449707 0.925415 0.981161
C60   C     C_R   0.920042 0.949707 0.074585 0.981163
O19   O     O_3   0.962260 0.453430 0.990800 -0.284961
O20   O     O_3   0.037740 0.953430 0.009200 -0.284961
V3    V     V_3+5 0.007000 0.728750 0.001710 1.137528
V4    V     V_3+5 0.993000 0.228750 0.998290 1.137525
O21   O     O_3   0.762810 0.289954 0.207661 -0.627535
C61   C     C_3   0.790516 0.336933 0.149749 0.274791
H23   H     H_    0.765072 0.460984 0.125806 0.146410
H24   H     H_    0.782539 0.231209 0.109247 0.139742
C62   C     C_3   0.859135 0.386793 0.162259 -0.493749
H25   H     H_    0.871847 0.492960 0.202500 0.248366
H26   H     H_    0.888030 0.262291 0.177150 0.251811
C63   C     C_3   0.876730 0.461258 0.096990 -0.810497
H27   H     H_    0.862443 0.362236 0.054516 0.266858
H28   H     H_    0.927013 0.481013 0.104665 0.290759
H29   H     H_    0.852339 0.594665 0.082568 0.249375
O22   O     O_3   0.237191 0.789956 0.792340 -0.627534
C64   C     C_3   0.209483 0.836936 0.850251 0.274788
H30   H     H_    0.234927 0.960990 0.874194 0.146409
H31   H     H_    0.217460 0.731216 0.890754 0.139738
C65   C     C_3   0.140864 0.886789 0.837739 -0.493741
H32   H     H_    0.128153 0.992951 0.797497 0.248366
H33   H     H_    0.111970 0.762284 0.822847 0.251809
C66   C     C_3   0.123267 0.961260 0.903007 -0.810500
H34   H     H_    0.137554 0.862244 0.945482 0.266858
H35   H     H_    0.072984 0.981011 0.895331 0.290755
H36   H     H_    0.147659 0.094669 0.917429 0.249373
N1    N     N_R   0.847249 0.165644 0.281346 0.192746
O23   O     O_R   0.892510 0.048380 0.281762 -0.489103
O24   O     O_R   0.857929 0.324382 0.313939 -0.448172
N2    N     N_R   0.152753 0.665627 0.718653 0.192746
O25   O     O_R   0.107493 0.548358 0.718237 -0.489095
O26   O     O_R   0.142073 0.824360 0.686059 -0.448171
O27   O     O_3   0.705871 0.247346 0.312533 -0.572820
C67   C     C_3   0.728129 0.342863 0.373931 0.113589
H37   H     H_    0.703076 0.478462 0.374134 0.138033
H38   H     H_    0.777254 0.377586 0.377281 0.157151
C68   C     C_3   0.715770 0.238109 0.437412 -0.257720
H39   H     H_    0.666342 0.252599 0.440947 0.254455
H40   H     H_    0.727034 0.085933 0.435916 0.204054
C69   C     C_3   0.754093 0.323349 0.500228 -0.858604
H41   H     H_    0.803574 0.297835 0.499574 0.248361
H42   H     H_    0.741610 0.262015 0.547207 0.316374
H43   H     H_    0.745818 0.476691 0.501040 0.254983
O28   O     O_3   0.294133 0.747342 0.687473 -0.572802
C70   C     C_3   0.271877 0.842855 0.626076 0.113544
H44   H     H_    0.296924 0.978466 0.625880 0.138021
H45   H     H_    0.222749 0.877554 0.622717 0.157152
C71   C     C_3   0.284250 0.738120 0.562596 -0.257842
H46   H     H_    0.333678 0.752657 0.559064 0.254438
H47   H     H_    0.272997 0.585937 0.564091 0.204083
C72   C     C_3   0.245924 0.823339 0.499780 -0.857968
H48   H     H_    0.196439 0.797557 0.500393 0.248371
H49   H     H_    0.258476 0.762192 0.452787 0.316279
H50   H     H_    0.254130 0.976764 0.499030 0.254797
N3    N     N_R   0.697171 0.025157 0.100198 0.263658
O29   O     O_R   0.707246 0.965968 0.041247 -0.351526
O30   O     O_R   0.670789 0.188642 0.103895 -0.282871
N4    N     N_R   0.302830 0.525178 0.899805 0.263659
O31   O     O_R   0.292756 0.465993 0.958756 -0.351525
O32   O     O_R   0.329211 0.688667 0.896106 -0.282877
O33   O     O_3   0.807018 0.948693 0.580190 -0.632907
C73   C     C_3   0.812929 0.807581 0.531537 0.276574
H51   H     H_    0.770851 0.801045 0.493487 0.115843
H52   H     H_    0.821755 0.665991 0.554901 0.080894
C74   C     C_3   0.865636 0.861462 0.493623 -0.301373
H53   H     H_    0.850553 0.978646 0.457798 0.199443
H54   H     H_    0.905408 0.912954 0.529904 0.258234
C75   C     C_3   0.886508 0.694621 0.454342 -0.937119
H55   H     H_    0.909472 0.586512 0.489691 0.260544
H56   H     H_    0.919410 0.744563 0.421512 0.286616
H57   H     H_    0.847157 0.627430 0.422207 0.261050
O34   O     O_3   0.192990 0.448744 0.419812 -0.632901
C76   C     C_3   0.187076 0.307632 0.468463 0.276600
H58   H     H_    0.229150 0.301112 0.506518 0.115834
H59   H     H_    0.178257 0.166043 0.445096 0.080876
C77   C     C_3   0.134362 0.361481 0.506368 -0.301500
H60   H     H_    0.149434 0.478666 0.542197 0.199446
H61   H     H_    0.094592 0.412954 0.470083 0.258256
C78   C     C_3   0.113493 0.194626 0.545643 -0.937075
H62   H     H_    0.090570 0.086463 0.510288 0.260522
H63   H     H_    0.080558 0.244526 0.578440 0.286603
H64   H     H_    0.152840 0.127520 0.577812 0.261053
N5    N     N_R   0.615306 0.029961 0.194680 0.293997
O35   O     O_R   0.605046 0.165336 0.235487 -0.302002
O36   O     O_R   0.573318 0.992229 0.143210 -0.240284
N6    N     N_R   0.384696 0.529979 0.805325 0.294000
O37   O     O_R   0.394960 0.665335 0.764513 -0.302009
O38   O     O_R   0.426681 0.492262 0.856798 -0.240276
O39   O     O_3   0.909229 0.805701 0.655641 -0.649644
C79   C     C_3   0.912011 0.604865 0.656800 0.154193
H65   H     H_    0.926288 0.559331 0.608481 0.153599
H66   H     H_    0.866377 0.539392 0.658436 0.074114
C80   C     C_3   0.958729 0.528667 0.715617 -0.340108
H67   H     H_    0.999724 0.620764 0.722763 0.270460
H68   H     H_    0.938425 0.530485 0.763127 0.187952
C81   C     C_3   0.977535 0.326020 0.702500 -0.815609
H69   H     H_    0.936410 0.234428 0.692244 0.255340
H70   H     H_    0.008223 0.271076 0.747609 0.260704
H71   H     H_    0.002307 0.321137 0.658255 0.271529
O40   O     O_3   0.090772 0.305766 0.344358 -0.649657
C82   C     C_3   0.087986 0.104930 0.343196 0.154191
H72   H     H_    0.073704 0.059396 0.391513 0.153604
H73   H     H_    0.133620 0.039454 0.341565 0.074111
C83   C     C_3   0.041272 0.028732 0.284376 -0.340099
H74   H     H_    0.000277 0.120828 0.277227 0.270454
H75   H     H_    0.061579 0.030551 0.236868 0.187955
C84   C     C_3   0.022462 0.826084 0.297488 -0.815622
H76   H     H_    0.063586 0.734492 0.307745 0.255333
H77   H     H_    0.991776 0.771141 0.252377 0.260704
H78   H     H_    0.997687 0.821198 0.341731 0.271538
N7    N     N_R   0.593171 0.843333 0.857128 0.257298
O41   O     O_R   0.533700 0.838229 0.850582 -0.274116
O42   O     O_R   0.624631 0.837655 0.917790 -0.286327
N8    N     N_R   0.406832 0.343331 0.142871 0.257298
O43   O     O_R   0.466302 0.338214 0.149417 -0.274116
O44   O     O_R   0.375372 0.337662 0.082209 -0.286327
N9    N     N_R   0.682451 0.867282 0.559119 0.194236
O45   O     O_R   0.658621 0.023118 0.533063 -0.458277
O46   O     O_R   0.670913 0.707415 0.527786 -0.490207
N10   N     N_R   0.317551 0.367181 0.440880 0.194238
O47   O     O_R   0.341369 0.522991 0.466971 -0.458365
O48   O     O_R   0.329078 0.207279 0.472191 -0.490130

loop_
_geom_bond_atom_site_label_1
_geom_bond_atom_site_label_2
_geom_bond_distance
_ccdc_geom_bond_type
C42   C54   1.518485 S    
C16   C18   1.434016 A    
C82   H72   1.108970 S    
C6    C22   1.418899 A    
O4    V2    1.980731 S    
N3    O29   1.301285 A    
C9    C31   1.396681 A    
C13   C15   1.415970 A    
C14   H8    1.074989 S    
C8    C57   1.461891 S    
C62   H25   1.103998 S    
O1    C3    1.316165 A    
C33   C43   1.538907 S    
C50   H16   1.114800 S    
C2    O7    1.316682 A    
O20   V4    2.179236 S    
C63   H27   1.107698 S    
O27   C67   1.419843 S    
C74   H54   1.110807 S    
N7    O41   1.301812 A    
C5    O39   1.381409 S    
O5    C3    1.315318 A    
C82   H73   1.115360 S    
C73   H52   1.109050 S    
C48   C50   1.581104 S    
C11   N7    1.442231 S    
C50   N4    1.471926 S    
C25   N9    1.412842 S    
C73   H51   1.107539 S    
C21   C23   1.403607 A    
N8    O44   1.301219 A    
N1    O23   1.298754 A    
C19   C21   1.423129 A    
C68   C69   1.525392 S    
C83   H75   1.111270 S    
N5    O36   1.301855 A    
C34   C42   1.561482 S    
C75   H55   1.108972 S    
C58   O17   1.305524 A    
C15   C19   1.437881 A    
C84   H78   1.110354 S    
C61   H23   1.109653 S    
C12   N8    1.442232 S    
C72   H48   1.111353 S    
C69   H41   1.111100 S    
C43   C45   1.536231 S    
O34   C76   1.413081 S    
C46   C52   1.502599 S    
C70   H44   1.107633 S    
O13   V3    2.035219 S    
C7    C29   1.381454 A    
C33   H11   1.106007 S    
O19   V3    2.179210 S    
C2    C39   1.458704 S    
C8    C30   1.381446 A    
C62   H26   1.101274 S    
O33   C73   1.413084 S    
N6    O38   1.301853 A    
C61   H24   1.095658 S    
N2    O25   1.298751 A    
C35   N1    1.483102 S    
C71   C72   1.525377 S    
C20   C28   1.427307 A    
C66   H36   1.102514 S    
O21   C61   1.429777 S    
C6    O40   1.381406 S    
C81   H69   1.109363 S    
C12   C14   1.401099 A    
C72   H49   1.107369 S    
O12   C60   1.315615 A    
C23   O33   1.393545 S    
C80   C81   1.525910 S    
O15   V3    1.980751 S    
C49   N3    1.471929 S    
N7    O42   1.301220 A    
O2    C4    1.316166 A    
O13   C57   1.310255 A    
O22   C64   1.429775 S    
C10   H6    1.084352 S    
C47   C49   1.581104 S    
O11   V4    1.973295 S    
C44   H22   1.109552 S    
C36   O22   1.430099 S    
O11   C59   1.315613 A    
C67   C68   1.529509 S    
C43   H21   1.109559 S    
C1    O8    1.316688 A    
O20   V3    1.725282 S    
H2    C30   1.084692 S    
H1    C29   1.084692 S    
C37   H13   1.117893 S    
C76   C77   1.533353 S    
C48   N6    1.472739 S    
C55   C60   1.471811 S    
C64   H31   1.095658 S    
C38   H14   1.117896 S    
C40   C52   1.220083 T    
C82   C83   1.536934 S    
C69   H43   1.100083 S    
O40   C82   1.421384 S    
C16   C20   1.437887 A    
O39   C79   1.421378 S    
C63   H29   1.102516 S    
C79   C80   1.536934 S    
C77   H60   1.111780 S    
C70   C71   1.529499 S    
C41   C53   1.518486 S    
N8    O43   1.301813 A    
C76   H59   1.109032 S    
C78   H63   1.110087 S    
C74   H53   1.111799 S    
C53   C55   1.229089 T    
C83   H74   1.107323 S    
C1    C40   1.458700 S    
C34   H12   1.106005 S    
O16   C60   1.320777 A    
C36   C38   1.598800 S    
C44   C46   1.536223 S    
C48   H18   1.116470 S    
C26   N10   1.412843 S    
N6    O37   1.299891 A    
C79   H66   1.115365 S    
O19   V4    1.725300 S    
C78   H62   1.108954 S    
N10   O48   1.298129 A    
C5    C29   1.386247 A    
C71   H47   1.105860 S    
C6    C30   1.386248 A    
N9    O46   1.298119 A    
C39   C51   1.220082 T    
C38   C46   1.575235 S    
C77   H61   1.110796 S    
C76   H58   1.107526 S    
C34   C44   1.538898 S    
O9    V1    2.179364 S    
H10   C44   1.108422 S    
O6    C4    1.315317 A    
C81   H71   1.110353 S    
C84   H76   1.109359 S    
C27   H3    1.077219 S    
C33   H19   1.082031 S    
O1    V2    2.026719 S    
C28   H4    1.077219 S    
C37   C45   1.575241 S    
C72   H50   1.100349 S    
O14   C58   1.310259 A    
O2    V1    2.026734 S    
C47   H17   1.116477 S    
C36   N2    1.483100 S    
H9    C43   1.108434 S    
N2    O26   1.300692 A    
C7    C27   1.404628 A    
C74   C75   1.527373 S    
C46   C48   1.570410 S    
C35   C37   1.598794 S    
C66   H34   1.107698 S    
O10   V2    2.179390 S    
O4    C2    1.329469 A    
C41   C49   1.589706 S    
N3    O30   1.302067 A    
C22   C24   1.403608 A    
C45   C51   1.502598 S    
C69   H42   1.107065 S    
O3    V1    1.980732 S    
C68   H39   1.110952 S    
C67   H38   1.105626 S    
C45   C47   1.570412 S    
O28   C70   1.419831 S    
C64   C65   1.540101 S    
N9    O45   1.295279 A    
C63   H28   1.107548 S    
O14   V4    2.035193 S    
C78   H64   1.105433 S    
C70   H45   1.105637 S    
C57   O18   1.305528 A    
C18   C32   1.446264 A    
C73   C74   1.533376 S    
C10   C12   1.394865 A    
C67   H37   1.107645 S    
O3    C1    1.329462 A    
C47   N5    1.472746 S    
C64   H30   1.109654 S    
C38   O28   1.423318 S    
C56   C59   1.471814 S    
C4    C31   1.494212 S    
C7    C58   1.461891 S    
C42   C50   1.589710 S    
C9    H5    1.084354 S    
O18   V4    2.027853 S    
O16   V4    1.980751 S    
C61   C62   1.540103 S    
C19   C27   1.427304 A    
N4    O31   1.301285 A    
C34   H20   1.082026 S    
C65   C66   1.512111 S    
C14   C16   1.415975 A    
O7    V1    1.969154 S    
C10   C32   1.396684 A    
C35   C41   1.601984 S    
C15   C17   1.434012 A    
C36   C42   1.601981 S    
C79   H65   1.108974 S    
C24   C26   1.407729 A    
C13   H7    1.074990 S    
C68   H40   1.105867 S    
C83   C84   1.525915 S    
C49   H15   1.114801 S    
N5    O35   1.299888 A    
C8    C28   1.404627 A    
O8    V2    1.969150 S    
C75   H56   1.110082 S    
O5    V1    2.035210 S    
C84   H77   1.110920 S    
C54   C56   1.229091 T    
C17   C25   1.420923 A    
C62   C63   1.512109 S    
C20   C22   1.423131 A    
C18   C26   1.420921 A    
N10   O47   1.295250 A    
C33   C41   1.561489 S    
O17   V3    2.027866 S    
C77   C78   1.527354 S    
C24   O34   1.393549 S    
C80   H67   1.107326 S    
O12   V3    1.973298 S    
C23   C25   1.407729 A    
C9    C11   1.394865 A    
O6    V2    2.035185 S    
C17   C31   1.446268 A    
O9    V2    1.725746 S    
C35   O21   1.430099 S    
C66   H35   1.107548 S    
O10   V1    1.725727 S    
C37   O27   1.423334 S    
C3    C32   1.494211 S    
C81   H70   1.110924 S    
C5    C21   1.418901 A    
C80   H68   1.111275 S    
C65   H32   1.103998 S    
C65   H33   1.101276 S    
C75   H57   1.105430 S    
O15   C59   1.320775 A    
N4    O32   1.302064 A    
C71   H46   1.110961 S    
N1    O24   1.300691 A    
C11   C13   1.401098 A    
