data_mof_unit_343.cif
_audit_creation_date              2013-03-05T16:33:48-0500
_audit_creation_method            fapswitch 2.2
_symmetry_space_group_name_H-M    P1
_symmetry_Int_Tables_number       1
_space_group_crystal_system       triclinic
_cell_length_a                    15.972566
_cell_length_b                    10.828989
_cell_length_c                    9.541466
_cell_angle_alpha                 89.820518
_cell_angle_beta                  90.07699
_cell_angle_gamma                 90.141053
_cell_volume                      1650.34171194

loop_
_atom_site_label
_atom_site_type_symbol
_atom_site_description
_atom_site_fract_x
_atom_site_fract_y
_atom_site_fract_z
_atom_type_partial_charge
O1    O     O_R   0.500000 0.319640 0.618810 -0.580112
O2    O     O_R   0.500010 0.319680 0.381230 -0.587222
C1    C     C_R   0.501168 0.262376 0.500193 0.787360
O3    O     O_R   0.380300 0.499950 0.618760 -0.564890
O4    O     O_R   0.380310 0.499990 0.381180 -0.583081
C2    C     C_R   0.341267 0.500401 0.499944 0.852126
Cu1   Cu    Cu3+1 0.500000 0.499980 0.640670 0.990136
Cu2   Cu    Cu3+1 0.500000 0.500020 0.359330 0.969743
O5    O     O_R   0.499990 0.680320 0.618770 -0.575376
O6    O     O_R   0.500000 0.680360 0.381190 -0.591315
O7    O     O_R   0.619690 0.500010 0.618820 -0.548707
O8    O     O_R   0.619700 0.500050 0.381240 -0.553628
C3    C     C_R   0.501124 0.737700 0.499887 0.814763
C4    C     C_R   0.658732 0.500776 0.500171 0.812904
C5    C     C_R   0.955881 0.464610 0.626784 0.415414
C6    C     C_R   0.912591 0.512197 0.509816 -0.038214
C7    C     C_R   0.956500 0.563281 0.397022 -0.247881
H1    H     H_    0.923281 0.600654 0.307362 0.176606
C8    C     C_R   0.043651 0.563559 0.397411 -0.232306
H2    H     H_    0.076929 0.600806 0.307777 0.175641
C9    C     C_R   0.087519 0.513546 0.511012 -0.023901
C10   C     C_R   0.043939 0.466139 0.628150 0.427165
C11   C     C_1   0.822984 0.507491 0.504027 0.025719
C12   C     C_1   0.177045 0.507987 0.504178 0.035882
C13   C     C_1   0.252104 0.503897 0.500606 -0.145898
C14   C     C_1   0.747901 0.503988 0.501075 -0.123426
C15   C     C_R   0.503339 0.063443 0.626216 0.056721
C16   C     C_R   0.508557 0.129403 0.500719 -0.039267
C17   C     C_R   0.524141 0.065062 0.375802 -0.195314
H3    H     H_    0.532912 0.113522 0.277411 0.160589
C18   C     C_R   0.523704 0.936397 0.375610 -0.209669
H4    H     H_    0.531818 0.889157 0.277097 0.145360
C19   C     C_R   0.508087 0.870904 0.500286 -0.044615
C20   C     C_R   0.502794 0.936210 0.625991 -0.023569
C21   C     C_3   0.439283 0.931058 0.741630 0.195807
C22   C     C_3   0.440322 0.071665 0.741529 -0.493165
H5    H     H_    0.463913 0.889698 0.840091 0.080084
H6    H     H_    0.380866 0.115804 0.707308 0.227373
H7    H     H_    0.467942 0.111133 0.838607 0.168080
C23   C     C_R   0.568985 0.538525 0.073474 0.168443
N1    N     N_R   0.500520 0.500930 0.147930 -0.213843
C24   C     C_R   0.435706 0.449170 0.074440 -0.073623
H8    H     H_    0.383069 0.409612 0.129917 0.152577
C25   C     C_R   0.435744 0.449036 0.925604 -0.059258
H9    H     H_    0.383159 0.409294 0.870176 0.150377
N2    N     N_R   0.500520 0.500890 0.852020 -0.210544
C26   C     C_R   0.568773 0.539093 0.926167 0.171422
C27   C     C_3   0.608279 0.663753 0.919522 0.245355
C28   C     C_3   0.609790 0.662337 0.079763 0.238989
H10   H     H_    0.564715 0.733301 0.873599 0.035723
H11   H     H_    0.567942 0.732488 0.127901 0.031990
O9    O     O_3   0.085736 0.411295 0.739285 -0.546429
C29   C     C_3   0.122594 0.503421 0.824130 -0.265470
H12   H     H_    0.084201 0.588955 0.832184 0.132419
H13   H     H_    0.186127 0.527070 0.785460 0.191131
H14   H     H_    0.129830 0.465859 0.931751 0.188223
O10   O     O_3   0.688854 0.656727 0.858854 -0.524393
C30   C     C_3   0.709607 0.771585 0.798171 -0.280820
H15   H     H_    0.705393 0.847685 0.875971 0.151956
H16   H     H_    0.668796 0.791172 0.706200 0.146686
H17   H     H_    0.775137 0.767941 0.760252 0.171421
O11   O     O_3   0.691639 0.651609 0.135466 -0.515655
C31   C     C_3   0.712275 0.758922 0.211154 -0.266376
H18   H     H_    0.673278 0.766017 0.307250 0.146596
H19   H     H_    0.705493 0.843369 0.145350 0.141529
H20   H     H_    0.778659 0.752658 0.244676 0.177467
O12   O     O_3   0.912879 0.405819 0.733790 -0.551330
C32   C     C_3   0.888383 0.494632 0.833307 -0.212590
H21   H     H_    0.850063 0.569227 0.785339 0.170932
H22   H     H_    0.943593 0.534780 0.887612 0.144649
H23   H     H_    0.849111 0.448498 0.913848 0.212757
N3    N     N_R   0.358901 0.878529 0.697309 0.154052
O13   O     O_R   0.321448 0.917245 0.584150 -0.352550
O14   O     O_R   0.325190 0.789807 0.770238 -0.367729

loop_
_geom_bond_atom_site_label_1
_geom_bond_atom_site_label_2
_geom_bond_distance
_ccdc_geom_bond_type
O1    C1    1.292410 A    
C23   C26   1.405518 A    
C32   H21   1.111752 S    
C18   C19   1.405338 A    
C28   H11   1.113706 S    
C3    C19   1.446500 S    
C17   H3    1.083166 S    
C15   C22   1.495205 S    
O4    Cu2   1.923368 S    
N3    O14   1.300560 A    
N1    C24   1.369388 A    
C8    H2    1.083828 S    
Cu2   O8    1.923030 S    
C5    O12   1.383888 S    
C31   H19   1.113072 S    
C30   H17   1.108749 S    
C27   H10   1.114931 S    
C19   C20   1.397045 A    
C31   H20   1.109286 S    
Cu1   Cu2   2.684395 S    
C17   C18   1.393318 A    
N2    C26   1.362966 A    
C29   H12   1.115015 S    
Cu2   N1    2.017088 S    
Cu1   O7    1.923368 S    
C16   C17   1.405303 A    
O10   C30   1.409298 S    
O11   C31   1.408308 S    
C24   C25   1.420112 A    
C32   H23   1.109492 S    
C5    C6    1.409010 A    
C22   H6    1.112372 S    
C27   C28   1.529123 S    
C8    C9    1.398324 A    
O8    C4    1.294059 A    
C21   N3    1.465364 S    
C7    H1    1.083907 S    
C6    C11   1.433029 S    
O2    C1    1.292057 A    
C29   H13   1.109353 S    
C15   C20   1.377816 A    
O4    C2    1.294206 A    
Cu2   O6    1.964656 S    
O7    C4    1.293203 A    
O2    Cu2   1.963396 S    
C29   H14   1.109301 S    
C2    C13   1.424786 S    
C1    C16   1.445074 S    
C24   H8    1.080998 S    
C9    C12   1.432958 S    
C31   H18   1.112118 S    
C30   H16   1.112626 S    
O12   C32   1.410059 S    
Cu1   N2    2.016650 S    
C23   C28   1.490672 S    
C27   O10   1.414211 S    
C12   C13   1.200338 T    
C10   O9    1.385267 S    
C20   C21   1.500657 S    
C5    C10   1.406619 A    
C11   C14   1.200065 T    
C15   C16   1.394845 A    
Cu1   O5    1.963398 S    
C32   H22   1.110596 S    
O5    C3    1.291776 A    
O3    Cu1   1.923033 S    
C6    C7    1.397324 A    
O1    Cu1   1.964656 S    
C23   N1    1.365433 A    
C28   O11   1.415491 S    
C25   N2    1.369434 A    
C7    C8    1.392013 A    
C21   H5    1.111404 S    
C30   H15   1.113085 S    
C9    C10   1.412086 A    
O3    C2    1.293070 A    
C22   H7    1.111624 S    
C18   H4    1.079665 S    
C4    C14   1.424622 S    
C25   H9    1.081125 S    
C21   C22   1.522676 S    
O9    C29   1.413549 S    
N3    O13   1.302328 A    
C26   C27   1.489941 S    
O6    C3    1.293377 A    
