data_mof_unit_238.cif
_audit_creation_date              2012-10-26T20:12:44-0400
_audit_creation_method            fapswitch 2.2
_symmetry_space_group_name_H-M    P1
_symmetry_Int_Tables_number       1
_space_group_crystal_system       triclinic
_cell_length_a                    15.160413
_cell_length_b                    13.850029
_cell_length_c                    10.972475
_cell_angle_alpha                 90.227794
_cell_angle_beta                  91.152522
_cell_angle_gamma                 90.141128
_cell_volume                      2303.42252095

loop_
_atom_site_label
_atom_site_type_symbol
_atom_type_description
_atom_site_fract_x
_atom_site_fract_y
_atom_site_fract_z
_atom_type_partial_charge
C1    C     C_R   0.330132 0.499823 0.500355 0.584370
C2    C     C_R   0.431453 0.789790 0.446773 0.034860
C3    C     C_R   0.422881 0.209068 0.482068 0.044470
C4    C     C_R   0.566176 0.790889 0.558135 0.042875
C5    C     C_R   0.499082 0.054308 0.500613 0.012061
C6    C     C_R   0.498486 0.944960 0.502537 0.002450
C7    C     C_R   0.492378 0.499635 0.261408 0.527153
C8    C     C_R   0.510500 0.500656 0.737574 0.525782
C9    C     C_R   0.452994 0.675233 0.112902 -0.095124
C10   C     C_R   0.566419 0.331556 0.884775 -0.081957
C11   C     C_R   0.526465 0.681816 0.884777 -0.080575
C12   C     C_R   0.670630 0.500156 0.496244 0.562974
C13   C     C_R   0.490646 0.318506 0.111338 -0.090337
C14   C     C_R   0.460989 0.763826 0.053837 0.150576
C15   C     C_R   0.565185 0.242783 0.944169 0.153196
C16   C     C_R   0.497205 0.766893 0.937633 0.153717
C17   C     C_R   0.526559 0.236184 0.058757 0.151940
C18   C     C_R   0.510943 0.590579 0.938123 -0.029147
C19   C     C_R   0.501588 0.411209 0.059480 -0.035541
C20   C     C_R   0.483229 0.587858 0.060150 -0.033434
C21   C     C_R   0.529826 0.415363 0.937838 -0.033775
C22   C     C_R   0.522611 0.502918 0.872790 -0.034944
C23   C     C_R   0.049779 0.498261 0.510284 -0.021738
C24   C     C_R   0.486219 0.498783 0.125076 -0.035281
C25   C     C_R   0.093198 0.563508 0.435392 -0.123134
C26   C     C_R   0.907635 0.413720 0.476534 -0.101749
C27   C     C_R   0.908336 0.582596 0.532079 -0.123345
C28   C     C_R   0.097874 0.433191 0.582130 -0.126241
C29   C     C_R   0.184896 0.563265 0.429528 0.099135
C30   C     C_R   0.815169 0.414123 0.464578 0.111161
C31   C     C_R   0.816752 0.585788 0.521918 0.104369
C32   C     C_R   0.190046 0.434408 0.581778 0.095408
C33   C     C_R   0.233909 0.499260 0.504042 0.065704
C34   C     C_R   0.953517 0.497282 0.510130 -0.026283
C35   C     C_R   0.768485 0.500337 0.492857 0.037551
C36   C     C_3   0.602517 0.141194 0.208760 -0.316330
C37   C     C_3   0.423577 0.868735 0.792253 -0.313547
C38   C     C_3   0.534828 0.109959 0.810125 -0.318962
C39   C     C_3   0.508602 0.894290 0.182549 -0.322597
C40   C     C_3   0.242442 0.576677 0.228136 -0.312175
C41   C     C_3   0.811390 0.238314 0.412449 -0.335915
C42   C     C_3   0.769261 0.733058 0.427094 -0.297783
C43   C     C_3   0.271934 0.415033 0.771106 -0.281572
C44   C     C_R   0.577954 0.107545 0.516332 -0.164486
C45   C     C_R   0.428866 0.891051 0.448228 -0.155676
C46   C     C_R   0.420786 0.107758 0.483979 -0.143009
C47   C     C_R   0.567262 0.892196 0.559458 -0.145810
C48   C     C_R   0.576600 0.208909 0.518732 0.020362
Cu1   Cu    Cu3+1 0.500000 0.596430 0.500000 0.933347
Cu2   Cu    Cu3+1 0.500000 0.403570 0.500000 0.928993
H1    H     H_    0.418777 0.676675 0.197916 0.160930
H2    H     H_    0.374197 0.925864 0.401723 0.101103
H3    H     H_    0.357368 0.072563 0.474193 0.082660
H4    H     H_    0.620895 0.927949 0.607837 0.089827
H5    H     H_    0.637609 0.246957 0.536008 0.165391
H6    H     H_    0.378598 0.750118 0.401767 0.149454
H7    H     H_    0.361682 0.247233 0.467289 0.137314
H8    H     H_    0.618205 0.751926 0.604943 0.145253
H9    H     H_    0.517552 0.087384 0.074378 0.246749
H10   H     H_    0.597069 0.074822 0.264084 0.139944
H11   H     H_    0.605465 0.204529 0.271022 0.180330
H12   H     H_    0.600402 0.334601 0.799166 0.157006
H13   H     H_    0.664744 0.137603 0.157196 0.124687
H14   H     H_    0.517520 0.914258 0.919801 0.247105
H15   H     H_    0.431023 0.936298 0.739656 0.144818
H16   H     H_    0.363519 0.875107 0.848056 0.127031
H17   H     H_    0.415007 0.807657 0.727137 0.184573
H18   H     H_    0.635029 0.114461 0.941045 0.249771
H19   H     H_    0.566855 0.049241 0.762153 0.154720
H20   H     H_    0.504862 0.159773 0.742193 0.184842
H21   H     H_    0.481352 0.080766 0.867057 0.125451
H22   H     H_    0.401963 0.898157 0.061773 0.250660
H23   H     H_    0.564253 0.689646 0.803231 0.153905
H24   H     H_    0.484075 0.958889 0.230978 0.162620
H25   H     H_    0.561465 0.917261 0.120354 0.123857
H26   H     H_    0.537404 0.843040 0.249886 0.177055
H27   H     H_    0.196031 0.689638 0.332162 0.238826
H28   H     H_    0.271040 0.629036 0.163654 0.132378
H29   H     H_    0.289249 0.515774 0.240633 0.148650
H30   H     H_    0.179422 0.549255 0.187431 0.135624
H31   H     H_    0.728455 0.346121 0.341759 0.259811
H32   H     H_    0.761584 0.181940 0.389288 0.124187
H33   H     H_    0.862417 0.237423 0.341235 0.135470
H34   H     H_    0.451885 0.306597 0.191164 0.164420
H35   H     H_    0.841123 0.220673 0.502984 0.150642
H36   H     H_    0.800287 0.716019 0.609970 0.233302
H37   H     H_    0.731933 0.693101 0.354661 0.174170
H38   H     H_    0.734598 0.801963 0.445118 0.124904
H39   H     H_    0.836481 0.750203 0.394616 0.121750
H40   H     H_    0.205997 0.306435 0.676434 0.235870
H41   H     H_    0.312902 0.479312 0.750751 0.165523
H42   H     H_    0.216496 0.437071 0.829763 0.121713
H43   H     H_    0.313904 0.362506 0.821706 0.148528
H44   H     H_    0.055421 0.612076 0.377422 0.109705
H45   H     H_    0.945305 0.350041 0.454276 0.115149
H46   H     H_    0.944734 0.647998 0.554558 0.110606
H47   H     H_    0.063704 0.383191 0.640619 0.108266
H48   H     H_    0.640987 0.072035 0.527106 0.086715
N1    N     N_R   0.500000 0.258690 0.500000 -0.229248
N2    N     N_2   0.238163 0.370662 0.659923 -0.508595
N3    N     N_R   0.500000 0.741310 0.500000 -0.235055
N4    N     N_2   0.527335 0.148781 0.126070 -0.531558
N5    N     N_2   0.500814 0.853851 0.869525 -0.539787
N6    N     N_2   0.599763 0.160313 0.884763 -0.536010
N7    N     N_2   0.436214 0.849564 0.115456 -0.538996
N8    N     N_2   0.226843 0.623850 0.343597 -0.519284
N9    N     N_2   0.768824 0.331731 0.416271 -0.511980
N10   N     N_2   0.774572 0.676447 0.537664 -0.508309
O1    O     O_R   0.371460 0.581430 0.500010 -0.493153
O2    O     O_R   0.628540 0.418570 0.499990 -0.507200
O3    O     O_R   0.628540 0.581430 0.499990 -0.476583
O4    O     O_R   0.371460 0.418570 0.500010 -0.495969
O5    O     O_R   0.499990 0.581440 0.319660 -0.507880
O6    O     O_R   0.500010 0.418560 0.680340 -0.500673
O7    O     O_R   0.500010 0.581440 0.680340 -0.517501
O8    O     O_R   0.499990 0.418560 0.319660 -0.517474

loop_
_geom_bond_atom_site_label_1
_geom_bond_atom_site_label_2
_ccdc_geom_bond_type
C28   H47   S    
C48   H5    S    
Cu1   O5    S    
C38   H20   S    
C11   C18   A    
C6    C45   A    
C30   N9    S    
H14   N5    S    
C31   N10   S    
C9    H1    S    
C17   N4    S    
C12   O2    A    
C1    C33   S    
C13   H34   S    
Cu2   N1    S    
C30   C35   A    
Cu1   O1    S    
H27   N8    S    
C19   C21   A    
C10   C15   A    
C1    O4    A    
Cu1   N3    S    
C5    C6    S    
C7    C24   S    
C41   H33   S    
C29   C33   A    
Cu2   O2    S    
C46   H3    S    
C36   N4    S    
C39   H24   S    
C38   N6    S    
C16   N5    S    
C8    O7    A    
C1    O1    A    
C44   H48   S    
C26   C34   A    
C14   N7    S    
C20   C24   A    
H31   N9    S    
C37   H15   S    
C8    C22   S    
C40   H30   S    
C39   H25   S    
C15   N6    S    
C36   H13   S    
C18   C20   A    
C8    O6    A    
Cu1   O3    S    
C38   H19   S    
C25   H44   S    
C27   C34   A    
C21   C22   A    
C4    N3    A    
C27   H46   S    
C10   H12   S    
H40   N2    S    
C10   C21   A    
C25   C29   A    
C6    C47   A    
C13   C19   A    
C27   C31   A    
H18   N6    S    
C28   C32   A    
C43   N2    S    
C11   H23   S    
C37   N5    S    
C2    N3    A    
C23   C28   A    
C43   H41   S    
C32   N2    S    
Cu2   O6    S    
C7    O8    A    
C9    C14   A    
C11   C16   A    
C9    C20   A    
C23   C34   S    
C37   H16   S    
Cu2   O4    S    
C40   H29   S    
C39   H26   S    
C12   C35   S    
C47   H4    S    
C3    H7    S    
C40   H28   S    
Cu1   O7    S    
C5    C44   A    
C26   C30   A    
C14   C16   A    
C29   N8    S    
C42   H38   S    
C36   H11   S    
C40   N8    S    
C26   H45   S    
C15   C17   A    
C48   N1    A    
C38   H21   S    
C41   N9    S    
C18   C22   A    
H9    N4    S    
H36   N10   S    
C39   N7    S    
C36   H10   S    
C41   H35   S    
C5    C46   A    
C3    C46   A    
C43   H42   S    
C45   H2    S    
C13   C17   A    
C42   H39   S    
C32   C33   A    
C7    O5    A    
C19   C24   A    
C2    H6    S    
C41   H32   S    
C37   H17   S    
C31   C35   A    
C43   H43   S    
Cu2   O8    S    
C23   C25   A    
C2    C45   A    
C3    N1    A    
H22   N7    S    
Cu1   Cu2   S    
C4    H8    S    
C42   H37   S    
C42   N10   S    
C12   O3    A    
C44   C48   A    
C4    C47   A    
