data_mof_unit_2043.cif
_audit_creation_date              2012-12-10T17:57:51-0500
_audit_creation_method            fapswitch 2.2
_symmetry_space_group_name_H-M    P1
_symmetry_Int_Tables_number       1
_space_group_crystal_system       triclinic
_cell_length_a                    10.887469
_cell_length_b                    9.6329
_cell_length_c                    15.041467
_cell_angle_alpha                 89.24094
_cell_angle_beta                  89.571347
_cell_angle_gamma                 89.131744
_cell_volume                      1577.1561081

loop_
_atom_site_label
_atom_site_type_symbol
_atom_type_description
_atom_site_fract_x
_atom_site_fract_y
_atom_site_fract_z
_atom_type_partial_charge
C1    C     C_R   0.262396 0.501247 0.507201 0.845694
C2    C     C_R   0.737676 0.500108 0.492908 0.853129
C3    C     C_R   0.275216 0.458536 0.046983 0.463989
C4    C     C_R   0.722163 0.498488 0.954052 0.435784
C5    C     C_R   0.063107 0.379847 0.516578 0.114435
C6    C     C_R   0.935677 0.630302 0.486817 0.160500
C7    C     C_R   0.940603 0.378238 0.491867 0.093928
C8    C     C_R   0.060954 0.631707 0.506256 0.126078
C9    C     C_R   0.872803 0.502756 0.486949 -0.188139
C10   C     C_R   0.127363 0.504989 0.513535 -0.182752
C11   C     C_R   0.436261 0.077894 0.437044 0.406256
C12   C     C_R   0.554036 0.924161 0.567442 0.398995
C13   C     C_R   0.565458 0.072972 0.562006 0.420616
C14   C     C_R   0.446068 0.928809 0.432436 0.407021
C15   C     C_R   0.499113 0.500552 0.329200 0.876222
C16   C     C_R   0.498963 0.499375 0.670746 0.878236
C17   C     C_R   0.610341 0.503190 0.812222 0.399785
C18   C     C_R   0.385685 0.485308 0.188280 0.439324
C19   C     C_R   0.498341 0.496743 0.767313 -0.205413
C20   C     C_R   0.497876 0.500381 0.232544 -0.217425
C21   C     C_R   0.386563 0.486481 0.813617 0.079672
C22   C     C_R   0.609428 0.503704 0.185581 0.073523
C23   C     C_R   0.387035 0.465530 0.906474 -0.027583
C24   C     C_R   0.610450 0.483099 0.093268 -0.025700
C25   C     C_R   0.498747 0.479228 0.952976 -0.091681
C26   C     C_R   0.497993 0.479355 0.047052 -0.101197
C27   C     C_R   0.611166 0.496570 0.905937 -0.102373
C28   C     C_R   0.385126 0.476001 0.094510 -0.097986
C29   C     C_R   0.279409 0.435342 0.955215 0.098528
C30   C     C_R   0.720625 0.468663 0.044940 0.115863
Cu1   Cu    Cu3+1 0.500000 0.640660 0.500000 1.065497
Cu2   Cu    Cu3+1 0.500000 0.359340 0.500000 1.078428
N1    N     N_R   0.500000 0.852070 0.500000 -0.254968
N2    N     N_R   0.500000 0.147930 0.500000 -0.255034
O1    O     O_R   0.319640 0.618740 0.499990 -0.556110
O2    O     O_R   0.680360 0.381260 0.500010 -0.549304
O3    O     O_R   0.680360 0.618740 0.500010 -0.528459
O4    O     O_R   0.319640 0.381260 0.499990 -0.535898
O5    O     O_R   0.499970 0.618800 0.370260 -0.557475
O6    O     O_R   0.500030 0.381200 0.629740 -0.546326
O7    O     O_R   0.500030 0.618800 0.629740 -0.524066
O8    O     O_R   0.499970 0.381200 0.370260 -0.507620
O9    O     O_3   0.716140 0.534617 0.764750 -0.563027
C31   C     C_3   0.773226 0.411102 0.735454 -0.162888
H1    H     H_    0.730082 0.377829 0.673301 0.174363
H2    H     H_    0.771585 0.325677 0.786199 0.171912
H3    H     H_    0.870924 0.432759 0.719903 0.210370
O10   O     O_3   0.278439 0.466671 0.237171 -0.538701
C32   C     C_3   0.232189 0.596388 0.266301 -0.203269
H4    H     H_    0.251003 0.683935 0.219314 0.131246
H5    H     H_    0.269461 0.620770 0.332224 0.192430
H6    H     H_    0.131070 0.589268 0.274203 0.208548
I1    I     I_    0.224518 0.557043 0.745481 -0.331564
I2    I     I_    0.769059 0.573061 0.252915 -0.348374
I3    I     I_    0.135972 0.309743 0.904349 -0.209403
I4    I     I_    0.865116 0.334460 0.090847 -0.188981
O11   O     O_3   0.162950 0.460718 0.090364 -0.494334
C33   C     C_3   0.102906 0.587708 0.068832 -0.207378
H7    H     H_    0.071338 0.587718 0.999028 0.187167
H8    H     H_    0.162574 0.678964 0.078936 0.110225
H9    H     H_    0.021389 0.600598 0.112701 0.213483
O12   O     O_3   0.834220 0.516032 0.912175 -0.528508
C34   C     C_3   0.859918 0.659302 0.911592 -0.197549
H10   H     H_    0.870622 0.698392 0.980368 0.124396
H11   H     H_    0.787567 0.721502 0.876595 0.176205
H12   H     H_    0.947525 0.675793 0.875108 0.205869
I5    I     I_    0.129785 0.206880 0.592502 -0.303528
I6    I     I_    0.855131 0.818749 0.434847 -0.277386
I7    I     I_    0.881428 0.200402 0.423488 -0.279263
I8    I     I_    0.136233 0.825047 0.546719 -0.277388
O13   O     O_3   0.373873 0.155583 0.372962 -0.548192
C35   C     C_3   0.250754 0.113742 0.364622 -0.105745
H13   H     H_    0.192859 0.207450 0.351480 0.212172
H14   H     H_    0.213252 0.062010 0.425119 0.176335
H15   H     H_    0.241685 0.044594 0.306723 0.181442
O14   O     O_3   0.602780 0.851834 0.639125 -0.529247
C36   C     C_3   0.529681 0.879243 0.715295 -0.222771
H16   H     H_    0.561854 0.810739 0.770491 0.181926
H17   H     H_    0.431101 0.856273 0.703786 0.182802
H18   H     H_    0.538623 0.987939 0.737721 0.168271
O15   O     O_3   0.635235 0.145743 0.622204 -0.573307
C37   C     C_3   0.753873 0.085958 0.633841 -0.196703
H19   H     H_    0.822367 0.169605 0.635306 0.175876
H20   H     H_    0.783580 0.015265 0.579834 0.209289
H21   H     H_    0.758527 0.030269 0.698781 0.187333
O16   O     O_3   0.398365 0.861098 0.360453 -0.566146
C38   C     C_3   0.474643 0.885851 0.285467 -0.253880
H22   H     H_    0.446639 0.816348 0.231302 0.163414
H23   H     H_    0.573120 0.862260 0.299814 0.197133
H24   H     H_    0.464360 0.994016 0.259977 0.189332

loop_
_geom_bond_atom_site_label_1
_geom_bond_atom_site_label_2
_ccdc_geom_bond_type
C38   H22   S    
C34   H11   S    
C13   O15   S    
C5    I5    S    
C14   N1    A    
O15   C37   S    
C22   I2    S    
C36   H16   S    
Cu2   O2    S    
C3    C28   A    
C19   C21   A    
C24   C26   A    
C11   C14   A    
C11   O13   S    
C33   H8    S    
C4    O12   S    
C3    C29   A    
C32   H5    S    
Cu1   N1    S    
Cu2   O4    S    
C31   H3    S    
C33   H9    S    
C6    I6    S    
C34   H12   S    
C6    C9    A    
C35   H15   S    
C31   H2    S    
C36   H17   S    
C21   C23   A    
C15   C20   S    
C17   C27   A    
C18   C28   A    
O14   C36   S    
C14   O16   S    
C35   H14   S    
C5    C7    A    
O16   C38   S    
C6    C8    A    
C29   I3    S    
C25   C26   A    
C30   I4    S    
Cu1   O3    S    
Cu2   N2    S    
O9    C31   S    
C17   O9    S    
O12   C34   S    
Cu1   Cu2   S    
C32   H6    S    
C15   O5    A    
C1    O4    A    
C16   O6    A    
C3    O11   S    
O10   C32   S    
C20   C22   A    
C32   H4    S    
C37   H20   S    
C38   H23   S    
C22   C24   A    
C23   C29   A    
C4    C27   A    
C31   H1    S    
C1    O1    A    
C36   H18   S    
C2    O2    A    
C7    C9    A    
Cu1   O7    S    
C8    I8    S    
C11   N2    A    
C1    C10   S    
C15   O8    A    
C35   H13   S    
C18   O10   S    
C7    I7    S    
C25   C27   A    
C37   H21   S    
C26   C28   A    
C12   O14   S    
C33   H7    S    
C5    C10   A    
C21   I1    S    
C2    O3    A    
O11   C33   S    
C16   C19   S    
Cu1   O1    S    
C17   C19   A    
Cu1   O5    S    
C18   C20   A    
Cu2   O6    S    
C24   C30   A    
C34   H10   S    
C13   N2    A    
C23   C25   A    
O13   C35   S    
C12   C13   A    
C8    C10   A    
C37   H19   S    
C38   H24   S    
Cu2   O8    S    
C12   N1    A    
C2    C9    S    
C16   O7    A    
C4    C30   A    
