data_mof_unit_2682.cif
_audit_creation_date              2012-12-11T14:01:30-0500
_audit_creation_method            fapswitch 2.2
_symmetry_space_group_name_H-M    P1
_symmetry_Int_Tables_number       1
_space_group_crystal_system       triclinic
_cell_length_a                    19.122196
_cell_length_b                    10.921098
_cell_length_c                    18.722299
_cell_angle_alpha                 89.614904
_cell_angle_beta                  90.009931
_cell_angle_gamma                 90.374676
_cell_volume                      3909.70641822

loop_
_atom_site_label
_atom_site_type_symbol
_atom_type_description
_atom_site_fract_x
_atom_site_fract_y
_atom_site_fract_z
_atom_type_partial_charge
C1    C     C_R   0.272383 0.042947 0.853193 0.560499
C2    C     C_R   0.727513 0.042616 0.146535 0.552342
C3    C     C_R   0.772448 0.542408 0.853431 0.553733
C4    C     C_R   0.227637 0.543356 0.146868 0.550983
C5    C     C_R   0.446649 0.026236 0.083839 0.151096
C6    C     C_R   0.478041 0.071320 0.939080 0.175312
C7    C     C_R   0.022365 0.571338 0.059297 0.174434
C8    C     C_R   0.053833 0.527358 0.914815 0.151569
C9    C     C_R   0.048126 0.664991 0.014840 -0.147095
C10   C     C_R   0.064798 0.642861 0.944205 -0.149608
C11   C     C_R   0.435936 0.141697 0.053771 -0.150322
C12   C     C_R   0.452570 0.164384 0.982990 -0.146513
C13   C     C_2   0.251489 0.582501 0.922199 -0.122805
C14   C     C_2   0.750628 0.580230 0.079217 -0.116029
C15   C     C_2   0.748972 0.078964 0.920793 -0.116249
C16   C     C_2   0.248630 0.082779 0.078192 -0.122572
C17   C     C_2   0.251008 0.591259 0.078290 -0.116460
C18   C     C_2   0.749521 0.586340 0.922736 -0.109752
C19   C     C_2   0.750431 0.086819 0.076909 -0.109692
C20   C     C_2   0.249209 0.089728 0.921701 -0.116304
C21   C     C_2   0.298094 0.529749 0.039557 -0.165947
C22   C     C_2   0.705580 0.518128 0.962887 -0.166922
C23   C     C_2   0.794231 0.018966 0.037487 -0.166413
C24   C     C_2   0.202514 0.026727 0.961217 -0.166831
C25   C     C_2   0.306766 0.554728 0.963314 -0.168328
C26   C     C_2   0.696901 0.540718 0.039382 -0.161176
C27   C     C_2   0.802713 0.040642 0.960816 -0.161508
C28   C     C_2   0.193609 0.052241 0.037281 -0.168039
C29   C     C_2   0.516905 0.836839 0.586964 -0.125238
C30   C     C_2   0.545779 0.829668 0.434054 -0.124932
C31   C     C_2   0.018269 0.338487 0.587668 -0.120710
C32   C     C_2   0.047035 0.329595 0.434570 -0.121952
C33   C     C_2   0.561144 0.737890 0.478515 -0.172122
C34   C     C_2   0.537081 0.735964 0.552285 -0.170558
C35   C     C_2   0.067346 0.242375 0.480345 -0.183301
C36   C     C_2   0.043094 0.239317 0.554471 -0.165293
C37   C     C_2   0.253268 0.609870 0.570225 -0.083590
C38   C     C_2   0.752949 0.559140 0.415065 -0.090319
C39   C     C_2   0.754025 0.111883 0.569722 -0.084575
C40   C     C_2   0.256208 0.050838 0.410982 -0.091236
C41   C     C_2   0.258101 0.611299 0.411657 0.139826
C42   C     C_2   0.762604 0.575646 0.573176 0.147318
C43   C     C_2   0.758504 0.112339 0.411325 0.135971
C44   C     C_2   0.276445 0.037617 0.566935 0.144953
C45   C     C_R   0.471037 0.824310 0.853395 0.559282
C46   C     C_R   0.529875 0.820869 0.146184 0.585103
C47   C     C_R   0.970113 0.320839 0.853808 0.576903
C48   C     C_R   0.028950 0.324287 0.146543 0.566928
C49   C     C_2   0.214169 0.676106 0.451948 -0.134548
C50   C     C_2   0.812944 0.540390 0.526953 -0.121150
C51   C     C_2   0.714770 0.178103 0.451349 -0.133153
C52   C     C_2   0.324663 0.010658 0.517060 -0.144928
C53   C     C_2   0.226886 0.697040 0.526853 -0.137808
C54   C     C_2   0.811821 0.572977 0.451788 -0.158883
C55   C     C_2   0.726781 0.198491 0.526541 -0.141254
C56   C     C_2   0.318300 0.054386 0.443468 -0.149492
C57   C     C_R   0.261639 0.637512 0.852101 0.547330
C58   C     C_R   0.738890 0.636094 0.148551 0.549663
C59   C     C_R   0.760950 0.135742 0.851361 0.548095
C60   C     C_R   0.238322 0.137575 0.147944 0.547026
C61   C     C_R   0.290490 0.000692 0.639562 0.564126
C62   C     C_R   0.729151 0.049156 0.349961 0.544910
C63   C     C_R   0.773704 0.544411 0.647042 0.551277
C64   C     C_R   0.229046 0.548872 0.350067 0.547432
C65   C     C_R   0.472691 0.824497 0.649475 0.539737
C66   C     C_R   0.563141 0.819595 0.359573 0.567601
C67   C     C_R   0.972972 0.324668 0.649580 0.547280
C68   C     C_R   0.063564 0.319498 0.359613 0.571296
C69   C     C_R   0.261396 0.641293 0.644370 0.528069
C70   C     C_R   0.739890 0.632848 0.352227 0.542986
C71   C     C_R   0.761632 0.142136 0.644075 0.538899
C72   C     C_R   0.240431 0.131610 0.351496 0.540340
C73   C     C_R   0.504097 0.824745 0.073218 0.015312
C74   C     C_R   0.500322 0.841677 0.924855 0.001243
C75   C     C_R   0.999587 0.341577 0.074988 0.000088
C76   C     C_R   0.996106 0.324614 0.926690 0.017370
C77   C     C_R   0.478495 0.933218 0.042095 0.012392
C78   C     C_R   0.486064 0.949310 0.967069 0.020856
C79   C     C_R   0.014186 0.449375 0.032066 0.019554
C80   C     C_R   0.021837 0.433553 0.957146 0.013608
C81   C     C_R   0.522239 0.734371 0.957815 -0.173599
C82   C     C_R   0.523841 0.725881 0.030476 -0.161125
C83   C     C_R   0.976048 0.225427 0.970050 -0.160672
C84   C     C_R   0.977383 0.233979 0.042686 -0.172676
Cr1   Cr    Cr6+3 0.230530 0.836340 0.748870 0.998281
Cr2   Cr    Cr6+3 0.769470 0.836340 0.251130 0.992868
Cr3   Cr    Cr6+3 0.730530 0.336340 0.748870 0.997252
Cr4   Cr    Cr6+3 0.269470 0.336340 0.251130 0.997382
Cr5   Cr    Cr6+3 0.387420 0.989430 0.750820 1.019696
Cr6   Cr    Cr6+3 0.612580 0.989430 0.249180 1.025144
Cr7   Cr    Cr6+3 0.887420 0.489430 0.750820 1.031054
Cr8   Cr    Cr6+3 0.112580 0.489430 0.249180 1.017816
Cr9   Cr    Cr6+3 0.385640 0.677860 0.749230 1.007354
Cr10  Cr    Cr6+3 0.614360 0.677860 0.250770 1.003928
Cr11  Cr    Cr6+3 0.885640 0.177860 0.749230 1.017178
Cr12  Cr    Cr6+3 0.114360 0.177860 0.250770 1.003052
H1    H     H_    0.535053 0.653571 0.927222 0.138587
H2    H     H_    0.542632 0.640866 0.053114 0.140738
H3    H     H_    0.957192 0.140195 0.947883 0.139901
H4    H     H_    0.964235 0.152953 0.073828 0.139005
H5    H     H_    0.162878 0.702843 0.432609 0.125610
H6    H     H_    0.858980 0.492111 0.546023 0.114179
H7    H     H_    0.663694 0.205367 0.431674 0.126085
H8    H     H_    0.372237 0.962823 0.531971 0.089008
H9    H     H_    0.208344 0.783726 0.547577 0.145144
H10   H     H_    0.857198 0.619646 0.429381 0.145632
H11   H     H_    0.707068 0.284166 0.547588 0.150858
H12   H     H_    0.363036 0.100371 0.419332 0.146402
H13   H     H_    0.271666 0.522394 0.550804 0.118177
H14   H     H_    0.709498 0.506858 0.437598 0.124344
H15   H     H_    0.774110 0.025998 0.549976 0.119163
H16   H     H_    0.213382 0.997527 0.433877 0.124272
H17   H     H_    0.055056 0.756857 0.035266 0.102832
H18   H     H_    0.087044 0.716333 0.912195 0.124633
H19   H     H_    0.413844 0.214641 0.085341 0.123221
H20   H     H_    0.445807 0.256232 0.961998 0.103347
H21   H     H_    0.328951 0.456513 0.062903 0.151487
H22   H     H_    0.676996 0.441310 0.940286 0.150487
H23   H     H_    0.822791 0.942892 0.060820 0.151645
H24   H     H_    0.171943 0.952308 0.938574 0.149980
H25   H     H_    0.359441 0.552831 0.941632 0.158729
H26   H     H_    0.645525 0.526150 0.062562 0.143092
H27   H     H_    0.854023 0.026840 0.937699 0.143379
H28   H     H_    0.140967 0.048201 0.059020 0.157592
H29   H     H_    0.222140 0.667080 0.054957 0.109962
H30   H     H_    0.776425 0.665246 0.945060 0.109843
H31   H     H_    0.723622 0.165086 0.053822 0.109531
H32   H     H_    0.277907 0.166515 0.944301 0.109667
H33   H     H_    0.199262 0.580728 0.944366 0.125802
H34   H     H_    0.802276 0.588422 0.055819 0.096796
H35   H     H_    0.697316 0.086208 0.944141 0.097066
H36   H     H_    0.300860 0.082928 0.056061 0.125879
H37   H     H_    0.586175 0.655869 0.458459 0.162071
H38   H     H_    0.530252 0.645664 0.576076 0.157120
H39   H     H_    0.095930 0.163541 0.460972 0.155918
H40   H     H_    0.039313 0.149406 0.579398 0.155010
H41   H     H_    0.519130 0.911619 0.451426 0.102871
H42   H     H_    0.526791 0.928192 0.566094 0.100194
H43   H     H_    0.016678 0.407908 0.451271 0.103048
H44   H     H_    0.025579 0.429949 0.565862 0.100502
O1    O     O_R   0.215090 0.709860 0.828130 -0.527291
O2    O     O_R   0.784910 0.709860 0.171870 -0.538183
O3    O     O_R   0.715090 0.209860 0.828130 -0.538736
O4    O     O_R   0.284910 0.209860 0.171870 -0.528509
O5    O     O_R   0.445660 0.919250 0.676780 -0.517112
O6    O     O_R   0.554340 0.919250 0.323220 -0.497671
O7    O     O_R   0.945660 0.419250 0.676780 -0.503433
O8    O     O_R   0.054340 0.419250 0.323220 -0.499687
O9    O     O_R   0.456260 0.718170 0.670000 -0.515057
O10   O     O_R   0.543740 0.718170 0.330000 -0.520167
O11   O     O_R   0.956260 0.218170 0.670000 -0.511856
O12   O     O_R   0.043740 0.218170 0.330000 -0.514911
O13   O     O_R   0.320940 0.626760 0.674370 -0.495859
O14   O     O_R   0.679060 0.626760 0.325630 -0.521158
O15   O     O_R   0.820940 0.126760 0.674370 -0.490632
O16   O     O_R   0.179060 0.126760 0.325630 -0.523297
O17   O     O_3   0.334530 0.834540 0.749640 -0.267026
O18   O     O_3   0.665470 0.834540 0.250360 -0.265726
O19   O     O_3   0.834530 0.334540 0.749640 -0.250395
O20   O     O_3   0.165470 0.334540 0.250360 -0.264468
O21   O     O_R   0.236990 0.958390 0.823710 -0.492947
O22   O     O_R   0.763010 0.958390 0.176290 -0.497312
O23   O     O_R   0.736990 0.458390 0.823710 -0.498027
O24   O     O_R   0.263010 0.458390 0.176290 -0.496859
O25   O     O_R   0.332380 0.074750 0.830850 -0.508923
O26   O     O_R   0.667620 0.074750 0.169150 -0.510898
O27   O     O_R   0.832380 0.574750 0.830850 -0.510890
O28   O     O_R   0.167620 0.574750 0.169150 -0.512246
O29   O     O_R   0.445800 0.917770 0.825070 -0.458656
O30   O     O_R   0.554200 0.917770 0.174930 -0.461184
O31   O     O_R   0.945800 0.417770 0.825070 -0.466710
O32   O     O_R   0.054200 0.417770 0.174930 -0.453883
O33   O     O_R   0.456410 0.716580 0.829970 -0.529222
O34   O     O_R   0.543590 0.716580 0.170030 -0.536511
O35   O     O_R   0.956410 0.216580 0.829970 -0.540352
O36   O     O_R   0.043590 0.216580 0.170030 -0.526740
O37   O     O_R   0.321080 0.625290 0.822650 -0.494713
O38   O     O_R   0.678920 0.625290 0.177350 -0.495000
O39   O     O_R   0.821080 0.125290 0.822650 -0.494443
O40   O     O_R   0.178920 0.125290 0.177350 -0.497775
O41   O     O_R   0.214930 0.711450 0.668160 -0.526841
O42   O     O_R   0.785070 0.711450 0.331840 -0.517285
O43   O     O_R   0.714930 0.211450 0.668160 -0.523123
O44   O     O_R   0.285070 0.211450 0.331840 -0.514980
O45   O     O_R   0.236850 0.959870 0.675420 -0.509364
O46   O     O_R   0.763150 0.959870 0.324580 -0.506587
O47   O     O_R   0.736850 0.459870 0.675420 -0.510648
O48   O     O_R   0.263150 0.459870 0.324580 -0.504590
O49   O     O_R   0.332230 0.076350 0.670880 -0.510856
O50   O     O_R   0.667770 0.076350 0.329120 -0.540740
O51   O     O_R   0.832230 0.576350 0.670880 -0.523713
O52   O     O_R   0.167770 0.576350 0.329120 -0.542849
N1    N     N_2   0.328809 0.589446 0.433244 -0.534451
H45   H     H_    0.353273 0.514407 0.411688 0.265081
C85   C     C_3   0.373675 0.696133 0.440419 -0.300843
H46   H     H_    0.397580 0.695683 0.494385 0.170326
H47   H     H_    0.344558 0.783050 0.433176 0.155244
H48   H     H_    0.415773 0.693531 0.399682 0.168478
N2    N     N_2   0.705593 0.651875 0.553466 -0.540784
H49   H     H_    0.663573 0.643732 0.587651 0.247367
C86   C     C_3   0.723647 0.778291 0.536989 -0.286704
H50   H     H_    0.706477 0.800742 0.481869 0.165332
H51   H     H_    0.780912 0.795882 0.540656 0.154828
H52   H     H_    0.696736 0.840605 0.574611 0.129978
N3    N     N_2   0.829103 0.090144 0.433116 -0.534455
H53   H     H_    0.852349 0.014642 0.410733 0.265172
C87   C     C_3   0.874414 0.196715 0.432134 -0.290519
H54   H     H_    0.926462 0.170829 0.453171 0.167797
H55   H     H_    0.853287 0.270280 0.466450 0.161205
H56   H     H_    0.880600 0.231724 0.376591 0.157460
N4    N     N_2   0.219240 0.117809 0.552893 -0.528332
H57   H     H_    0.175151 0.100476 0.583099 0.255243
C88   C     C_3   0.236874 0.247106 0.548029 -0.275028
H58   H     H_    0.213347 0.286483 0.498907 0.154422
H59   H     H_    0.294345 0.263086 0.545567 0.163664
H60   H     H_    0.215883 0.296271 0.595090 0.135894
N5    N     N_2   0.423000 0.004017 0.155239 -0.497794
H61   H     H_    0.414803 0.080390 0.186206 0.258940
C89   C     C_3   0.371789 0.906820 0.165921 -0.294269
H62   H     H_    0.393325 0.837352 0.203261 0.161738
H63   H     H_    0.357268 0.861280 0.115007 0.141865
H64   H     H_    0.323609 0.944131 0.190298 0.136410
N6    N     N_2   0.500497 0.106155 0.869325 -0.477887
H65   H     H_    0.476915 0.183571 0.848850 0.240670
C90   C     C_3   0.575023 0.107219 0.859016 -0.286936
H66   H     H_    0.586750 0.127875 0.802101 0.162965
H67   H     H_    0.597583 0.016460 0.872296 0.143912
H68   H     H_    0.598726 0.179283 0.893061 0.146838
N7    N     N_2   0.999842 0.605363 0.128820 -0.476720
H69   H     H_    0.023761 0.682773 0.148984 0.240426
C91   C     C_3   0.925264 0.605814 0.138950 -0.286585
H70   H     H_    0.913509 0.624859 0.195862 0.162723
H71   H     H_    0.902191 0.515314 0.125478 0.144778
H72   H     H_    0.902025 0.678759 0.105033 0.144946
N8    N     N_2   0.077194 0.506067 0.843435 -0.500401
H73   H     H_    0.085585 0.582786 0.812056 0.259865
C92   C     C_3   0.127797 0.409261 0.832896 -0.294658
H74   H     H_    0.105680 0.340033 0.795992 0.155540
H75   H     H_    0.142361 0.363357 0.883930 0.142535
H76   H     H_    0.176022 0.447036 0.808023 0.139893

loop_
_geom_bond_atom_site_label_1
_geom_bond_atom_site_label_2
_ccdc_geom_bond_type
C16   C28   D    
Cr3   O23   S    
C38   C70   S    
C18   H30   S    
C72   O16   A    
C37   C69   S    
Cr8   O8    S    
Cr1   O21   S    
C86   H50   S    
Cr9   O9    S    
C35   C36   S    
C53   H9    S    
Cr9   O13   S    
C2    O22   A    
Cr7   O7    S    
C81   C82   A    
C3    O27   A    
C62   O50   A    
C77   C78   A    
Cr5   O5    S    
C29   H42   S    
Cr1   O1    S    
C50   C54   S    
C7    C79   A    
C81   H1    S    
C83   C84   A    
Cr11  O19   S    
Cr5   O49   S    
Cr7   O27   S    
C42   N2    S    
C47   C76   S    
C66   O10   A    
C23   H23   S    
C8    C10   A    
C49   C53   S    
C75   C84   A    
Cr4   O44   S    
C43   N3    S    
C34   H38   S    
C51   H7    S    
Cr12  O12   S    
C90   H68   S    
C3    C18   S    
C7    C9    A    
Cr10  O38   S    
C19   H31   S    
Cr11  O35   S    
C56   H12   S    
C41   N1    S    
C48   O32   A    
Cr11  O11   S    
C70   O42   A    
C39   C55   D    
C28   H28   S    
N6    H65   S    
Cr4   O4    S    
C40   C56   D    
N8    C92   S    
C87   H56   S    
Cr1   O41   S    
N8    H73   S    
C4    O24   A    
Cr2   O22   S    
C23   C27   S    
C38   H14   S    
C12   H20   S    
C11   H19   S    
C9    C10   A    
C2    O26   A    
Cr7   O19   S    
C10   H18   S    
C3    O23   A    
C32   C68   S    
C85   H48   S    
C37   C53   D    
C44   C52   D    
C39   H15   S    
C1    O21   A    
N2    H49   S    
Cr10  O18   S    
C30   H41   S    
C18   C22   D    
C92   H74   S    
Cr6   O26   S    
C61   O49   A    
C86   H51   S    
C48   C75   S    
C13   C25   D    
Cr1   O17   S    
C36   H40   S    
C76   C83   A    
C41   C49   D    
C64   O52   A    
C61   O45   A    
C90   H66   S    
N3    C87   S    
Cr1   O45   S    
C14   C58   S    
C5    N5    S    
C24   H24   S    
C7    N7    S    
C54   H10   S    
C67   O11   A    
C87   H54   S    
C84   H4    S    
C32   C35   D    
C71   O43   A    
Cr9   O37   S    
C79   C80   A    
C72   O44   A    
C32   H43   S    
C91   H71   S    
C35   H39   S    
C89   H62   S    
C27   H27   S    
Cr3   O47   S    
C51   C55   S    
N1    C85   S    
N5    H61   S    
C88   H58   S    
Cr7   O51   S    
C29   C34   D    
C69   O13   A    
C46   O30   A    
C55   H11   S    
C45   C74   S    
Cr6   O18   S    
C19   C23   D    
C17   H29   S    
N7    H69   S    
C68   O12   A    
C45   O33   A    
C89   H63   S    
Cr2   O46   S    
Cr8   O28   S    
C15   C27   D    
N4    H57   S    
C38   C54   D    
C1    O25   A    
Cr10  O14   S    
C71   O15   A    
Cr6   O30   S    
C46   O34   A    
C33   C34   S    
Cr3   O43   S    
C15   H35   S    
C58   O38   A    
C64   O48   A    
C14   C26   D    
Cr9   O17   S    
Cr2   O18   S    
Cr5   O25   S    
C30   C66   S    
C42   C50   D    
C16   C60   S    
C4    C17   S    
N3    H53   S    
Cr11  O39   S    
Cr12  O20   S    
Cr10  O34   S    
C50   H6    S    
C63   O47   A    
Cr7   O31   S    
C92   H75   S    
C5    C11   A    
C67   O7    A    
C86   H52   S    
C29   C65   S    
C76   C80   A    
C74   C81   A    
C5    C77   A    
C6    C12   A    
C73   C82   A    
Cr2   O2    S    
C8    C80   A    
C6    N6    S    
Cr6   O50   S    
C88   H60   S    
C22   H22   S    
C14   H34   S    
C21   C25   S    
C52   H8    S    
C1    C20   S    
C15   C59   S    
C58   O2    A    
C40   C72   S    
C30   C33   D    
N4    C88   S    
C2    C19   S    
C70   O14   A    
C37   H13   S    
C33   H37   S    
C24   C28   S    
C87   H55   S    
Cr2   O42   S    
C68   O8    A    
Cr12  O36   S    
C47   O31   A    
C11   C12   A    
N6    C90   S    
Cr5   O17   S    
C57   O1    A    
C44   C61   S    
C60   O40   A    
C74   C78   A    
C62   O46   A    
C20   H32   S    
Cr8   O20   S    
C44   N4    S    
C9    H17   S    
Cr12  O40   S    
C59   O39   A    
C88   H59   S    
Cr5   O29   S    
N7    C91   S    
Cr4   O24   S    
C75   C79   A    
C60   O4    A    
C89   H64   S    
C57   O37   A    
C40   H16   S    
C43   C51   D    
Cr12  O16   S    
C25   H25   S    
Cr8   O32   S    
C63   O51   A    
C52   C56   S    
Cr9   O33   S    
C90   H67   S    
Cr3   O19   S    
C91   H72   S    
Cr11  O15   S    
Cr4   O20   S    
C65   O9    A    
N5    C89   S    
C16   H36   S    
C17   C21   D    
C82   H2    S    
C66   O6    A    
C21   H21   S    
C6    C78   A    
C31   C67   S    
C47   O35   A    
C59   O3    A    
C85   H46   S    
C8    N8    S    
C4    O28   A    
Cr10  O10   S    
Cr4   O48   S    
C13   C57   S    
C43   C62   S    
C73   C77   A    
Cr6   O6    S    
N1    H45   S    
C22   C26   S    
C92   H76   S    
C91   H70   S    
N2    C86   S    
C39   C71   S    
C31   C36   D    
C83   H3    S    
C26   H26   S    
C41   C64   S    
Cr3   O3    S    
C31   H44   S    
C65   O5    A    
C42   C63   S    
C20   C24   D    
C46   C73   S    
C13   H33   S    
C45   O29   A    
Cr8   O52   S    
C49   H5    S    
C69   O41   A    
C48   O36   A    
C85   H47   S    
