data_mof_unit_4699.cif
_audit_creation_date              2012-10-26T19:55:49-0400
_audit_creation_method            fapswitch 2.2
_symmetry_space_group_name_H-M    P1
_symmetry_Int_Tables_number       1
_space_group_crystal_system       triclinic
_cell_length_a                    10.856555
_cell_length_b                    10.873081
_cell_length_c                    9.570795
_cell_angle_alpha                 90.027165
_cell_angle_beta                  90.962297
_cell_angle_gamma                 91.956227
_cell_volume                      1128.9585535

loop_
_atom_site_label
_atom_site_type_symbol
_atom_type_description
_atom_site_fract_x
_atom_site_fract_y
_atom_site_fract_z
_atom_type_partial_charge
C1    C     C_R   0.507400 0.262505 0.501395 0.548142
C2    C     C_R   0.827250 0.389794 0.982925 -0.113533
C3    C     C_R   0.807162 0.262207 0.981212 -0.114177
C4    C     C_R   0.262515 0.502281 0.498829 0.548235
C5    C     C_R   0.827363 0.195654 0.859168 -0.133390
C6    C     C_R   0.864103 0.256985 0.737550 -0.096078
C7    C     C_R   0.884140 0.385149 0.738688 0.055920
C8    C     C_R   0.542891 0.116753 0.767760 -0.105202
C9    C     C_R   0.519272 0.054949 0.892224 -0.139304
C10   C     C_R   0.462989 0.938874 0.888792 -0.126975
C11   C     C_R   0.440029 0.880645 0.761012 -0.097790
C12   C     C_R   0.208750 0.730959 0.024527 -0.102543
C13   C     C_R   0.477217 0.936462 0.633791 0.025531
C14   C     C_R   0.511955 0.062471 0.636082 0.024490
C15   C     C_R   0.513643 0.128080 0.506919 -0.009693
C16   C     C_R   0.491346 0.737245 0.500773 0.530268
C17   C     C_R   0.506430 0.063330 0.380435 -0.168706
C18   C     C_R   0.496278 0.936373 0.379750 -0.174228
C19   C     C_R   0.482788 0.871387 0.505023 -0.013006
C20   C     C_R   0.658799 0.667577 0.146814 -0.107712
C21   C     C_R   0.734476 0.750805 0.075741 -0.186067
C22   C     C_R   0.734233 0.750725 0.931905 -0.173848
C23   C     C_R   0.932874 0.544030 0.387477 -0.159670
C24   C     C_R   0.658764 0.666954 0.858431 -0.087382
C25   C     C_R   0.577585 0.582606 0.926483 0.154891
C26   C     C_R   0.577558 0.582717 0.076200 0.153915
C27   C     C_R   0.425891 0.421735 0.072531 -0.000802
C28   C     C_R   0.737556 0.496403 0.501356 0.538348
C29   C     C_R   0.425949 0.421742 0.924462 -0.012032
C30   C     C_R   0.224892 0.784883 0.156492 -0.106480
C31   C     C_R   0.179806 0.724149 0.274691 -0.060136
C32   C     C_R   0.118143 0.609073 0.260880 0.055390
C33   C     C_R   0.104434 0.554436 0.128362 -0.098015
C34   C     C_R   0.871570 0.494777 0.503296 -0.002153
C35   C     C_R   0.150011 0.615240 0.010567 -0.115604
C36   C     C_R   0.939923 0.447255 0.616840 -0.034202
C37   C     C_R   0.067655 0.452563 0.612426 -0.158141
C38   C     C_R   0.128695 0.503030 0.497288 -0.004880
C39   C     C_R   0.060658 0.549374 0.383270 -0.033665
C40   C     C_R   0.867853 0.450880 0.862767 -0.083045
Cu1   Cu    Cu3+1 0.499990 0.499990 0.640660 0.909828
Cu2   Cu    Cu3+1 0.500010 0.500010 0.359340 0.924017
H1    H     H_    0.240274 0.779321 0.932821 0.099356
H2    H     H_    0.498607 0.889118 0.280189 0.136163
H3    H     H_    0.365085 0.357735 0.126776 0.115411
H4    H     H_    0.270483 0.874568 0.166967 0.097071
H5    H     H_    0.669612 0.673483 0.256842 0.184648
H6    H     H_    0.795114 0.814683 0.133065 0.120882
H7    H     H_    0.794791 0.814389 0.876555 0.118545
H8    H     H_    0.670334 0.670950 0.748800 0.188679
H9    H     H_    0.365282 0.357617 0.867819 0.117265
H10   H     H_    0.190652 0.767607 0.376238 0.094234
H11   H     H_    0.057824 0.465351 0.116529 0.107125
H12   H     H_    0.777091 0.214801 0.074701 0.111153
H13   H     H_    0.138484 0.573447 0.908330 0.110561
H14   H     H_    0.881214 0.581945 0.300659 0.122088
H15   H     H_    0.119715 0.414093 0.698779 0.127006
H16   H     H_    0.888679 0.548842 0.866771 0.110939
H17   H     H_    0.813841 0.440996 0.078141 0.121126
H18   H     H_    0.813323 0.096617 0.858424 0.112269
H19   H     H_    0.880015 0.204488 0.643742 0.103037
H20   H     H_    0.509979 0.110777 0.280993 0.129732
H21   H     H_    0.590331 0.204726 0.778373 0.169048
H22   H     H_    0.542510 0.098410 0.991465 0.104603
H23   H     H_    0.439777 0.892716 0.985389 0.111295
H24   H     H_    0.390622 0.793099 0.764098 0.144242
N1    N     N_R   0.501190 0.501210 0.147910 -0.240330
N2    N     N_R   0.501230 0.501290 0.852040 -0.247670
O1    O     O_R   0.499990 0.319640 0.618810 -0.513487
O2    O     O_R   0.500000 0.319660 0.381240 -0.506079
O3    O     O_R   0.319640 0.500000 0.618780 -0.514725
O4    O     O_R   0.319650 0.500020 0.381210 -0.484594
O5    O     O_R   0.500000 0.680340 0.618760 -0.535696
O6    O     O_R   0.500010 0.680360 0.381190 -0.520701
O7    O     O_R   0.680350 0.499980 0.618790 -0.512489
O8    O     O_R   0.680360 0.500000 0.381220 -0.531224

loop_
_geom_bond_atom_site_label_1
_geom_bond_atom_site_label_2
_ccdc_geom_bond_type
C27   C29   A    
C9    H22   S    
C7    C36   S    
C31   H10   S    
C23   H14   S    
C5    C6    A    
C16   O6    A    
C26   N1    A    
C6    H19   S    
C36   C37   A    
C12   H1    S    
C30   C31   A    
C3    H12   S    
Cu2   O2    S    
C18   C19   A    
Cu1   Cu2   S    
C32   C39   S    
C8    C9    A    
C7    C40   A    
C1    C15   S    
C9    C10   A    
C11   H24   S    
Cu1   O3    S    
C21   H6    S    
C27   H3    S    
C28   C34   S    
C13   C14   A    
C33   H11   S    
C25   N2    A    
Cu1   N2    S    
C24   H8    S    
Cu2   O6    S    
C40   H16   S    
C13   C19   A    
C35   H13   S    
C16   O5    A    
C24   C25   A    
C2    H17   S    
C25   C26   A    
C1    O1    A    
C37   C38   A    
C18   H2    S    
C17   H20   S    
Cu1   O7    S    
C29   N2    A    
C31   C32   A    
C23   C34   A    
Cu2   O4    S    
C17   C18   A    
C12   C35   A    
C22   H7    S    
C4    C38   S    
Cu2   N1    S    
C22   C24   A    
C28   O8    A    
C4    O4    A    
Cu1   O1    S    
C29   H9    S    
C10   H23   S    
C15   C17   A    
C8    C14   A    
C5    H18   S    
C12   C30   A    
C30   H4    S    
C3    C5    A    
C6    C7    A    
Cu2   O8    S    
C1    O2    A    
C32   C33   A    
C2    C3    A    
C11   C13   A    
C38   C39   A    
C20   C26   A    
C16   C19   S    
C23   C39   A    
C33   C35   A    
C34   C36   A    
C20   H5    S    
C27   N1    A    
C10   C11   A    
C8    H21   S    
Cu1   O5    S    
C2    C40   A    
C20   C21   A    
C14   C15   A    
C21   C22   A    
C28   O7    A    
C4    O3    A    
C37   H15   S    
