data_mof_unit_3168.cif
_audit_creation_date              2012-12-10T17:57:54-0500
_audit_creation_method            fapswitch 2.2
_symmetry_space_group_name_H-M    P1
_symmetry_Int_Tables_number       1
_space_group_crystal_system       triclinic
_cell_length_a                    10.81763
_cell_length_b                    9.594368
_cell_length_c                    15.078637
_cell_angle_alpha                 90.137776
_cell_angle_beta                  91.271444
_cell_angle_gamma                 90.001925
_cell_volume                      1564.59660806

loop_
_atom_site_label
_atom_site_type_symbol
_atom_type_description
_atom_site_fract_x
_atom_site_fract_y
_atom_site_fract_z
_atom_type_partial_charge
C1    C     C_R   0.262298 0.499994 0.499627 0.796543
C2    C     C_R   0.737702 0.500005 0.500373 0.796543
C3    C     C_R   0.274310 0.535727 0.040281 -0.030833
C4    C     C_R   0.725689 0.464273 0.959719 -0.030833
C5    C     C_R   0.063909 0.373341 0.500069 -0.142540
C6    C     C_R   0.936091 0.626659 0.499931 -0.142540
C7    C     C_R   0.936109 0.373352 0.500582 -0.129514
C8    C     C_R   0.063891 0.626648 0.499418 -0.129514
C9    C     C_R   0.871675 0.500011 0.500523 -0.004386
C10   C     C_R   0.128325 0.499989 0.499477 -0.004386
C11   C     C_R   0.421944 0.074224 0.444381 0.022125
C12   C     C_R   0.578056 0.925775 0.555619 0.022126
C13   C     C_R   0.578155 0.074491 0.555553 0.018300
C14   C     C_R   0.421845 0.925509 0.444447 0.018300
C15   C     C_R   0.499707 0.499738 0.329490 0.810617
C16   C     C_R   0.500293 0.500262 0.670509 0.810618
C17   C     C_R   0.615434 0.487338 0.814401 0.354059
C18   C     C_R   0.384566 0.512662 0.185599 0.354059
C19   C     C_R   0.502199 0.501552 0.766837 -0.191421
C20   C     C_R   0.497801 0.498448 0.233163 -0.191421
C21   C     C_R   0.390123 0.517336 0.810562 -0.114038
C22   C     C_R   0.609877 0.482664 0.189438 -0.114038
C23   C     C_R   0.389369 0.517937 0.903715 0.065354
C24   C     C_R   0.610631 0.482063 0.096285 0.065354
C25   C     C_R   0.501232 0.500263 0.952938 -0.001470
C26   C     C_R   0.498768 0.499737 0.047062 -0.001470
C27   C     C_R   0.615300 0.483425 0.908326 0.033570
C28   C     C_R   0.384700 0.516575 0.091674 0.033570
C29   C     C_R   0.278193 0.535914 0.948392 -0.241993
C30   C     C_R   0.721807 0.464085 0.051608 -0.241993
Cu1   Cu    Cu3+1 0.500000 0.640660 0.500000 0.978927
Cu2   Cu    Cu3+1 0.500000 0.359340 0.500000 0.978927
H1    H     H_    0.191955 0.550958 0.911681 0.173179
H2    H     H_    0.808045 0.449042 0.088319 0.173179
H3    H     H_    0.111925 0.274279 0.500265 0.156752
H4    H     H_    0.888075 0.725720 0.499735 0.156752
H5    H     H_    0.888103 0.274294 0.500846 0.156422
H6    H     H_    0.111897 0.725706 0.499154 0.156422
N1    N     N_R   0.500000 0.852070 0.500000 -0.205845
N2    N     N_R   0.500000 0.147930 0.500000 -0.205845
O1    O     O_R   0.319640 0.618740 0.499990 -0.588046
O2    O     O_R   0.680360 0.381260 0.500010 -0.588046
O3    O     O_R   0.680360 0.618740 0.500010 -0.590895
O4    O     O_R   0.319640 0.381260 0.499990 -0.590895
O5    O     O_R   0.499970 0.618800 0.370260 -0.570899
O6    O     O_R   0.500030 0.381200 0.629740 -0.570899
O7    O     O_R   0.500030 0.618800 0.629740 -0.575712
O8    O     O_R   0.499970 0.381200 0.370260 -0.575712
O9    O     O_3   0.726873 0.477734 0.771100 -0.708144
H7    H     H_    0.717488 0.501097 0.707555 0.332292
O10   O     O_3   0.273127 0.522265 0.228900 -0.708145
H8    H     H_    0.282512 0.498903 0.292445 0.332292
C31   C     C_1   0.275790 0.532360 0.758707 0.256178
N3    N     N_1   0.184768 0.544337 0.717645 -0.263888
C32   C     C_1   0.724209 0.467640 0.241293 0.256178
N4    N     N_1   0.815232 0.455663 0.282355 -0.263888
C33   C     C_1   0.153701 0.557524 0.077713 0.396279
N5    N     N_1   0.057005 0.575093 0.107169 -0.253526
C34   C     C_1   0.846299 0.442476 0.922287 0.396279
N6    N     N_1   0.942995 0.424907 0.892831 -0.253526
C35   C     C_1   0.338733 0.147826 0.384695 0.293833
N7    N     N_1   0.271575 0.205465 0.336510 -0.275505
C36   C     C_1   0.661267 0.852174 0.615305 0.293833
N8    N     N_1   0.728425 0.794535 0.663490 -0.275505
C37   C     C_1   0.662168 0.148180 0.614776 0.293246
N9    N     N_1   0.730189 0.205635 0.662580 -0.249023
C38   C     C_1   0.337832 0.851820 0.385224 0.293246
N10   N     N_1   0.269811 0.794364 0.337420 -0.249023

loop_
_geom_bond_atom_site_label_1
_geom_bond_atom_site_label_2
_ccdc_geom_bond_type
C6    C8    A    
C14   C38   S    
C23   C29   A    
C11   C35   S    
C22   C32   S    
C2    O2    A    
C25   C27   A    
Cu1   O3    S    
C1    O4    A    
C26   C28   A    
Cu1   Cu2   S    
Cu1   N1    S    
C2    O3    A    
C32   N4    T    
C30   H2    S    
C7    C9    A    
C12   N1    A    
Cu2   N2    S    
Cu2   O4    S    
C34   N6    T    
C25   C26   A    
Cu1   O7    S    
C31   N3    T    
C21   C31   S    
Cu2   O8    S    
C24   C26   A    
C33   N5    T    
C11   N2    A    
C8    H6    S    
C15   O8    A    
C6    C9    A    
C16   C19   S    
C5    H3    S    
C16   O7    A    
C1    O1    A    
C3    C28   A    
C17   C19   A    
C20   C22   A    
C18   O10   S    
O9    H7    S    
C18   C20   A    
C23   C25   A    
C21   C23   A    
C7    H5    S    
C35   N7    T    
C11   C14   A    
C24   C30   A    
C15   O5    A    
C17   O9    S    
C38   N10   T    
C17   C27   A    
C29   H1    S    
C5    C10   A    
C4    C27   A    
C18   C28   A    
C12   C13   A    
C4    C34   S    
C3    C29   A    
C37   N9    T    
Cu1   O5    S    
C22   C24   A    
C16   O6    A    
C5    C7    A    
C12   C36   S    
Cu2   O2    S    
C13   N2    A    
C13   C37   S    
Cu1   O1    S    
C19   C21   A    
C14   N1    A    
C36   N8    T    
C2    C9    S    
Cu2   O6    S    
C8    C10   A    
C4    C30   A    
C1    C10   S    
O10   H8    S    
C6    H4    S    
C15   C20   S    
C3    C33   S    
