data_mof_unit_4906.cif
_audit_creation_date              2012-12-10T18:56:29-0500
_audit_creation_method            fapswitch 2.2
_symmetry_space_group_name_H-M    P1
_symmetry_Int_Tables_number       1
_space_group_crystal_system       triclinic
_cell_length_a                    10.649148
_cell_length_b                    9.811761
_cell_length_c                    19.4178
_cell_angle_alpha                 90.608495
_cell_angle_beta                  90.292704
_cell_angle_gamma                 90.356602
_cell_volume                      2028.72475053

loop_
_atom_site_label
_atom_site_type_symbol
_atom_type_description
_atom_site_fract_x
_atom_site_fract_y
_atom_site_fract_z
_atom_type_partial_charge
C1    C     C_R   0.872070 0.500438 0.499647 -0.207607
C2    C     C_R   0.739517 0.500173 0.499445 0.816405
C3    C     C_R   0.502020 0.499168 0.365435 0.818023
C4    C     C_R   0.498692 0.500817 0.634542 0.824697
C5    C     C_R   0.065258 0.489320 0.436469 -0.059531
C6    C     C_R   0.934724 0.511672 0.563419 -0.052494
C7    C     C_R   0.934391 0.483536 0.436446 -0.039579
C8    C     C_R   0.065549 0.518083 0.563420 -0.033452
C9    C     C_R   0.441222 0.391236 0.746104 -0.084584
C10   C     C_R   0.566368 0.607735 0.254434 -0.055955
C11   C     C_R   0.458703 0.383965 0.251660 -0.023850
C12   C     C_R   0.127902 0.499996 0.500289 -0.207057
C13   C     C_R   0.553983 0.611913 0.747744 -0.052161
C14   C     C_R   0.447387 0.387947 0.818405 -0.043773
C15   C     C_R   0.571248 0.605707 0.182041 -0.010355
C16   C     C_R   0.461724 0.383783 0.179311 -0.022366
C17   C     C_R   0.557440 0.609889 0.819983 -0.036871
C18   C     C_R   0.505718 0.496987 0.854406 -0.026238
C19   C     C_R   0.516478 0.495550 0.145645 -0.091045
C20   C     C_R   0.583797 0.073447 0.539673 -0.009356
C21   C     C_R   0.416266 0.926555 0.460285 -0.014572
C22   C     C_R   0.416189 0.070651 0.460343 -0.060403
C23   C     C_R   0.620528 0.463338 0.963145 -0.069342
C24   C     C_R   0.583954 0.929355 0.539563 -0.063478
C25   C     C_R   0.496258 0.502458 0.710510 -0.169346
C26   C     C_R   0.509432 0.496789 0.289501 -0.224615
C27   C     C_2   0.138120 0.495708 0.370988 0.555334
C28   C     C_2   0.861954 0.505899 0.628918 0.547733
C29   C     C_2   0.861339 0.451498 0.372368 0.544423
C30   C     C_2   0.138393 0.552824 0.627267 0.524491
C31   C     C_2   0.375837 0.278627 0.707840 0.419596
C32   C     C_2   0.620810 0.726115 0.293087 0.569590
C33   C     C_2   0.406496 0.263382 0.287176 0.523899
C34   C     C_R   0.403378 0.530010 0.036784 -0.135796
C35   C     C_2   0.606931 0.732203 0.711971 0.365499
C36   C     C_2   0.387435 0.272856 0.856208 0.483223
C37   C     C_2   0.635161 0.716540 0.143004 0.496108
C38   C     C_2   0.413410 0.265373 0.137283 0.442089
C39   C     C_2   0.612170 0.728777 0.859097 0.428548
C40   C     C_R   0.623550 0.464117 0.034466 -0.172815
C41   C     C_R   0.400191 0.528737 0.965554 -0.082179
C42   C     C_R   0.514947 0.497619 0.070901 0.006823
C43   C     C_R   0.508769 0.495433 0.929061 0.197288
C44   C     C_R   0.260470 0.499880 0.500535 0.817878
H1    H     H_    0.650640 0.129359 0.571383 0.151273
H2    H     H_    0.767347 0.545237 0.631036 0.069118
H3    H     H_    0.768369 0.492911 0.365118 -0.017713
H4    H     H_    0.232707 0.514973 0.634241 -0.014845
H5    H     H_    0.310758 0.301396 0.666495 0.076226
H6    H     H_    0.684860 0.710023 0.335782 0.051116
H7    H     H_    0.469413 0.186701 0.307302 0.080898
H8    H     H_    0.544847 0.801980 0.685642 0.121678
H9    H     H_    0.300382 0.227878 0.837296 0.101560
H10   H     H_    0.597719 0.748913 0.093774 0.104089
H11   H     H_    0.454886 0.241893 0.087663 0.110044
H12   H     H_    0.349475 0.870643 0.428542 0.153608
H13   H     H_    0.691534 0.784815 0.838864 0.142509
H14   H     H_    0.349141 0.124330 0.428793 0.158960
H15   H     H_    0.651224 0.875690 0.570978 0.155498
H16   H     H_    0.704328 0.437898 0.934467 0.149732
H17   H     H_    0.319520 0.555484 0.065414 0.173644
H18   H     H_    0.709498 0.438535 0.061330 0.172006
H19   H     H_    0.314086 0.554033 0.938756 0.142751
H20   H     H_    0.233167 0.457636 0.368978 0.066907
N1    N     N_R   0.500000 0.857200 0.500000 -0.097828
N2    N     N_R   0.500000 0.142800 0.500000 -0.097336
O1    O     O_R   0.316770 0.614620 0.500000 -0.609501
O2    O     O_2   0.904172 0.450183 0.679901 -0.527859
O3    O     O_2   0.901611 0.372612 0.328849 -0.494197
O4    O     O_2   0.096428 0.630474 0.670860 -0.506374
O5    O     O_2   0.397766 0.159463 0.720569 -0.554882
O6    O     O_2   0.591254 0.842501 0.278690 -0.538247
O7    O     O_2   0.293319 0.249839 0.294246 -0.516584
O8    O     O_2   0.719911 0.753955 0.712078 -0.567685
O9    O     O_2   0.435994 0.225000 0.907592 -0.540865
O10   O     O_2   0.733016 0.768219 0.163806 -0.508683
O11   O     O_2   0.325011 0.195559 0.156042 -0.479592
O12   O     O_R   0.683230 0.385380 0.500000 -0.610222
O13   O     O_2   0.566895 0.768272 0.913337 -0.546074
O14   O     O_R   0.683230 0.614620 0.500000 -0.618489
O15   O     O_R   0.316770 0.385380 0.500000 -0.616553
O16   O     O_R   0.500030 0.614710 0.398180 -0.622093
O17   O     O_R   0.499970 0.385290 0.601820 -0.612195
O18   O     O_R   0.499970 0.614710 0.601820 -0.629596
O19   O     O_R   0.500030 0.385290 0.398180 -0.628902
O20   O     O_2   0.095561 0.550777 0.319908 -0.504903
Zn1   Zn    Zn3+2 0.500000 0.653120 0.500000 0.971277
Zn2   Zn    Zn3+2 0.500000 0.346880 0.500000 0.975499

loop_
_geom_bond_atom_site_label_1
_geom_bond_atom_site_label_2
_ccdc_geom_bond_type
C35   O8    D    
C7    C29   S    
C3    O19   A    
C14   C18   A    
C34   C42   A    
O18   Zn1   S    
C4    C25   S    
C9    C25   A    
C32   O6    D    
C15   C19   A    
C28   H2    S    
C29   H3    S    
C20   N2    A    
C28   O2    D    
C13   C35   S    
O14   Zn1   S    
C10   C15   A    
C24   H15   S    
N2    Zn2   S    
O12   Zn2   S    
C23   C40   A    
C39   H13   S    
C40   H18   S    
C1    C2    S    
C17   C39   S    
C22   N2    A    
C36   H9    S    
C5    C27   S    
C6    C28   S    
C38   H11   S    
C20   C24   A    
C20   H1    S    
C19   C42   S    
C10   C26   A    
C40   C42   A    
O17   Zn2   S    
C21   C22   A    
C41   C43   A    
C13   C25   A    
C34   C41   A    
C31   H5    S    
C30   O4    D    
N1    Zn1   S    
C29   O3    D    
C23   H16   S    
C1    C6    A    
C11   C33   S    
C5    C12   A    
C44   O15   A    
C5    C7    A    
C6    C8    A    
C11   C26   A    
C34   H17   S    
C39   O13   D    
C27   O20   D    
C9    C14   A    
C2    O12   A    
C36   O9    D    
C11   C16   A    
C4    O18   A    
C8    C12   A    
C3    O16   A    
C17   C18   A    
C32   H6    S    
C24   N1    A    
C37   H10   S    
C33   O7    D    
C37   O10   D    
C41   H19   S    
O19   Zn2   S    
C30   H4    S    
C21   N1    A    
C1    C7    A    
C23   C43   A    
C3    C26   S    
C22   H14   S    
C21   H12   S    
C38   O11   D    
C33   H7    S    
O1    Zn1   S    
C13   C17   A    
C8    C30   S    
C12   C44   S    
C15   C37   S    
C18   C43   S    
C14   C36   S    
C4    O17   A    
C16   C19   A    
C31   O5    D    
O15   Zn2   S    
C2    O14   A    
C27   H20   S    
C9    C31   S    
C10   C32   S    
C35   H8    S    
C44   O1    A    
O16   Zn1   S    
C16   C38   S    
