data_mof_unit_3182.cif
_audit_creation_date              2012-12-11T14:07:33-0500
_audit_creation_method            fapswitch 2.2
_symmetry_space_group_name_H-M    P1
_symmetry_Int_Tables_number       1
_space_group_crystal_system       triclinic
_cell_length_a                    19.759602
_cell_length_b                    17.137674
_cell_length_c                    15.375578
_cell_angle_alpha                 89.999502
_cell_angle_beta                  53.526432
_cell_angle_gamma                 89.999553
_cell_volume                      4186.85985239

loop_
_atom_site_label
_atom_site_type_symbol
_atom_type_description
_atom_site_fract_x
_atom_site_fract_y
_atom_site_fract_z
_atom_type_partial_charge
C1    C     C_R   0.374517 0.196628 0.996079 -0.118958
C2    C     C_R   0.705734 0.848372 0.989619 0.160709
C3    C     C_R   0.205715 0.651642 0.989652 0.160725
C4    C     C_R   0.205730 0.348368 0.989622 0.160709
C5    C     C_R   0.612171 0.818292 0.694717 -0.001897
C6    C     C_R   0.612168 0.181709 0.694718 -0.001896
C7    C     C_R   0.112173 0.318295 0.694715 -0.001908
C8    C     C_R   0.112171 0.681709 0.694718 -0.001898
C9    C     C_3   0.199927 0.134674 0.518595 -0.398625
C10   C     C_3   0.199973 0.865349 0.518639 -0.398588
C11   C     C_3   0.699969 0.634657 0.518629 -0.398578
C12   C     C_R   0.374514 0.803374 0.996087 -0.118970
C13   C     C_3   0.699962 0.365345 0.518629 -0.398587
C14   C     C_3   0.143939 0.182112 0.623294 -0.408978
C15   C     C_3   0.144154 0.817906 0.623360 -0.409198
C16   C     C_3   0.644148 0.682098 0.623352 -0.409199
C17   C     C_3   0.644136 0.317904 0.623352 -0.409192
C18   C     C_3   0.310820 0.241320 0.442629 -0.404286
C19   C     C_3   0.310810 0.758642 0.442586 -0.404297
C20   C     C_3   0.810816 0.741350 0.442601 -0.404309
C21   C     C_3   0.810811 0.258654 0.442602 -0.404303
C22   C     C_3   0.698782 0.744123 0.411073 -0.404970
C23   C     C_R   0.874518 0.696628 0.996082 -0.118978
C24   C     C_3   0.698778 0.255880 0.411072 -0.404966
C25   C     C_3   0.198829 0.244189 0.411027 -0.404890
C26   C     C_3   0.198760 0.755898 0.411085 -0.404956
C27   C     C_3   0.257086 0.190717 0.421468 0.403481
C28   C     C_3   0.257077 0.809308 0.421486 0.403535
C29   C     C_3   0.757086 0.690700 0.421483 0.403539
C30   C     C_3   0.757080 0.309304 0.421484 0.403536
C31   C     C_3   0.660630 0.770533 0.597215 0.405401
C32   C     C_3   0.660626 0.229470 0.597216 0.405399
C33   C     C_3   0.160632 0.270542 0.597208 0.405391
C34   C     C_R   0.874513 0.303374 0.996087 -0.118963
C35   C     C_3   0.160626 0.729471 0.597217 0.405398
C36   C     C_3   0.754133 0.789059 0.544982 -0.392717
C37   C     C_3   0.754130 0.210949 0.544987 -0.392717
C38   C     C_3   0.254145 0.288874 0.545169 -0.392670
C39   C     C_3   0.254130 0.710933 0.544969 -0.392722
C40   C     C_R   0.354442 0.823801 0.218889 -0.141385
C41   C     C_R   0.354455 0.176211 0.218874 -0.141328
C42   C     C_R   0.854445 0.323798 0.218887 -0.141385
C43   C     C_R   0.854448 0.676204 0.218887 -0.141388
C44   C     C_3   0.640574 0.790565 0.515990 -0.409561
C45   C     C_R   0.664884 0.911634 0.059110 -0.157054
C46   C     C_3   0.640576 0.209432 0.515986 -0.409560
C47   C     C_3   0.140775 0.290778 0.515836 -0.409611
C48   C     C_3   0.140556 0.709452 0.516002 -0.409550
C49   C     C_2   0.277934 0.690534 0.970368 -0.205952
C50   C     C_2   0.277968 0.309487 0.970310 -0.205922
C51   C     C_2   0.777944 0.190528 0.970351 -0.205946
C52   C     C_2   0.777947 0.809476 0.970349 -0.205965
C53   C     C_2   0.807353 0.255516 0.910633 -0.215816
C54   C     C_2   0.807375 0.744498 0.910611 -0.215836
C55   C     C_2   0.307350 0.755517 0.910640 -0.215813
C56   C     C_R   0.664876 0.088372 0.059123 -0.157059
C57   C     C_2   0.307361 0.244485 0.910615 -0.215780
C58   C     C_R   0.364464 0.889698 0.897830 -0.155817
C59   C     C_R   0.364467 0.110303 0.897826 -0.155816
C60   C     C_R   0.864464 0.389699 0.897830 -0.155823
C61   C     C_R   0.864471 0.610307 0.897821 -0.155809
C62   C     C_R   0.365878 0.087668 0.316493 -0.134649
C63   C     C_R   0.365889 0.912333 0.316495 -0.134622
C64   C     C_R   0.865893 0.587669 0.316494 -0.134621
C65   C     C_R   0.865888 0.412334 0.316494 -0.134619
C66   C     C_R   0.345955 0.185903 0.934857 0.154928
C67   C     C_R   0.164884 0.411633 0.059109 -0.157057
C68   C     C_R   0.345948 0.814100 0.934869 0.154945
C69   C     C_R   0.845958 0.685906 0.934857 0.154946
C70   C     C_R   0.845948 0.314100 0.934869 0.154945
C71   C     C_R   0.316485 0.852594 0.322236 -0.005083
C72   C     C_R   0.316492 0.147425 0.322222 -0.005084
C73   C     C_R   0.816488 0.352590 0.322234 -0.005083
C74   C     C_R   0.816494 0.647414 0.322233 -0.005082
C75   C     C_R   0.657685 0.180179 0.958510 -0.126758
C76   C     C_R   0.657696 0.819828 0.958496 -0.126752
C77   C     C_R   0.157679 0.680184 0.958522 -0.126763
C78   C     C_R   0.164871 0.588375 0.059131 -0.157069
C79   C     C_R   0.157687 0.319823 0.958507 -0.126753
C80   C     C_R   0.602629 0.802338 0.789590 -0.147904
C81   C     C_R   0.602627 0.197663 0.789590 -0.147900
C82   C     C_R   0.102641 0.302340 0.789581 -0.147836
C83   C     C_R   0.102629 0.697662 0.789591 -0.147893
C84   C     C_R   0.594785 0.104025 0.694816 -0.143533
C85   C     C_R   0.594787 0.895977 0.694815 -0.143533
C86   C     C_R   0.094788 0.604025 0.694814 -0.143534
C87   C     C_R   0.094771 0.395975 0.694825 -0.143590
C88   C     C_R   0.705723 0.151637 0.989638 0.160717
H1    H     H_    0.383708 0.251401 0.022400 0.078168
H2    H     H_    0.576646 0.331560 0.662950 0.158533
H3    H     H_    0.076466 0.168581 0.662561 0.158592
H4    H     H_    0.076663 0.831574 0.662978 0.158532
H5    H     H_    0.158756 0.164068 0.679677 0.145460
H6    H     H_    0.159307 0.835807 0.679449 0.145584
H7    H     H_    0.659291 0.664189 0.679448 0.145586
H8    H     H_    0.659270 0.335817 0.679456 0.145583
H9    H     H_    0.352475 0.203900 0.451489 0.152976
H10   H     H_    0.352381 0.796043 0.451628 0.153040
H11   H     H_    0.852374 0.703940 0.451652 0.153038
H12   H     H_    0.383703 0.748601 0.022412 0.078176
H13   H     H_    0.852372 0.296065 0.451648 0.153035
H14   H     H_    0.769618 0.775597 0.602228 0.153872
H15   H     H_    0.769612 0.224420 0.602235 0.153872
H16   H     H_    0.269521 0.275111 0.602458 0.153849
H17   H     H_    0.269625 0.724388 0.602208 0.153875
H18   H     H_    0.736064 0.786542 0.343846 0.145504
H19   H     H_    0.736061 0.213464 0.343842 0.145501
H20   H     H_    0.236127 0.286521 0.343693 0.145409
H21   H     H_    0.236031 0.713481 0.343852 0.145499
H22   H     H_    0.660762 0.708578 0.394013 0.156893
H23   H     H_    0.883711 0.751400 0.022402 0.078182
H24   H     H_    0.660754 0.291425 0.394018 0.156897
H25   H     H_    0.160695 0.208657 0.394142 0.156963
H26   H     H_    0.160736 0.791455 0.394042 0.156891
H27   H     H_    0.573608 0.776959 0.552324 0.155312
H28   H     H_    0.573607 0.223029 0.552319 0.155310
H29   H     H_    0.073754 0.277475 0.552096 0.155176
H30   H     H_    0.073588 0.723065 0.552350 0.155309
H31   H     H_    0.650933 0.853428 0.494304 0.144687
H32   H     H_    0.650946 0.146570 0.494296 0.144690
H33   H     H_    0.151471 0.353627 0.494032 0.144789
H34   H     H_    0.883701 0.248601 0.022412 0.078177
H35   H     H_    0.150909 0.646589 0.494312 0.144685
H36   H     H_    0.352098 0.281446 0.373269 0.155778
H37   H     H_    0.352175 0.718616 0.373127 0.155722
H38   H     H_    0.852191 0.781376 0.373146 0.155725
H39   H     H_    0.852185 0.218627 0.373149 0.155726
H40   H     H_    0.337774 0.772768 0.194592 0.088682
H41   H     H_    0.337806 0.227243 0.194555 0.088660
H42   H     H_    0.837779 0.272766 0.194588 0.088682
H43   H     H_    0.837781 0.727237 0.194587 0.088682
H44   H     H_    0.766989 0.852285 0.524718 0.156880
H45   H     H_    0.160047 0.099331 0.504457 0.155829
H46   H     H_    0.766990 0.147723 0.524730 0.156880
H47   H     H_    0.267125 0.352128 0.525142 0.156853
H48   H     H_    0.266979 0.647707 0.524703 0.156878
H49   H     H_    0.296215 0.672775 0.021344 0.120552
H50   H     H_    0.296282 0.327270 0.021249 0.120534
H51   H     H_    0.796228 0.172767 0.021322 0.120554
H52   H     H_    0.796195 0.827214 0.021361 0.120568
H53   H     H_    0.790803 0.272255 0.857489 0.123493
H54   H     H_    0.790851 0.727775 0.857438 0.123507
H55   H     H_    0.290803 0.772253 0.857492 0.123494
H56   H     H_    0.159971 0.900619 0.504636 0.155913
H57   H     H_    0.290790 0.227729 0.857494 0.123473
H58   H     H_    0.359651 0.915698 0.837578 0.089023
H59   H     H_    0.359656 0.084302 0.837572 0.089022
H60   H     H_    0.859652 0.415698 0.837576 0.089020
H61   H     H_    0.859664 0.584310 0.837562 0.089021
H62   H     H_    0.363144 0.061753 0.382226 0.079035
H63   H     H_    0.363186 0.938237 0.382210 0.079029
H64   H     H_    0.863186 0.561761 0.382210 0.079026
H65   H     H_    0.863177 0.438243 0.382212 0.079027
H66   H     H_    0.667354 0.231215 0.911291 0.087162
H67   H     H_    0.659969 0.599397 0.504615 0.155914
H68   H     H_    0.667368 0.768790 0.911276 0.087167
H69   H     H_    0.167345 0.731222 0.911308 0.087162
H70   H     H_    0.167355 0.268787 0.911288 0.087154
H71   H     H_    0.606322 0.746344 0.818732 0.083972
H72   H     H_    0.606321 0.253656 0.818731 0.083968
H73   H     H_    0.106366 0.246351 0.818702 0.083922
H74   H     H_    0.106321 0.753655 0.818734 0.083969
H75   H     H_    0.590762 0.072430 0.637318 0.082768
H76   H     H_    0.590766 0.927572 0.637316 0.082767
H77   H     H_    0.090771 0.572430 0.637312 0.082766
H78   H     H_    0.659964 0.400608 0.504612 0.155913
H79   H     H_    0.090701 0.427559 0.637358 0.082808
H80   H     H_    0.681793 0.938252 0.107175 0.087394
H81   H     H_    0.681784 0.061754 0.107190 0.087394
H82   H     H_    0.181801 0.438258 0.107161 0.087399
H83   H     H_    0.181777 0.561756 0.107200 0.087392
H84   H     H_    0.237502 0.093226 0.529525 0.142418
H85   H     H_    0.237559 0.906872 0.529450 0.142336
H86   H     H_    0.737546 0.593125 0.529446 0.142334
H87   H     H_    0.737538 0.406875 0.529449 0.142339
H88   H     H_    0.576657 0.668439 0.662960 0.158530
N1    N     N_R   0.408680 0.130160 0.995800 -0.041601
N2    N     N_R   0.403730 0.078230 0.935950 -0.038651
N3    N     N_R   0.903730 0.421770 0.935950 -0.038651
N4    N     N_R   0.903730 0.578230 0.935950 -0.038652
N5    N     N_R   0.426630 0.075970 0.212960 -0.034168
N6    N     N_R   0.426630 0.924030 0.212960 -0.034167
N7    N     N_R   0.926630 0.575970 0.212960 -0.034166
N8    N     N_R   0.926630 0.424030 0.212960 -0.034168
N9    N     N_R   0.591320 0.134600 0.004200 -0.048310
N10   N     N_R   0.591320 0.865400 0.004200 -0.048311
N11   N     N_R   0.091320 0.634600 0.004200 -0.048309
N12   N     N_R   0.408680 0.869840 0.995800 -0.041598
N13   N     N_R   0.091320 0.365400 0.004200 -0.048311
N14   N     N_R   0.578320 0.867660 0.846880 -0.033359
N15   N     N_R   0.578320 0.132340 0.846880 -0.033360
N16   N     N_R   0.078320 0.367660 0.846880 -0.033358
N17   N     N_R   0.078320 0.632340 0.846880 -0.033360
N18   N     N_R   0.573370 0.074390 0.787040 -0.032848
N19   N     N_R   0.573370 0.925610 0.787040 -0.032847
N20   N     N_R   0.073370 0.574390 0.787040 -0.032847
N21   N     N_R   0.073370 0.425610 0.787040 -0.032848
N22   N     N_R   0.596270 0.927870 0.064040 -0.040809
N23   N     N_R   0.908680 0.630160 0.995800 -0.041599
N24   N     N_R   0.596270 0.072130 0.064040 -0.040807
N25   N     N_R   0.096270 0.427870 0.064040 -0.040809
N26   N     N_R   0.096270 0.572130 0.064040 -0.040806
N27   N     N_R   0.908680 0.369840 0.995800 -0.041599
N28   N     N_R   0.421680 0.867580 0.153120 -0.036624
N29   N     N_R   0.421680 0.132420 0.153120 -0.036628
N30   N     N_R   0.921680 0.367580 0.153120 -0.036624
N31   N     N_R   0.921680 0.632420 0.153120 -0.036622
N32   N     N_R   0.403730 0.921770 0.935950 -0.038651
Ni1   Ni    Ni4+2 0.500000 0.131190 0.000000 0.204875
Ni2   Ni    Ni4+2 0.500000 0.868810 0.000000 0.204876
Ni3   Ni    Ni4+2 0.000000 0.631190 0.000000 0.204876
Ni4   Ni    Ni4+2 0.000000 0.368810 0.000000 0.204880
Ni5   Ni    Ni4+2 0.488650 0.000000 0.862740 0.205542
Ni6   Ni    Ni4+2 0.988650 0.500000 0.862740 0.205536
Ni7   Ni    Ni4+2 0.511350 1.000000 0.137260 0.207415
Ni8   Ni    Ni4+2 0.011350 0.500000 0.137260 0.207417

loop_
_geom_bond_atom_site_label_1
_geom_bond_atom_site_label_2
_ccdc_geom_bond_type
C6    C32   S    
N32   Ni5   S    
C85   H76   S    
C40   C71   A    
C49   H49   S    
C56   H81   S    
C8    C83   A    
N7    N31   A    
C23   C69   A    
N5    N29   A    
C13   H87   S    
C24   H24   S    
C57   C66   S    
C60   H60   S    
C8    C86   A    
C14   C33   S    
C55   C68   S    
C3    C49   S    
C65   C73   A    
C16   C31   S    
C12   C68   A    
N11   N26   A    
C20   H11   S    
C22   C44   S    
C64   H64   S    
N6    N28   A    
C46   H32   S    
C22   C29   S    
C57   H57   S    
C10   C15   S    
C36   H44   S    
C59   C66   A    
C47   H33   S    
C53   C70   S    
C61   C69   A    
C12   N12   A    
C23   N23   A    
N24   Ni7   S    
N8    N30   A    
C36   H14   S    
N1    Ni1   S    
C46   H28   S    
N16   Ni4   S    
C81   N15   A    
C48   H35   S    
C65   H65   S    
C86   N20   A    
C15   H4    S    
C64   N7    A    
N12   Ni2   S    
C7    C87   A    
C40   N28   A    
C44   H27   S    
C84   N18   A    
C22   H22   S    
C56   C88   A    
C25   H20   S    
C38   H16   S    
C18   H9    S    
C60   C70   A    
C21   H39   S    
C6    C81   A    
C25   C47   S    
C14   H5    S    
N23   Ni3   S    
C11   H67   S    
C20   C29   S    
C21   H13   S    
C16   H88   S    
C43   C74   A    
C34   H34   S    
C81   H72   S    
N31   Ni3   S    
C7    C33   S    
N29   Ni1   S    
C75   N9    A    
C86   H77   S    
C1    N1    A    
C76   N10   A    
N18   Ni5   S    
N22   Ni7   S    
C15   C35   S    
C19   H10   S    
C52   C54   D    
C1    C66   A    
C39   H48   S    
C2    C45   A    
C87   H79   S    
C55   H55   S    
C31   C44   S    
C17   H2    S    
C43   N31   A    
C41   N29   A    
C13   C30   S    
C6    C84   A    
C4    C79   A    
C42   H42   S    
C37   H15   S    
C30   C73   S    
C85   N19   A    
C80   H71   S    
C48   H30   S    
C29   C74   S    
C44   H31   S    
N13   N25   A    
C45   N22   A    
C38   H47   S    
C19   H37   S    
C4    C50   S    
C60   N3    A    
C8    C35   S    
C83   N17   A    
C35   C39   S    
C9    C14   S    
C26   H26   S    
N25   Ni8   S    
C20   H38   S    
C67   N25   A    
C25   H25   S    
N20   Ni6   S    
C11   C16   S    
C58   N32   A    
C34   N27   A    
C52   H52   S    
N17   N20   A    
C49   C55   D    
C7    C82   A    
C50   H50   S    
C67   H82   S    
C62   C72   A    
N5    Ni7   S    
C17   H8    S    
C10   H56   S    
C32   C37   S    
C5    C80   A    
C19   C28   S    
C26   H21   S    
C63   H63   S    
C35   C48   S    
C84   H75   S    
C2    C52   S    
N14   N19   A    
N15   Ni1   S    
C41   C72   A    
C59   H59   S    
C58   C68   A    
C54   H54   S    
C83   H74   S    
C63   C71   A    
N10   Ni2   S    
N26   Ni8   S    
N6    Ni7   S    
C77   N11   A    
N9    Ni1   S    
N27   Ni4   S    
C28   C71   S    
C87   N21   A    
C3    C77   A    
C79   H70   S    
C2    C76   A    
C9    C27   S    
C9    H45   S    
C80   N14   A    
N11   Ni3   S    
C10   C28   S    
N7    Ni8   S    
C39   H17   S    
C34   C70   A    
N12   N32   A    
C11   H86   S    
C1    H1    S    
C62   H62   S    
N2    Ni5   S    
C82   N16   A    
C31   C36   S    
C50   C57   D    
C32   C46   S    
C59   N2    A    
N10   N22   A    
C18   C27   S    
C78   N26   A    
N3    N27   A    
N13   Ni4   S    
C51   C88   S    
C4    C67   A    
C58   H58   S    
C82   H73   S    
C26   C48   S    
C25   C27   S    
C23   H23   S    
C21   C30   S    
C26   C28   S    
C33   C38   S    
C13   C17   S    
C24   C46   S    
C43   H43   S    
C24   H19   S    
N14   Ni2   S    
N15   N18   A    
C5    C85   A    
N4    N23   A    
C22   H18   S    
N16   N21   A    
C62   N5    A    
C41   H41   S    
C16   H7    S    
C75   H66   S    
C13   H78   S    
C54   C69   S    
C5    C31   S    
C10   H85   S    
C33   C47   S    
N3    Ni6   S    
N4    Ni6   S    
C78   H83   S    
C42   C73   A    
C76   H68   S    
C42   N30   A    
C53   H53   S    
N9    N24   A    
C18   C38   S    
C45   H80   S    
C24   C30   S    
C14   H3    S    
C12   H12   S    
N17   Ni3   S    
N8    Ni8   S    
N21   Ni6   S    
C20   C36   S    
N30   Ni4   S    
C75   C88   A    
C47   H29   S    
C15   H6    S    
C21   C37   S    
C11   C29   S    
C61   N4    A    
C19   C39   S    
N1    N2    A    
C79   N13   A    
N28   Ni2   S    
C63   N6    A    
C17   C32   S    
C64   C74   A    
C37   H46   S    
C77   H69   S    
C9    H84   S    
C18   H36   S    
C51   C53   D    
C3    C78   A    
C61   H61   S    
C27   C72   S    
N19   Ni5   S    
C51   H51   S    
C56   N24   A    
C65   N8    A    
C40   H40   S    
