data_mof_unit_1422.cif
_audit_creation_date              2013-03-05T16:10:41-0500
_audit_creation_method            fapswitch 2.2
_symmetry_space_group_name_H-M    P1
_symmetry_Int_Tables_number       1
_space_group_crystal_system       triclinic
_cell_length_a                    9.886142
_cell_length_b                    10.65032
_cell_length_c                    15.578034
_cell_angle_alpha                 90.891937
_cell_angle_beta                  66.342399
_cell_angle_gamma                 89.270578
_cell_volume                      1501.87116502

loop_
_atom_site_label
_atom_site_type_symbol
_atom_site_description
_atom_site_fract_x
_atom_site_fract_y
_atom_site_fract_z
_atom_type_partial_charge
O1    O     O_R   0.385370 0.683250 0.500010 -0.563764
O2    O     O_R   0.614630 0.316750 0.499990 -0.563801
O3    O     O_R   0.614700 0.683220 0.500000 -0.622596
O4    O     O_R   0.385300 0.316780 0.500000 -0.622529
C1    C     C_R   0.500392 0.739678 0.498330 0.961202
C2    C     C_R   0.499607 0.260322 0.501672 0.961302
O5    O     O_R   0.319830 0.500020 0.632250 -0.553738
O6    O     O_R   0.680170 0.499980 0.367750 -0.553746
O7    O     O_R   0.549160 0.499990 0.632240 -0.577737
O8    O     O_R   0.450840 0.500010 0.367760 -0.577731
C3    C     C_R   0.406460 0.500207 0.676374 0.976926
C4    C     C_R   0.593545 0.499793 0.323624 0.976859
Zn1   Zn    Zn3+2 0.346870 0.500020 0.500000 1.113375
Zn2   Zn    Zn3+2 0.653130 0.499980 0.500000 1.113340
C5    C     C_R   0.345701 0.486243 0.778346 -0.285474
C6    C     C_R   0.654331 0.513687 0.221642 -0.285494
C7    C     C_R   0.237477 0.335613 0.900840 0.331137
C8    C     C_R   0.762683 0.664174 0.099058 0.331150
C9    C     C_R   0.241247 0.392792 0.819675 0.187758
C10   C     C_R   0.758865 0.607071 0.180261 0.187706
C11   C     C_R   0.422426 0.541539 0.827864 0.246649
C12   C     C_R   0.577596 0.458361 0.172141 0.246668
C13   C     C_R   0.411470 0.489607 0.913592 -0.061897
C14   C     C_R   0.588548 0.510255 0.086404 -0.061945
C15   C     C_R   0.333485 0.376013 0.941834 -0.041440
C16   C     C_R   0.666588 0.623814 0.058121 -0.041470
C17   C     C_R   0.487496 0.538700 0.967179 0.118726
C18   C     C_R   0.512486 0.461163 0.032838 0.118745
C19   C     C_R   0.462959 0.336733 0.041332 -0.093085
C20   C     C_R   0.537012 0.663133 0.958692 -0.093088
C21   C     C_R   0.363770 0.299308 0.004133 -0.047956
C22   C     C_R   0.636263 0.700534 0.995847 -0.047901
H1    H     H_    0.320028 0.205754 0.019079 0.215215
H2    H     H_    0.680022 0.794082 0.980894 0.215200
H3    H     H_    0.499082 0.266431 0.077032 0.203229
H4    H     H_    0.500860 0.733444 0.923013 0.203232
C23   C     C_R   0.553911 0.934003 0.556831 -0.179986
C24   C     C_R   0.446079 0.065997 0.443177 -0.179962
H5    H     H_    0.594178 0.882112 0.601405 0.232420
H6    H     H_    0.405806 0.117887 0.398606 0.232439
C25   C     C_R   0.553496 0.062852 0.559943 0.435436
C26   C     C_R   0.446496 0.937148 0.440064 0.435361
C27   C     C_R   0.500177 0.127927 0.502110 -0.180118
C28   C     C_R   0.499818 0.872073 0.497895 -0.180172
C29   C     C_R   0.956293 0.402098 0.459567 0.370469
C30   C     C_R   0.043707 0.597903 0.540432 0.370442
C31   C     C_R   0.098985 0.402336 0.460736 -0.084354
C32   C     C_R   0.901014 0.597663 0.539265 -0.084373
H7    H     H_    0.175623 0.324951 0.428620 0.213035
H8    H     H_    0.824374 0.675047 0.571383 0.213025
N1    N     N_R   0.142780 0.500030 0.500020 -0.158496
N2    N     N_R   0.857220 0.499970 0.499980 -0.158494
N3    N     N_R   0.469162 0.365915 0.218594 0.194303
O9    O     O_R   0.329748 0.390170 0.240244 -0.353199
O10   O     O_R   0.507612 0.265023 0.249968 -0.389394
N4    N     N_R   0.530873 0.633986 0.781429 0.194302
O11   O     O_R   0.492444 0.734897 0.750065 -0.389345
O12   O     O_R   0.670283 0.609711 0.759781 -0.353162
N5    N     N_R   0.847309 0.655009 0.226705 0.249394
O13   O     O_R   0.827450 0.769890 0.259694 -0.296469
O14   O     O_R   0.948224 0.583655 0.235910 -0.292903
N6    N     N_R   0.152846 0.344862 0.773205 0.249449
O15   O     O_R   0.172997 0.230095 0.739980 -0.296682
O16   O     O_R   0.051769 0.416155 0.764123 -0.292874
Cl1   Cl    Cl    0.114780 0.210952 0.948614 -0.417134
Cl2   Cl    Cl    0.885571 0.788671 0.051140 -0.417142
Cl3   Cl    Cl    0.611926 0.138145 0.640576 -0.480046
Cl4   Cl    Cl    0.388064 0.861857 0.359430 -0.480091
N7    N     N_R   0.918818 0.299278 0.413783 0.234418
O17   O     O_R   0.950032 0.184872 0.428904 -0.310436
O18   O     O_R   0.885257 0.320039 0.342638 -0.293342
N8    N     N_R   0.081186 0.700728 0.586210 0.234423
O19   O     O_R   0.049958 0.815131 0.571091 -0.310415
O20   O     O_R   0.114765 0.679974 0.657348 -0.293354

loop_
_geom_bond_atom_site_label_1
_geom_bond_atom_site_label_2
_geom_bond_distance
_ccdc_geom_bond_type
C15   C21   1.396615 A    
C11   N4    1.438327 S    
C20   C22   1.383839 A    
O7    Zn2   1.897609 S    
C21   H1    1.082306 S    
N5    O13   1.301143 A    
C16   C22   1.396590 A    
N6    O15   1.301130 A    
C26   Cl4   1.765588 S    
C13   C17   1.426568 A    
C31   H7    1.081976 S    
C25   C27   1.400403 A    
C19   H3    1.078421 S    
C7    Cl1   1.770663 S    
C8    C16   1.407851 A    
C6    C10   1.408611 A    
C20   H4    1.078418 S    
O6    C4    1.295507 A    
C7    C15   1.407873 A    
O3    C1    1.282995 A    
C23   C28   1.395742 A    
C32   H8    1.081977 S    
C24   C27   1.395738 A    
C23   H5    1.083625 S    
N3    O9    1.302020 A    
C10   N5    1.433945 S    
C5    C9    1.408549 A    
C31   N1    1.359719 A    
O7    C3    1.297832 A    
C14   C16   1.421144 A    
O2    C2    1.284099 A    
O3    Zn2   1.983449 S    
C26   C28   1.400401 A    
O1    C1    1.284097 A    
O8    C4    1.297880 A    
C3    C5    1.466361 S    
N8    O20   1.299293 A    
C18   C19   1.408346 A    
C24   H6    1.083620 S    
C1    C28   1.410113 S    
N4    O12   1.302021 A    
C24   C26   1.372276 A    
C12   N3    1.438310 S    
C8    C10   1.399180 A    
C2    C27   1.410117 S    
N3    O10   1.301162 A    
C11   C13   1.417581 A    
C23   C25   1.372282 A    
N7    O17   1.301175 A    
O2    Zn2   1.992990 S    
C12   C14   1.417557 A    
C5    C11   1.408556 A    
N5    O14   1.300886 A    
O4    C2    1.282993 A    
O1    Zn1   1.992990 S    
C9    N6    1.433873 S    
C29   N7    1.429397 S    
C30   C32   1.418113 A    
C14   C18   1.426582 A    
C32   N2    1.359718 A    
C13   C15   1.421164 A    
N4    O11   1.301171 A    
C25   Cl3   1.765586 S    
C19   C21   1.383849 A    
C29   C31   1.418112 A    
O4    Zn1   1.983449 S    
N7    O18   1.299293 A    
C17   C20   1.408346 A    
C8    Cl2   1.770676 S    
O5    C3    1.295536 A    
N6    O16   1.300982 A    
O5    Zn1   1.968217 S    
O6    Zn2   1.968219 S    
C29   N2    1.378737 A    
C7    C9    1.399161 A    
Zn1   N1    2.017537 S    
C30   N8    1.429399 S    
C30   N1    1.378740 A    
Zn2   N2    2.017536 S    
C4    C6    1.466399 S    
C6    C12   1.408573 A    
N8    O19   1.301177 A    
C17   C18   1.418827 A    
O8    Zn1   1.897612 S    
C22   H2    1.082305 S    
