data_mof_unit_1324.cif
_audit_creation_date              2012-12-10T16:49:28-0500
_audit_creation_method            fapswitch 2.2
_symmetry_space_group_name_H-M    P1
_symmetry_Int_Tables_number       1
_space_group_crystal_system       triclinic
_cell_length_a                    19.255538
_cell_length_b                    8.715508
_cell_length_c                    7.507936
_cell_angle_alpha                 102.833016
_cell_angle_beta                  95.067762
_cell_angle_gamma                 93.644063
_cell_volume                      1219.22401223

loop_
_atom_site_label
_atom_site_type_symbol
_atom_type_description
_atom_site_fract_x
_atom_site_fract_y
_atom_site_fract_z
_atom_type_partial_charge
C1    C     C_R   0.497031 0.200308 0.454447 0.849395
C2    C     C_R   0.502969 0.799691 0.545553 0.849397
C3    C     C_2   0.485594 0.033890 0.434657 0.036523
C4    C     C_2   0.514407 0.966110 0.565342 0.036524
C5    C     C_R   0.367784 0.498124 0.500684 0.830215
C6    C     C_R   0.632215 0.501872 0.499316 0.830211
C7    C     C_R   0.263133 0.623202 0.613390 0.081911
C8    C     C_R   0.736858 0.376722 0.386656 0.081906
C9    C     C_R   0.189954 0.622631 0.614199 0.084273
C10   C     C_R   0.810036 0.377240 0.385879 0.084238
C11   C     C_R   0.146239 0.494228 0.504818 -0.082182
C12   C     C_R   0.853757 0.505616 0.495258 -0.082153
C13   C     C_R   0.175383 0.365392 0.397394 0.280234
C14   C     C_R   0.824622 0.634487 0.602640 0.280212
C15   C     C_R   0.247970 0.366129 0.395799 0.042795
C16   C     C_R   0.752035 0.633817 0.604187 0.042847
C17   C     C_R   0.291836 0.495883 0.502687 -0.107523
C18   C     C_R   0.708163 0.504077 0.497316 -0.107506
C19   C     C_R   0.929899 0.503663 0.497788 0.496719
C20   C     C_R   0.070097 0.496147 0.502286 0.496701
Cu1   Cu    Cu3+1 0.507710 0.517380 0.684380 1.121484
Cu2   Cu    Cu3+1 0.492290 0.482620 0.315620 1.121474
N1    N     N_R   0.029138 0.475456 0.340826 -0.165649
N2    N     N_R   0.970858 0.524354 0.659247 -0.165647
N3    N     N_R   0.960124 0.478703 0.338542 -0.160193
N4    N     N_R   0.039871 0.521106 0.661532 -0.160181
N5    N     N_2   0.480680 0.456420 0.038530 0.082517
N6    N     N_2   0.519320 0.543580 0.961470 0.082521
O1    O     O_R   0.505010 0.286130 0.619770 -0.545538
O2    O     O_R   0.494990 0.713870 0.380230 -0.545541
O3    O     O_R   0.491990 0.256780 0.308370 -0.530571
O4    O     O_R   0.508010 0.743220 0.691630 -0.530571
O5    O     O_R   0.406650 0.514660 0.655750 -0.538828
O6    O     O_R   0.593350 0.485340 0.344250 -0.538830
O7    O     O_R   0.393640 0.485310 0.344340 -0.578796
O8    O     O_R   0.606360 0.514690 0.655660 -0.578778
N7    N     N_3   0.308798 0.754072 0.720776 -0.537426
H1    H     H_    0.296419 0.856691 0.679223 0.239202
H2    H     H_    0.300729 0.767327 0.858991 0.265725
N8    N     N_3   0.691186 0.245876 0.279268 -0.537441
H3    H     H_    0.703547 0.143257 0.320827 0.239200
H4    H     H_    0.699267 0.232608 0.141062 0.265724
N9    N     N_3   0.159349 0.753595 0.721674 -0.520695
H5    H     H_    0.174454 0.855923 0.679117 0.249789
H6    H     H_    0.178204 0.767606 0.859693 0.254983
N10   N     N_3   0.840634 0.246257 0.278428 -0.520744
H7    H     H_    0.825506 0.143948 0.320963 0.249792
H8    H     H_    0.821798 0.232268 0.140416 0.254996
Br1   Br    Br    0.117345 0.181727 0.258276 -0.371063
Br2   Br    Br    0.882672 0.818114 0.741753 -0.371050
N11   N     N_3   0.276391 0.231156 0.289851 -0.504152
H9    H     H_    0.302501 0.265806 0.187230 0.274175
H10   H     H_    0.312222 0.188793 0.376284 0.235598
N12   N     N_3   0.723620 0.768861 0.710044 -0.504163
H11   H     H_    0.697483 0.734288 0.812678 0.274168
H12   H     H_    0.687813 0.811220 0.623542 0.235576
Br3   Br    Br    0.416649 0.928500 0.233164 -0.441304
Br4   Br    Br    0.583353 0.071499 0.766833 -0.441311
Br5   Br    Br    0.410976 0.303930 0.902451 -0.341594
Br6   Br    Br    0.589025 0.696067 0.097548 -0.341597

loop_
_geom_bond_atom_site_label_1
_geom_bond_atom_site_label_2
_ccdc_geom_bond_type
C10   N10   S    
C2    C4    S    
N9    H5    S    
C15   C17   A    
N7    H1    S    
C14   C16   A    
C15   N11   S    
N9    H6    S    
C8    N8    S    
C20   N1    A    
C1    O3    A    
C2    O2    A    
C6    O6    A    
C16   N12   S    
C1    O1    A    
C19   N2    A    
C7    N7    S    
N7    H2    S    
Cu1   O8    S    
N5    Br5   S    
Cu1   Cu2   S    
Cu2   O7    S    
C9    C11   A    
N2    N4    A    
C14   Br2   S    
N6    Br6   S    
C20   N4    A    
C13   Br1   S    
C5    O7    A    
C12   C19   S    
C16   C18   A    
N8    H3    S    
Cu1   O4    S    
Cu1   N6    S    
C6    O8    A    
C10   C12   A    
Cu2   N5    S    
N1    N3    A    
C13   C15   A    
Cu2   O6    S    
C6    C18   S    
N12   H12   S    
C11   C20   S    
C9    N9    S    
Cu1   O5    S    
Cu2   O3    S    
C19   N3    A    
N11   H9    S    
N10   H8    S    
C3    Br3   S    
C11   C13   A    
C5    C17   S    
N11   H10   S    
C2    O4    A    
C4    Br4   S    
N5    N6    D    
C7    C9    A    
N12   H11   S    
Cu2   O2    S    
C7    C17   A    
N10   H7    S    
Cu1   O1    S    
C8    C10   A    
C8    C18   A    
C3    C4    D    
C12   C14   A    
N8    H4    S    
C1    C3    S    
C5    O5    A    
