data_mof_unit_3728.cif
_audit_creation_date              2012-12-10T20:39:13-0500
_audit_creation_method            fapswitch 2.2
_symmetry_space_group_name_H-M    P1
_symmetry_Int_Tables_number       1
_space_group_crystal_system       triclinic
_cell_length_a                    19.096892
_cell_length_b                    10.624634
_cell_length_c                    9.856202
_cell_angle_alpha                 89.615231
_cell_angle_beta                  90.05779
_cell_angle_gamma                 90.316483
_cell_volume                      1999.72208344

loop_
_atom_site_label
_atom_site_type_symbol
_atom_type_description
_atom_site_fract_x
_atom_site_fract_y
_atom_site_fract_z
_atom_type_partial_charge
C1    C     C_R   0.506309 0.260068 0.499872 0.890667
C2    C     C_R   0.854033 0.568964 0.495305 0.089358
C3    C     C_R   0.533944 0.063224 0.618923 0.076938
C4    C     C_R   0.365338 0.503274 0.499928 0.867584
C5    C     C_R   0.526188 0.129885 0.497770 -0.198877
C6    C     C_R   0.537535 0.065406 0.373930 0.214254
C7    C     C_R   0.532483 0.934504 0.375039 -0.292591
C8    C     C_R   0.520332 0.871079 0.498127 -0.138840
C9    C     C_R   0.530480 0.934941 0.619070 0.080184
C10   C     C_3   0.494263 0.927099 0.753244 -0.467804
C11   C     C_3   0.499026 0.070274 0.754864 0.031372
C12   C     C_R   0.289971 0.523208 0.499026 -0.023759
C13   C     C_R   0.439675 0.477254 0.071526 0.178003
C14   C     C_R   0.558322 0.532744 0.071775 -0.138980
C15   C     C_R   0.558388 0.532389 0.927882 -0.149133
C16   C     C_R   0.503517 0.740360 0.499502 0.903341
C17   C     C_R   0.439268 0.479481 0.928787 0.148066
C18   C     C_3   0.394280 0.364290 0.923616 -0.004967
C19   C     C_3   0.396399 0.360169 0.077956 -0.556071
C20   C     C_R   0.634746 0.501870 0.499948 0.839357
C21   C     C_R   0.256513 0.568751 0.615124 -0.183538
C22   C     C_R   0.185327 0.594192 0.612212 -0.179089
C23   C     C_R   0.929853 0.587588 0.493365 0.287525
C24   C     C_R   0.147003 0.575768 0.492502 0.090420
C25   C     C_R   0.180936 0.532992 0.375526 -0.162929
C26   C     C_R   0.251904 0.506724 0.378960 -0.202574
C27   C     C_3   0.618994 0.094117 0.856915 -0.748135
C28   C     C_3   0.281279 0.282982 0.846471 -0.768351
C29   C     C_3   0.616876 0.188042 0.234995 -0.724304
C30   C     C_R   0.071168 0.591721 0.491819 0.287874
C31   C     C_R   0.817946 0.563919 0.619157 -0.164870
C32   C     C_R   0.746629 0.538215 0.621145 -0.197247
C33   C     C_R   0.710534 0.517732 0.499290 -0.026615
C34   C     C_R   0.746624 0.522065 0.375599 -0.203289
C35   C     C_R   0.817834 0.547786 0.373584 -0.162567
H1    H     H_    0.285516 0.587194 0.707248 0.157690
H2    H     H_    0.426165 0.278574 0.118758 0.211179
H3    H     H_    0.152573 0.517400 0.281886 0.149152
H4    H     H_    0.276849 0.473767 0.287626 0.143711
H5    H     H_    0.719732 0.536124 0.717827 0.145378
H6    H     H_    0.719828 0.506873 0.280135 0.146783
H7    H     H_    0.844438 0.550222 0.276621 0.148450
H8    H     H_    0.439556 0.891671 0.744181 0.173772
H9    H     H_    0.534211 0.211804 0.885515 0.232258
H10   H     H_    0.643949 0.124049 0.953005 0.226182
H11   H     H_    0.643564 0.148031 0.772340 0.237884
H12   H     H_    0.534191 0.884180 0.279833 0.171936
H13   H     H_    0.629226 0.992245 0.844097 0.242229
H14   H     H_    0.299458 0.464868 0.916737 0.222022
H15   H     H_    0.231699 0.313069 0.797380 0.243727
H16   H     H_    0.268817 0.235241 0.944214 0.237589
H17   H     H_    0.307981 0.216112 0.777746 0.237018
H18   H     H_    0.844719 0.578993 0.714624 0.148336
H19   H     H_    0.534088 0.080212 0.163355 0.228097
H20   H     H_    0.657297 0.114503 0.220639 0.218753
H21   H     H_    0.630343 0.244318 0.326034 0.243035
H22   H     H_    0.616976 0.252491 0.145902 0.229865
H23   H     H_    0.526038 0.878350 0.831878 0.211699
H24   H     H_    0.446685 0.115126 0.751339 0.112313
H25   H     H_    0.605710 0.557486 0.125642 0.145027
H26   H     H_    0.605835 0.556736 0.873852 0.148464
H27   H     H_    0.420180 0.284553 0.873191 0.152881
H28   H     H_    0.344954 0.375399 0.127050 0.196425
H29   H     H_    0.160415 0.627993 0.703549 0.148576
N1    N     N_R   0.034877 0.582933 0.374054 -0.180680
N2    N     N_R   0.965454 0.581021 0.374809 -0.180666
N3    N     N_R   0.966106 0.600466 0.610831 -0.179895
N4    N     N_R   0.035600 0.602506 0.610077 -0.178813
N5    N     N_R   0.499530 0.499140 0.142800 -0.092011
N6    N     N_R   0.499530 0.499180 0.857150 -0.119951
N7    N     N_2   0.544348 0.119315 0.862139 -0.289137
N8    N     N_2   0.325211 0.391839 0.869921 -0.272684
N9    N     N_2   0.548426 0.130136 0.248511 -0.283330
O1    O     O_R   0.500010 0.316790 0.614690 -0.627254
O2    O     O_R   0.500000 0.316760 0.385350 -0.576111
O3    O     O_R   0.398140 0.500000 0.614710 -0.600359
O4    O     O_R   0.398130 0.499970 0.385370 -0.617566
O5    O     O_R   0.500000 0.683240 0.614650 -0.614598
O6    O     O_R   0.499990 0.683210 0.385310 -0.619024
O7    O     O_R   0.601870 0.500030 0.614630 -0.626968
O8    O     O_R   0.601860 0.500000 0.385290 -0.632240
Zn1   Zn    Zn3+2 0.500000 0.500020 0.653130 0.940636
Zn2   Zn    Zn3+2 0.500000 0.499980 0.346870 0.949807

loop_
_geom_bond_atom_site_label_1
_geom_bond_atom_site_label_2
_ccdc_geom_bond_type
C27   H13   S    
C2    C35   A    
C7    C8    A    
C21   H1    S    
C3    C9    A    
C1    O1    A    
C23   N2    A    
C10   H23   S    
C18   C19   S    
C5    C6    A    
C28   H16   S    
C11   N7    S    
C26   H4    S    
C29   N9    S    
O4    Zn2   S    
H9    N7    S    
C34   C35   A    
C23   N3    A    
C35   H7    S    
C19   H2    S    
C28   H15   S    
C19   H28   S    
C8    C9    A    
H14   N8    S    
C4    C12   S    
C9    C10   S    
C27   H10   S    
C22   C24   A    
C17   N6    A    
C8    C16   S    
C21   C22   A    
C28   N8    S    
C34   H6    S    
O1    Zn1   S    
C11   H24   S    
O8    Zn2   S    
C33   C34   A    
C18   N8    S    
C20   O7    A    
N3    N4    A    
C1    O2    A    
C24   C25   A    
O7    Zn1   S    
O3    Zn1   S    
C13   C19   S    
C18   H27   S    
C29   H20   S    
C25   C26   A    
C12   C21   A    
C12   C26   A    
C2    C31   A    
C7    H12   S    
N5    Zn2   S    
C25   H3    S    
H19   N9    S    
O5    Zn1   S    
C31   C32   A    
C17   C18   S    
C15   H26   S    
C31   H18   S    
C20   C33   S    
C27   H11   S    
C29   H22   S    
C14   N5    A    
C1    C5    S    
C27   N7    S    
C6    N9    S    
C15   N6    A    
C10   H8    S    
C3    C5    A    
C6    C7    A    
C29   H21   S    
C14   H25   S    
C13   C17   A    
C16   O6    A    
C32   C33   A    
C4    O4    A    
O6    Zn2   S    
C28   H17   S    
O2    Zn2   S    
C13   N5    A    
C16   O5    A    
C32   H5    S    
N6    Zn1   S    
C24   C30   S    
C4    O3    A    
C30   N1    A    
C3    C11   S    
C10   C11   S    
C22   H29   S    
N1    N2    A    
C2    C23   S    
C14   C15   A    
C20   O8    A    
C30   N4    A    
