data_mof_unit_1209.cif
_audit_creation_date              2013-03-05T16:47:41-0500
_audit_creation_method            fapswitch 2.2
_symmetry_space_group_name_H-M    P1
_symmetry_Int_Tables_number       1
_space_group_crystal_system       triclinic
_cell_length_a                    8.923329
_cell_length_b                    8.126575
_cell_length_c                    10.598981
_cell_angle_alpha                 89.833411
_cell_angle_beta                  89.752135
_cell_angle_gamma                 89.78745
_cell_volume                      768.581097503

loop_
_atom_site_label
_atom_site_type_symbol
_atom_site_description
_atom_site_fract_x
_atom_site_fract_y
_atom_site_fract_z
_atom_type_partial_charge
O1    O     O_R   0.285350 0.636850 0.500000 -0.605734
O2    O     O_R   0.714650 0.363150 0.500000 -0.605811
O3    O     O_R   0.714650 0.636850 0.500000 -0.623897
O4    O     O_R   0.285350 0.363150 0.500000 -0.623937
C1    C     C_R   0.218101 0.500184 0.499221 0.973221
C2    C     C_R   0.781899 0.499816 0.500785 0.973281
O5    O     O_R   0.499970 0.636850 0.313950 -0.627405
O6    O     O_R   0.500030 0.363150 0.686050 -0.627455
O7    O     O_R   0.500030 0.636850 0.686050 -0.613720
O8    O     O_R   0.499970 0.363150 0.313950 -0.613814
C3    C     C_R   0.498568 0.500427 0.257255 0.983391
C4    C     C_R   0.501424 0.499573 0.742745 0.983340
Zn1   Zn    Zn3+2 0.500000 0.682780 0.500000 1.017353
Zn2   Zn    Zn3+2 0.500000 0.317220 0.500000 1.017270
C5    C     C_3   0.464533 0.652294 0.039971 0.070308
C6    C     C_3   0.535452 0.347706 0.960030 0.070215
C7    C     C_3   0.602174 0.608504 0.957510 0.010935
C8    C     C_3   0.397810 0.391497 0.042489 0.010854
C9    C     C_3   0.365283 0.541663 0.958627 0.303432
C10   C     C_3   0.634701 0.458339 0.041373 0.303425
C11   C     C_3   0.501243 0.498506 0.876396 -0.215324
C12   C     C_3   0.498742 0.501496 0.123604 -0.215333
C13   C     C_1   0.065230 0.500260 0.499685 -0.113835
C14   C     C_1   0.934770 0.499740 0.500326 -0.113797
N1    N     N_1   0.500000 0.073640 0.500000 -0.032193
N2    N     N_1   0.500000 0.926360 0.500000 -0.032183
N3    N     N_R   0.216102 0.588192 0.915105 0.226811
O9    O     O_R   0.114049 0.631272 0.996594 -0.352480
O10   O     O_R   0.183960 0.587647 0.795625 -0.417626
N4    N     N_R   0.783887 0.411839 0.084900 0.226846
O11   O     O_R   0.885890 0.368551 0.003426 -0.352611
O12   O     O_R   0.816192 0.412992 0.204368 -0.417617
C15   C     C_3   0.419295 0.823534 0.084030 -0.781991
H1    H     H_    0.389490 0.900184 0.001154 0.241212
H2    H     H_    0.320400 0.815239 0.147527 0.262198
H3    H     H_    0.513481 0.881000 0.135511 0.242799
C16   C     C_3   0.580685 0.176464 0.915971 -0.781988
H4    H     H_    0.610487 0.099811 0.998846 0.241186
H5    H     H_    0.486499 0.119004 0.864490 0.242813
H6    H     H_    0.679581 0.184754 0.852475 0.262216
C17   C     C_3   0.719432 0.729164 0.909280 -0.710492
H7    H     H_    0.776547 0.787487 0.990396 0.262277
H8    H     H_    0.803380 0.663008 0.850602 0.269048
H9    H     H_    0.664645 0.825987 0.851478 0.231996
C18   C     C_3   0.280555 0.270835 0.090723 -0.710529
H10   H     H_    0.223438 0.212511 0.009608 0.262256
H11   H     H_    0.335346 0.174012 0.148523 0.232000
H12   H     H_    0.196608 0.336988 0.149403 0.269087

loop_
_geom_bond_atom_site_label_1
_geom_bond_atom_site_label_2
_geom_bond_distance
_ccdc_geom_bond_type
O5    C3    1.262695 A    
C13   C14   1.164144 T    
C6    C11   1.540791 S    
N3    O10   1.299665 A    
C9    N3    1.458904 S    
C17   H7    1.109733 S    
C3    C12   1.416567 S    
O3    Zn1   1.950062 S    
C6    C10   1.533950 S    
C6    C16   1.521692 S    
O6    C4    1.262694 A    
O3    C2    1.263065 A    
C2    C14   1.364110 S    
C17   H9    1.109228 S    
C7    C10   1.535188 S    
C8    C12   1.538358 S    
C15   H1    1.108121 S    
C16   H5    1.109282 S    
C10   N4    1.458900 S    
C18   H10   1.109734 S    
N4    O12   1.299923 A    
C17   H8    1.109907 S    
O2    C2    1.264400 A    
O1    C1    1.264400 A    
C15   H2    1.109631 S    
C16   H4    1.108121 S    
C10   C12   1.531002 S    
C16   H6    1.109621 S    
C18   H11   1.109230 S    
Zn2   N1    1.979471 S    
O4    Zn2   1.950062 S    
N4    O11   1.300193 A    
O2    Zn2   1.952781 S    
O7    C4    1.265638 A    
C7    C17   1.522394 S    
Zn1   N2    1.979471 S    
O1    Zn1   1.952781 S    
O8    C3    1.265640 A    
C8    C18   1.522397 S    
O5    Zn1   2.008022 S    
C15   H3    1.109292 S    
C6    C8    1.545412 S    
C8    C9    1.535196 S    
O8    Zn2   2.005889 S    
C18   H12   1.109909 S    
N3    O9    1.300165 A    
C5    C7    1.545412 S    
O7    Zn1   2.005889 S    
O6    Zn2   2.008022 S    
C9    C11   1.531004 S    
N1    N2    1.196881 T    
C5    C9    1.533949 S    
C4    C11   1.416566 S    
C5    C15   1.521691 S    
C5    C12   1.540771 S    
C7    C11   1.538342 S    
O4    C1    1.263065 A    
C1    C13   1.364108 S    
