data_mof_unit_497.cif
_audit_creation_date              2012-12-10T17:46:15-0500
_audit_creation_method            fapswitch 2.2
_symmetry_space_group_name_H-M    P1
_symmetry_Int_Tables_number       1
_space_group_crystal_system       triclinic
_cell_length_a                    14.144856
_cell_length_b                    10.638454
_cell_length_c                    9.933555
_cell_angle_alpha                 90.108451
_cell_angle_beta                  89.993726
_cell_angle_gamma                 91.695546
_cell_volume                      1494.13824012

loop_
_atom_site_label
_atom_site_type_symbol
_atom_type_description
_atom_site_fract_x
_atom_site_fract_y
_atom_site_fract_z
_atom_type_partial_charge
C1    C     C_R   0.501348 0.260763 0.499928 0.854620
C2    C     C_R   0.427866 0.062618 0.449291 -0.243529
C3    C     C_R   0.426242 0.933835 0.450207 0.153804
C4    C     C_R   0.329307 0.499608 0.500138 0.895317
C5    C     C_R   0.504725 0.872002 0.500181 -0.160550
C6    C     C_R   0.373334 0.338099 0.138922 -0.198712
C7    C     C_R   0.308104 0.260661 0.068824 0.035198
C8    C     C_R   0.310171 0.260824 0.928650 -0.241635
C9    C     C_R   0.374556 0.337724 0.859677 -0.160165
C10   C     C_R   0.438250 0.419820 0.927550 0.168848
C11   C     C_R   0.438013 0.419892 0.071845 0.157187
C12   C     C_1   0.772204 0.500301 0.500028 -0.212745
C13   C     C_R   0.559257 0.576699 0.071580 -0.094603
C14   C     C_R   0.559198 0.576718 0.928611 -0.105973
C15   C     C_R   0.500793 0.739409 0.500071 0.909915
C16   C     C_R   0.670704 0.500465 0.499966 0.857253
C17   C     C_1   0.227834 0.500104 0.500652 -0.188662
C18   C     C_1   0.142565 0.500264 0.500831 -0.006737
C19   C     C_1   0.042670 0.500141 0.500641 0.003927
C20   C     C_1   0.957393 0.500072 0.500423 0.001606
C21   C     C_1   0.857480 0.500146 0.500191 -0.015047
C22   C     C_R   0.235666 0.182576 0.141740 0.122211
C23   C     C_R   0.667733 0.136949 0.595702 -0.157568
C24   C     C_R   0.190413 0.230285 0.256377 -0.180863
C25   C     C_R   0.119810 0.159244 0.322223 -0.125836
C26   C     C_R   0.092895 0.040204 0.273820 -0.081802
C27   C     C_R   0.136974 0.991737 0.159945 -0.098014
C28   C     C_R   0.208374 0.061921 0.094612 -0.128172
C29   C     C_R   0.746541 0.074040 0.641659 -0.137619
C30   C     C_R   0.746188 0.943229 0.641207 -0.137333
C31   C     C_R   0.666993 0.874914 0.594928 -0.171418
C32   C     C_R   0.586076 0.937301 0.548907 0.061729
C33   C     C_R   0.586638 0.069029 0.549131 0.102529
C34   C     C_R   0.506260 0.128775 0.499670 -0.124551
H1    H     H_    0.366972 0.111545 0.411988 0.162183
H2    H     H_    0.371943 0.331365 0.245615 0.194428
H3    H     H_    0.208133 0.323648 0.293112 0.135695
H4    H     H_    0.085324 0.197098 0.410071 0.135687
H5    H     H_    0.037987 0.985440 0.324611 0.132372
H6    H     H_    0.116381 0.899179 0.122899 0.143034
H7    H     H_    0.242461 0.021547 0.007769 0.134828
H8    H     H_    0.260380 0.202961 0.871254 0.148948
H9    H     H_    0.371254 0.330786 0.752984 0.205448
H10   H     H_    0.607502 0.639581 0.875129 0.145648
H11   H     H_    0.671367 0.238564 0.595869 0.140500
H12   H     H_    0.808265 0.126963 0.676883 0.139095
H13   H     H_    0.807645 0.894504 0.676095 0.138078
H14   H     H_    0.670257 0.773495 0.594566 0.130864
H15   H     H_    0.607621 0.639511 0.125225 0.146120
I1    I     I_    0.301038 0.838624 0.381589 -0.390484
N1    N     N_R   0.499190 0.498800 0.142780 -0.107751
N2    N     N_R   0.499160 0.498720 0.857170 -0.112485
O1    O     O_R   0.500000 0.316780 0.614690 -0.631998
O2    O     O_R   0.499990 0.316750 0.385360 -0.623722
O3    O     O_R   0.373720 0.500010 0.614690 -0.610699
O4    O     O_R   0.373710 0.499990 0.385360 -0.605063
O5    O     O_R   0.500010 0.683250 0.614640 -0.606109
O6    O     O_R   0.500000 0.683220 0.385310 -0.586988
O7    O     O_R   0.626290 0.500010 0.614640 -0.606357
O8    O     O_R   0.626280 0.499990 0.385310 -0.591504
Zn1   Zn    Zn3+2 0.500010 0.500020 0.653130 0.936239
Zn2   Zn    Zn3+2 0.499990 0.499980 0.346870 0.951383

loop_
_geom_bond_atom_site_label_1
_geom_bond_atom_site_label_2
_ccdc_geom_bond_type
C2    H1    S    
O6    Zn2   S    
C1    O2    A    
O5    Zn1   S    
C6    C7    A    
C23   H11   S    
C25   H4    S    
C7    C22   S    
C9    C10   A    
C30   H13   S    
C31   C32   A    
C17   C18   T    
C29   H12   S    
N2    Zn1   S    
O4    Zn2   S    
C10   N2    A    
C32   C33   A    
C2    C34   A    
C19   C20   T    
C33   C34   A    
C7    C8    A    
C22   C28   A    
C13   C14   A    
C4    O4    A    
C15   O5    A    
C26   C27   A    
C29   C30   A    
N1    Zn2   S    
C13   H15   S    
C4    C17   S    
C23   C29   A    
O8    Zn2   S    
C3    I1    S    
C8    H8    S    
C1    C34   S    
C24   H3    S    
C2    C3    A    
C31   H14   S    
C4    O3    A    
C30   C31   A    
C15   O6    A    
C22   C24   A    
C26   H5    S    
C9    H9    S    
C5    C15   S    
C10   C11   A    
C20   C21   S    
O3    Zn1   S    
C28   H7    S    
C27   C28   A    
C11   N1    A    
C24   C25   A    
C14   H10   S    
C18   C19   S    
C16   O8    A    
O7    Zn1   S    
C6    C11   A    
C1    O1    A    
O2    Zn2   S    
C27   H6    S    
C23   C33   A    
C25   C26   A    
C13   N1    A    
O1    Zn1   S    
C12   C21   T    
C5    C32   A    
C14   N2    A    
C12   C16   S    
C6    H2    S    
C8    C9    A    
C3    C5    A    
C16   O7    A    
