data_mof_unit_1329.cif
_audit_creation_date              2012-12-11T15:44:56-0500
_audit_creation_method            fapswitch 2.2
_symmetry_space_group_name_H-M    P1
_symmetry_Int_Tables_number       1
_space_group_crystal_system       triclinic
_cell_length_a                    6.923828
_cell_length_b                    16.83775
_cell_length_c                    17.034671
_cell_angle_alpha                 100.29067
_cell_angle_beta                  90.829965
_cell_angle_gamma                 89.061709
_cell_volume                      1953.58836035

loop_
_atom_site_label
_atom_site_type_symbol
_atom_type_description
_atom_site_fract_x
_atom_site_fract_y
_atom_site_fract_z
_atom_type_partial_charge
O1    O     O_R   0.494370 0.415690 0.413450 -0.542208
O2    O     O_R   0.819420 0.429360 0.578420 -0.552055
O3    O     O_R   0.994280 0.584310 0.586550 -0.542232
C1    C     C_R   0.654180 0.413107 0.604946 0.688552
O4    O     O_R   0.823790 0.406230 0.413570 -0.515212
O5    O     O_R   0.998670 0.561000 0.420530 -0.536469
C2    C     C_R   0.655226 0.381823 0.385929 0.714704
O6    O     O_R   0.489970 0.439000 0.579470 -0.537234
O7    O     O_3   0.662300 0.550810 0.502470 -0.369704
V1    V     V_3+5 0.935380 0.490570 0.499540 1.422317
O8    O     O_R   0.328650 0.570640 0.421580 -0.539824
C3    C     C_R   0.156813 0.586758 0.395254 0.707087
O9    O     O_R   0.324290 0.593770 0.586430 -0.545594
C4    C     C_R   0.154868 0.616727 0.615050 0.704460
V2    V     V_3+5 0.435930 0.509430 0.500460 1.405849
O10   O     O_3   0.159140 0.449190 0.497530 -0.369523
C5    C     C_R   0.307601 0.730721 0.708876 -0.230049
H1    H     H_    0.444728 0.715379 0.679797 0.132077
C6    C     C_R   0.298075 0.797442 0.771125 0.435915
C7    C     C_R   0.123090 0.816816 0.813552 -0.149635
C8    C     C_R   0.958912 0.770786 0.787656 -0.224285
H2    H     H_    0.822665 0.783844 0.817907 0.189625
C9    C     C_R   0.968177 0.706688 0.722884 -0.163130
H3    H     H_    0.838257 0.672951 0.704801 0.136951
C10   C     C_R   0.143221 0.685507 0.683091 -0.104572
C11   C     C_R   0.132169 0.639247 0.334058 -0.089994
C12   C     C_R   0.131221 0.863538 0.168253 -0.126602
C13   C     C_R   0.327047 0.827613 0.278432 0.397950
C14   C     C_R   0.289069 0.877262 0.221580 -0.252387
C15   C     C_R   0.009347 0.798727 0.172324 -0.227164
C16   C     C_R   0.050354 0.746056 0.226370 0.101006
C17   C     C_R   0.212138 0.759421 0.278989 0.062562
C18   C     C_R   0.252791 0.705240 0.332050 -0.209406
C19   C     C_R   0.972305 0.627310 0.281457 -0.149409
C20   C     C_R   0.932414 0.679681 0.228144 -0.132626
H4    H     H_    0.373837 0.715584 0.373458 0.157051
H5    H     H_    0.876272 0.577241 0.281932 0.123293
H6    H     H_    0.807949 0.668519 0.188621 0.118160
H7    H     H_    0.384092 0.927107 0.219095 0.133230
H8    H     H_    0.887534 0.787372 0.131356 0.133735
C21   C     C_R   0.664190 0.359740 0.665892 -0.064529
C22   C     C_R   0.601760 0.137804 0.831911 -0.074374
C23   C     C_R   0.405646 0.191318 0.731841 -0.197261
C24   C     C_R   0.432108 0.137425 0.784789 -0.167089
C25   C     C_R   0.748022 0.192082 0.822881 -0.240506
C26   C     C_R   0.720914 0.247503 0.770332 0.158486
C27   C     C_R   0.547578 0.247724 0.724902 0.162848
C28   C     C_R   0.519537 0.304047 0.673226 -0.245152
C29   C     C_R   0.835013 0.358963 0.712083 -0.162170
C30   C     C_R   0.863035 0.303756 0.763466 -0.203949
H9    H     H_    0.388741 0.302914 0.637279 0.124678
H10   H     H_    0.949744 0.400898 0.707750 0.129406
H11   H     H_    0.272507 0.189730 0.697375 0.122572
H12   H     H_    0.996699 0.304869 0.797533 0.125003
H13   H     H_    0.316992 0.095891 0.789824 0.119908
H14   H     H_    0.878697 0.193493 0.858918 0.123454
C31   C     C_R   0.808396 0.260915 0.295897 0.434518
C32   C     C_R   0.795711 0.199065 0.228454 -0.240570
H15   H     H_    0.924236 0.163627 0.209563 0.126409
C33   C     C_R   0.620611 0.182700 0.186199 -0.101748
C34   C     C_R   0.457124 0.229968 0.212232 -0.159442
H16   H     H_    0.319556 0.218795 0.181492 0.141732
C35   C     C_R   0.469885 0.293735 0.277089 -0.218995
H17   H     H_    0.341789 0.330252 0.293701 0.181957
C36   C     C_R   0.645417 0.311303 0.318962 -0.142075
O11   O     O_R   0.774880 0.061150 0.920630 -0.538017
O12   O     O_R   0.440980 0.093710 0.086500 -0.546576
O13   O     O_R   0.266190 0.938890 0.079390 -0.539804
C37   C     C_R   0.609683 0.116139 0.115879 0.703778
O14   O     O_R   0.445420 0.070740 0.921670 -0.545581
O15   O     O_R   0.270660 0.915760 0.913380 -0.515533
C38   C     C_R   0.610768 0.086837 0.894977 0.683583
O16   O     O_R   0.770400 0.084270 0.086640 -0.542452
O17   O     O_3   0.602590 0.949210 0.997500 -0.356643
V3    V     V_3+5 0.329470 0.009420 0.000470 1.422063
O18   O     O_R   0.940650 0.906250 0.913470 -0.540667
C39   C     C_R   0.110214 0.884062 0.883835 0.708052
O19   O     O_R   0.936210 0.929220 0.078300 -0.541283
C40   C     C_R   0.107777 0.913908 0.105268 0.721048
V4    V     V_3+5 0.828930 0.990510 0.999490 1.421851
O20   O     O_3   0.105680 0.050790 0.002500 -0.375161
O21   O     O_3   0.984957 0.276654 0.334477 -0.573471
C41   C     C_3   0.037127 0.214590 0.377423 0.040822
H18   H     H_    0.196995 0.207913 0.375673 0.148490
H19   H     H_    0.978437 0.154205 0.351169 0.096516
C42   C     C_3   0.976074 0.238200 0.464726 -0.275750
H20   H     H_    0.034456 0.298442 0.490175 0.226969
H21   H     H_    0.815905 0.241864 0.467939 0.167150
C43   C     C_3   0.051005 0.177520 0.515053 -0.875522
H22   H     H_    0.998802 0.115995 0.490345 0.238872
H23   H     H_    0.998310 0.195190 0.577096 0.241495
H24   H     H_    0.211479 0.176687 0.516571 0.230548
O22   O     O_3   0.465318 0.840145 0.792285 -0.577803
C44   C     C_3   0.472091 0.906647 0.751969 0.113265
H25   H     H_    0.562123 0.952808 0.789151 0.140423
H26   H     H_    0.327598 0.935414 0.745588 0.077504
C45   C     C_3   0.569028 0.883525 0.670512 -0.355064
H27   H     H_    0.707722 0.851214 0.677471 0.211372
H28   H     H_    0.473758 0.842973 0.628876 0.184398
C46   C     C_3   0.608978 0.958169 0.634223 -0.835492
H29   H     H_    0.471790 0.990787 0.625434 0.232800
H30   H     H_    0.679032 0.939624 0.575439 0.231629
H31   H     H_    0.707246 0.999477 0.673729 0.236809
O23   O     O_3   0.482390 0.843401 0.330915 -0.575637
C47   C     C_3   0.451210 0.916911 0.384895 0.071754
H32   H     H_    0.460447 0.903762 0.446485 0.136545
H33   H     H_    0.305766 0.945442 0.379294 0.103073
C48   C     C_3   0.609212 0.976939 0.375288 -0.289935
H34   H     H_    0.751138 0.953595 0.393298 0.193985
H35   H     H_    0.618171 0.983837 0.311837 0.188289
C49   C     C_3   0.568589 0.059702 0.425955 -0.868404
H36   H     H_    0.427725 0.084267 0.408424 0.229360
H37   H     H_    0.683176 0.102037 0.416323 0.235461
H38   H     H_    0.566248 0.055457 0.490250 0.242572

loop_
_geom_bond_atom_site_label_1
_geom_bond_atom_site_label_2
_ccdc_geom_bond_type
C35   C36   A    
O22   C44   S    
C12   C14   A    
C19   H5    S    
C6    C7    A    
C1    O6    A    
C45   H27   S    
C25   C26   A    
O13   V3    S    
C47   H33   S    
C30   H12   S    
C7    C39   S    
C41   H18   S    
C13   C14   A    
C12   C40   S    
O5    C3    A    
C15   C16   A    
C42   H21   S    
C1    C21   S    
C32   C33   A    
V2    O10   S    
C18   H4    S    
C48   H34   S    
C19   C20   A    
C21   C29   A    
C34   C35   A    
O8    V2    S    
C11   C19   A    
C28   H9    S    
O11   C38   A    
C27   C28   A    
C25   H14   S    
C9    H3    S    
C37   O16   A    
O1    V2    S    
C43   H23   S    
O7    V1    S    
C6    O22   S    
O13   C40   A    
O17   V4    S    
O9    C4    A    
C12   C15   A    
C34   H16   S    
C22   C24   A    
C22   C38   S    
O23   C47   S    
C45   H28   S    
C23   H11   S    
C47   C48   S    
O17   V3    S    
C13   C17   A    
C20   H6    S    
O18   C39   A    
O4    C2    A    
C42   H20   S    
V3    O20   S    
C44   C45   S    
C32   H15   S    
C46   H31   S    
C3    C11   S    
C33   C34   A    
O12   C37   A    
C22   C25   A    
O2    C1    A    
C23   C24   A    
C2    C36   S    
C13   O23   S    
C11   C18   A    
C16   C17   A    
C29   H10   S    
C14   H7    S    
C46   H30   S    
C5    H1    S    
C15   H8    S    
C49   H37   S    
C43   H24   S    
C44   H26   S    
O3    C4    A    
C41   H19   S    
C29   C30   A    
O6    V2    S    
C8    C9    A    
C21   C28   A    
C16   C20   A    
O12   V3    S    
O2    V1    S    
O15   C39   A    
C45   C46   S    
C26   C27   A    
C49   H36   S    
O1    C2    A    
O18   V4    S    
C31   C36   A    
V4    O20   S    
C42   C43   S    
O5    V1    S    
O8    C3    A    
O11   V4    S    
C47   H32   S    
C26   C30   A    
C48   C49   S    
C5    C10   A    
C17   C18   A    
O9    V2    S    
O7    V2    S    
O4    V1    S    
O3    V1    S    
V1    O10   S    
O15   V3    S    
O19   C40   A    
C24   H13   S    
C31   C32   A    
C33   C37   S    
C46   H29   S    
C5    C6    A    
O16   V4    S    
C48   H35   S    
C49   H38   S    
O19   V4    S    
C9    C10   A    
C4    C10   S    
C44   H25   S    
C35   H17   S    
C41   C42   S    
C7    C8    A    
O21   C41   S    
O14   V3    S    
C31   O21   S    
O14   C38   A    
C43   H22   S    
C8    H2    S    
C23   C27   A    
