data_mof_unit_4413.cif
_audit_creation_date              2012-12-11T16:52:22-0500
_audit_creation_method            fapswitch 2.2
_symmetry_space_group_name_H-M    P1
_symmetry_Int_Tables_number       1
_space_group_crystal_system       triclinic
_cell_length_a                    7.202773
_cell_length_b                    26.080425
_cell_length_c                    28.776965
_cell_angle_alpha                 90.0
_cell_angle_beta                  90.000021
_cell_angle_gamma                 90.000011
_cell_volume                      5405.79261677

loop_
_atom_site_label
_atom_site_type_symbol
_atom_type_description
_atom_site_fract_x
_atom_site_fract_y
_atom_site_fract_z
_atom_type_partial_charge
O1    O     O_R   0.601030 0.796770 0.202460 -0.507273
O2    O     O_R   0.398970 0.203230 0.797540 -0.507027
O3    O     O_R   0.398970 0.203230 0.702460 -0.507273
O4    O     O_R   0.601030 0.796770 0.297540 -0.507028
O5    O     O_R   0.101030 0.703230 0.297540 -0.507273
O6    O     O_R   0.898970 0.296770 0.702460 -0.507028
O7    O     O_R   0.898970 0.296770 0.797540 -0.507273
O8    O     O_R   0.101030 0.703230 0.202460 -0.507028
O9    O     O_R   0.271290 0.802910 0.297210 -0.546291
O10   O     O_R   0.728710 0.197090 0.702790 -0.551204
O11   O     O_R   0.728710 0.197090 0.797210 -0.546292
O12   O     O_R   0.271290 0.802910 0.202790 -0.551204
O13   O     O_R   0.771290 0.697090 0.202790 -0.546292
O14   O     O_R   0.228710 0.302910 0.797210 -0.551204
O15   O     O_R   0.228710 0.302910 0.702790 -0.546292
O16   O     O_R   0.771290 0.697090 0.297210 -0.551204
C1    C     C_R   0.440269 0.814545 0.313236 0.740369
C2    C     C_R   0.559503 0.184167 0.687784 0.758077
C3    C     C_R   0.559731 0.185455 0.813236 0.740370
C4    C     C_R   0.440497 0.815833 0.187784 0.758078
C5    C     C_R   0.940269 0.685455 0.186763 0.740370
C6    C     C_R   0.059503 0.315833 0.812215 0.758077
C7    C     C_R   0.059731 0.314545 0.686763 0.740369
C8    C     C_R   0.940497 0.684167 0.312215 0.758078
O17   O     O_3   0.434520 0.717290 0.250000 -0.368854
O18   O     O_3   0.565480 0.282710 0.750000 -0.368854
O19   O     O_3   0.934520 0.782710 0.250000 -0.368854
O20   O     O_3   0.065480 0.217290 0.750000 -0.368854
V1    V     V_3+5 0.159680 0.756060 0.250000 1.543691
V2    V     V_3+5 0.840320 0.243940 0.750000 1.543690
V3    V     V_3+5 0.659680 0.743940 0.250000 1.543690
V4    V     V_3+5 0.340320 0.256060 0.750000 1.543690
C9    C     C_R   0.895501 0.349845 0.616098 0.378850
C10   C     C_R   0.112282 0.613897 0.355497 0.274393
C11   C     C_R   0.104499 0.650155 0.116098 0.378850
C12   C     C_R   0.887718 0.386102 0.855497 0.274392
C13   C     C_R   0.395501 0.150156 0.883902 0.378851
C14   C     C_R   0.612282 0.886103 0.144503 0.274392
C15   C     C_R   0.604501 0.849846 0.383901 0.378850
C16   C     C_R   0.387717 0.113898 0.644502 0.274390
C17   C     C_R   0.872314 0.388756 0.581875 -0.175678
C18   C     C_R   0.122487 0.577816 0.392574 -0.095372
C19   C     C_R   0.127687 0.611243 0.081875 -0.175679
C20   C     C_R   0.877512 0.422183 0.892575 -0.095373
C21   C     C_R   0.372314 0.111244 0.918125 -0.175679
C22   C     C_R   0.622487 0.922184 0.107426 -0.095372
C23   C     C_R   0.627689 0.888758 0.418124 -0.175680
C24   C     C_R   0.377511 0.077817 0.607425 -0.095374
C25   C     C_R   0.015409 0.425568 0.575267 -0.081888
C26   C     C_R   0.973025 0.573804 0.424792 -0.084585
C27   C     C_R   0.984591 0.574431 0.075267 -0.081888
C28   C     C_R   0.026975 0.426196 0.924792 -0.084585
C29   C     C_R   0.515409 0.074432 0.924733 -0.081886
C30   C     C_R   0.473025 0.926197 0.075208 -0.084585
C31   C     C_R   0.484592 0.925569 0.424732 -0.081889
C32   C     C_R   0.526975 0.073804 0.575207 -0.084585
C33   C     C_R   0.170357 0.425779 0.605305 0.449238
C34   C     C_R   0.813907 0.605476 0.418768 0.357041
C35   C     C_R   0.829643 0.574221 0.105306 0.449238
C36   C     C_R   0.186093 0.394524 0.918768 0.357039
C37   C     C_R   0.670357 0.074221 0.894695 0.449239
C38   C     C_R   0.313907 0.894525 0.081232 0.357039
C39   C     C_R   0.329642 0.925779 0.394694 0.449236
C40   C     C_R   0.686094 0.105476 0.581232 0.357038
C41   C     C_R   0.182588 0.389593 0.641563 -0.284231
C42   C     C_R   0.806137 0.639965 0.381622 -0.230482
C43   C     C_R   0.817412 0.610407 0.141564 -0.284232
C44   C     C_R   0.193863 0.360035 0.881622 -0.230483
C45   C     C_R   0.682588 0.110407 0.858437 -0.284232
C46   C     C_R   0.306137 0.860035 0.118377 -0.230482
C47   C     C_R   0.317411 0.889593 0.358436 -0.284231
C48   C     C_R   0.693864 0.139965 0.618378 -0.230483
H1    H     H_    0.299693 0.390849 0.665164 0.149735
H2    H     H_    0.683925 0.663885 0.378017 0.168666
H3    H     H_    0.700307 0.609151 0.165164 0.149735
H4    H     H_    0.316076 0.336115 0.878016 0.168665
H5    H     H_    0.799692 0.109151 0.834835 0.149735
H6    H     H_    0.183925 0.836115 0.121983 0.168666
H7    H     H_    0.200305 0.890848 0.334836 0.149734
H8    H     H_    0.816077 0.163885 0.621984 0.168664
C49   C     C_R   0.046062 0.351923 0.647592 -0.147772
C50   C     C_R   0.952440 0.644823 0.349882 -0.149279
C51   C     C_R   0.953938 0.648077 0.147592 -0.147771
C52   C     C_R   0.047560 0.355176 0.849882 -0.149278
C53   C     C_R   0.546062 0.148077 0.852408 -0.147772
C54   C     C_R   0.452440 0.855177 0.150118 -0.149278
C55   C     C_R   0.453938 0.851923 0.352408 -0.147773
C56   C     C_R   0.547560 0.144824 0.650117 -0.149277
C57   C     C_R   0.004534 0.516730 0.546254 -0.078496
C58   C     C_R   0.982121 0.483045 0.454116 -0.083650
C59   C     C_R   0.995466 0.483269 0.046254 -0.078497
C60   C     C_R   0.017880 0.516954 0.954117 -0.083648
C61   C     C_R   0.504531 0.983270 0.953746 -0.078496
C62   C     C_R   0.482124 0.016955 0.045884 -0.083648
C63   C     C_R   0.495462 0.016731 0.453746 -0.078498
C64   C     C_R   0.517883 0.983046 0.545883 -0.083648
H9    H     H_    0.011147 0.530294 0.581784 0.129507
H10   H     H_    0.973434 0.469490 0.418607 0.107438
H11   H     H_    0.988851 0.469706 0.081784 0.129506
H12   H     H_    0.026567 0.530510 0.918608 0.107439
H13   H     H_    0.511143 0.969707 0.918216 0.129506
H14   H     H_    0.473438 0.030511 0.081393 0.107438
H15   H     H_    0.488846 0.030295 0.418215 0.129506
H16   H     H_    0.526574 0.969490 0.581391 0.107440
C65   C     C_R   0.993569 0.552436 0.509950 -0.127704
C66   C     C_R   0.997513 0.447435 0.490287 -0.152225
C67   C     C_R   0.006430 0.447563 0.009951 -0.127705
C68   C     C_R   0.002488 0.552564 0.990287 -0.152224
C69   C     C_R   0.493567 0.947564 0.990050 -0.127703
C70   C     C_R   0.497515 0.052565 0.009713 -0.152225
C71   C     C_R   0.506427 0.052437 0.490049 -0.127704
C72   C     C_R   0.502493 0.947436 0.509712 -0.152222
H17   H     H_    0.994135 0.593015 0.517937 0.132923
H18   H     H_    0.000214 0.406896 0.482136 0.118909
H19   H     H_    0.005863 0.406984 0.017938 0.132921
H20   H     H_    0.999788 0.593103 0.982137 0.118910
H21   H     H_    0.494131 0.906985 0.982063 0.132923
H22   H     H_    0.500218 0.093104 0.017864 0.118908
H23   H     H_    0.505858 0.093016 0.482062 0.132921
H24   H     H_    0.499795 0.906897 0.517863 0.118912
C73   C     C_R   0.981302 0.535877 0.463584 0.131940
C74   C     C_R   0.005924 0.463867 0.536767 0.125775
C75   C     C_R   0.018698 0.464123 0.963584 0.131941
C76   C     C_R   0.994076 0.536133 0.036767 0.125774
C77   C     C_R   0.481302 0.964124 0.036416 0.131940
C78   C     C_R   0.505924 0.036134 0.963233 0.125775
C79   C     C_R   0.518698 0.035877 0.536415 0.131941
C80   C     C_R   0.494076 0.963868 0.463232 0.125771
O21   O     O_3   0.775926 0.308568 0.618674 -0.622214
H25   H     H_    0.743303 0.298288 0.586546 0.315777
O22   O     O_3   0.255295 0.619224 0.323798 -0.638715
H26   H     H_    0.375032 0.612484 0.339519 0.280650
O23   O     O_3   0.224074 0.691431 0.118674 -0.622213
H27   H     H_    0.256695 0.701712 0.086545 0.315778
O24   O     O_3   0.744704 0.380775 0.823798 -0.638715
H28   H     H_    0.624967 0.387514 0.839520 0.280649
O25   O     O_3   0.275927 0.191432 0.881326 -0.622214
H29   H     H_    0.243302 0.201712 0.913455 0.315775
O26   O     O_3   0.755295 0.880776 0.176202 -0.638714
H30   H     H_    0.875032 0.887515 0.160480 0.280649
O27   O     O_3   0.724075 0.808569 0.381326 -0.622211
H31   H     H_    0.756691 0.798288 0.413454 0.315779
O28   O     O_3   0.244702 0.119225 0.676201 -0.638713
H32   H     H_    0.124965 0.112488 0.660478 0.280648
C81   C     C_2   0.693462 0.393668 0.555788 0.390021
H33   H     H_    0.680531 0.419640 0.526644 0.080898
O29   O     O_2   0.554053 0.370582 0.567791 -0.511034
C82   C     C_2   0.288060 0.543711 0.396055 0.409101
H34   H     H_    0.358852 0.531082 0.364804 0.042873
O30   O     O_2   0.349829 0.530250 0.433624 -0.507207
C83   C     C_2   0.306539 0.606331 0.055788 0.390020
H35   H     H_    0.319472 0.580357 0.026646 0.080898
O31   O     O_2   0.445947 0.629419 0.067791 -0.511033
C84   C     C_2   0.711938 0.456288 0.896056 0.409105
H36   H     H_    0.641143 0.468916 0.864805 0.042877
O32   O     O_2   0.650173 0.469750 0.933625 -0.507208
C85   C     C_2   0.193463 0.106333 0.944213 0.390019
H37   H     H_    0.180534 0.080362 0.973357 0.080896
O33   O     O_2   0.054052 0.129417 0.932208 -0.511034
C86   C     C_2   0.788061 0.956289 0.103945 0.409099
H38   H     H_    0.858855 0.968917 0.135196 0.042876
O34   O     O_2   0.849828 0.969751 0.066376 -0.507209
C87   C     C_2   0.806542 0.893670 0.444210 0.390023
H39   H     H_    0.819479 0.919648 0.473350 0.080901
O35   O     O_2   0.945947 0.870579 0.432210 -0.511031
C88   C     C_2   0.211937 0.043713 0.603943 0.409106
H40   H     H_    0.141138 0.031086 0.635195 0.042879
O36   O     O_2   0.150175 0.030249 0.566375 -0.507208
O37   O     O_3   0.308355 0.461851 0.598574 -0.629254
H41   H     H_    0.406424 0.457024 0.622364 0.296702
O38   O     O_3   0.661080 0.604073 0.447794 -0.623242
H42   H     H_    0.669582 0.574584 0.469211 0.321105
O39   O     O_3   0.691645 0.538148 0.098574 -0.629255
H43   H     H_    0.593575 0.542976 0.122364 0.296701
O40   O     O_3   0.338920 0.395927 0.947794 -0.623243
H44   H     H_    0.330418 0.425416 0.969212 0.321104
O41   O     O_3   0.808353 0.038148 0.901426 -0.629253
H45   H     H_    0.906423 0.042976 0.877636 0.296703
O42   O     O_3   0.161080 0.895928 0.052206 -0.623242
H46   H     H_    0.169579 0.925418 0.030790 0.321105
O43   O     O_3   0.191643 0.961851 0.401426 -0.629256
H47   H     H_    0.093572 0.957023 0.377636 0.296698
O44   O     O_3   0.838922 0.104072 0.552207 -0.623244
H48   H     H_    0.830418 0.074584 0.530788 0.321102

loop_
_geom_bond_atom_site_label_1
_geom_bond_atom_site_label_2
_ccdc_geom_bond_type
O17   V3    S    
O38   H42   S    
C43   C51   A    
C85   H37   S    
C39   O43   S    
O12   V1    S    
C46   H6    S    
O37   H41   S    
C45   H5    S    
C87   H39   S    
C10   C18   A    
C67   C75   A    
C40   C48   A    
C18   C82   S    
C11   O23   S    
C47   H7    S    
C81   H33   S    
C69   H21   S    
O15   V4    S    
O39   H43   S    
O16   V3    S    
C37   O41   S    
C64   C72   A    
O11   C3    A    
O12   C4    A    
C66   H18   S    
O8    V1    S    
C65   H17   S    
C87   O35   D    
C70   C78   A    
C82   O30   D    
C61   C69   A    
C28   C75   S    
O19   V1    S    
C57   C74   A    
C25   C74   S    
C9    O21   S    
O28   H32   S    
C42   H2    S    
O1    V3    S    
C19   C83   S    
C41   H1    S    
C38   C46   A    
O3    C2    A    
O2    V4    S    
C13   C53   A    
C32   C79   S    
C8    C50   S    
C61   C78   A    
C28   C36   A    
C48   C56   A    
C19   C27   A    
C40   O44   S    
C29   C37   A    
C63   C80   A    
C34   C42   A    
C15   O27   S    
O11   V2    S    
C31   C39   A    
C83   H35   S    
C32   C40   A    
C15   C55   A    
C14   C54   A    
C11   C19   A    
O5    V1    S    
O9    V1    S    
C23   C87   S    
C20   C28   A    
O15   C7    A    
C23   C31   A    
C21   C29   A    
C85   O33   D    
O7    V2    S    
C13   O25   S    
C88   O36   D    
C27   C76   S    
C22   C30   A    
C26   C73   S    
C68   C76   A    
C17   C25   A    
C81   O29   D    
C63   H15   S    
C27   C35   A    
C33   O37   S    
C30   C77   S    
C14   C22   A    
O13   C5    A    
C44   C52   A    
C5    C51   S    
O24   H28   S    
C21   C85   S    
C82   H34   S    
C58   C66   A    
C24   C88   S    
C60   C75   A    
C61   H13   S    
C38   O42   S    
C72   H24   S    
C11   C51   A    
O18   V4    S    
C30   C38   A    
C35   O39   S    
O43   H47   S    
C62   C70   A    
C2    C56   S    
C64   C79   A    
C4    C54   S    
C26   C34   A    
O44   H48   S    
C59   C67   A    
C42   C50   A    
O10   V2    S    
C35   C43   A    
C41   C49   A    
O40   H44   S    
C14   O26   S    
C22   C86   S    
C66   C74   A    
C6    C52   S    
O8    C5    A    
C65   C73   A    
O9    C1    A    
C70   H22   S    
C67   H19   S    
C84   H36   S    
C18   C26   A    
C47   C55   A    
O4    C1    A    
C71   H23   S    
C69   C77   A    
O6    V2    S    
C39   C47   A    
C10   O22   S    
C59   C76   A    
C64   H16   S    
C71   C79   A    
C88   H40   S    
C58   C73   A    
C12   C20   A    
C43   H3    S    
C57   C65   A    
O22   H26   S    
C46   C54   A    
C12   O24   S    
C45   C53   A    
C60   H12   S    
C15   C23   A    
O21   H25   S    
C62   C77   A    
C37   C45   A    
C24   C32   A    
C16   C24   A    
O1    C4    A    
C7    C49   S    
O2    C3    A    
C1    C55   S    
C84   O32   D    
O13   V3    S    
C12   C52   A    
O14   V4    S    
C3    C53   S    
C25   C33   A    
O26   H30   S    
C44   H4    S    
O7    C6    A    
O25   H29   S    
C9    C17   A    
C86   H38   S    
O14   C6    A    
O20   V2    S    
C34   O38   S    
C20   C84   S    
C48   H8    S    
C63   C71   A    
O27   H31   S    
C68   H20   S    
O23   H27   S    
O5    C8    A    
C9    C49   A    
O10   C2    A    
O6    C7    A    
C83   O31   D    
O3    V4    S    
C72   C80   A    
O4    V3    S    
C29   C78   S    
O42   H46   S    
C17   C81   S    
C31   C80   S    
C36   C44   A    
O16   C8    A    
O41   H45   S    
C16   O28   S    
C57   H9    S    
C36   O40   S    
C10   C50   A    
C59   H11   S    
C60   C68   A    
C13   C21   A    
C58   H10   S    
C16   C56   A    
C62   H14   S    
C86   O34   D    
C33   C41   A    
