data_mof_unit_3191.cif
_audit_creation_date              2013-03-05T15:50:59-0500
_audit_creation_method            fapswitch 2.2
_symmetry_space_group_name_H-M    P1
_symmetry_Int_Tables_number       1
_space_group_crystal_system       triclinic
_cell_length_a                    6.933635
_cell_length_b                    17.517223
_cell_length_c                    19.269807
_cell_angle_alpha                 109.474353
_cell_angle_beta                  90.284828
_cell_angle_gamma                 90.580382
_cell_volume                      2206.37655238

loop_
_atom_site_label
_atom_site_type_symbol
_atom_site_description
_atom_site_fract_x
_atom_site_fract_y
_atom_site_fract_z
_atom_type_partial_charge
O1    O     O_R   0.505810 0.439670 0.562310 -0.587135
O2    O     O_R   0.169070 0.404920 0.411210 -0.599878
O3    O     O_R   0.005550 0.560330 0.437690 -0.608068
C1    C     C_R   0.338275 0.381385 0.382974 0.886088
O4    O     O_R   0.175650 0.430000 0.560110 -0.604853
O5    O     O_R   0.012170 0.585580 0.587650 -0.599057
C2    C     C_R   0.344626 0.414833 0.581748 0.975450
O6    O     O_R   0.499180 0.414420 0.412350 -0.601348
O7    O     O_3   0.341430 0.551020 0.508860 -0.260605
V1    V     V_3+5 0.063930 0.490540 0.498360 1.172872
O8    O     O_R   0.682850 0.595080 0.588790 -0.566377
C3    C     C_R   0.853107 0.618443 0.616587 1.081791
O9    O     O_R   0.676280 0.570000 0.439890 -0.586807
C4    C     C_R   0.845137 0.585155 0.418296 0.980132
V2    V     V_3+5 0.564760 0.509460 0.501640 1.210521
O10   O     O_3   0.837130 0.448980 0.491140 -0.290928
C5    C     C_R   0.066035 0.862695 0.176405 -0.292536
C6    C     C_R   0.913555 0.861311 0.127583 -0.320140
C7    C     C_R   0.750327 0.810701 0.124535 0.529387
C8    C     C_R   0.737362 0.765687 0.173203 -0.028060
C9    C     C_R   0.890472 0.769092 0.222912 -0.029678
C10   C     C_R   0.055335 0.817428 0.224147 0.146676
C11   C     C_R   0.574284 0.717110 0.173140 -0.162304
C12   C     C_R   0.562576 0.673036 0.221607 -0.235514
C13   C     C_R   0.713219 0.676454 0.271351 0.160877
C14   C     C_R   0.878667 0.724169 0.271729 0.072431
C15   C     C_R   0.032458 0.726972 0.320864 0.129904
C16   C     C_R   0.195111 0.775551 0.321677 -0.203309
C17   C     C_R   0.206135 0.820570 0.273944 -0.179194
C18   C     C_R   0.701543 0.632678 0.320452 -0.257557
C19   C     C_R   0.855536 0.634109 0.368722 -0.131044
C20   C     C_R   0.020970 0.681187 0.368304 -0.222920
H1    H     H_    0.191831 0.900725 0.178483 0.171312
H2    H     H_    0.454139 0.713375 0.135977 0.175010
H3    H     H_    0.434739 0.636481 0.220384 0.139563
H4    H     H_    0.574191 0.596051 0.319986 0.131376
H5    H     H_    0.139953 0.682940 0.405560 0.152882
H6    H     H_    0.314333 0.778561 0.359115 0.156904
H7    H     H_    0.333483 0.857578 0.275712 0.141447
C21   C     C_3   0.707271 0.779077 0.773515 -0.291586
C22   C     C_3   0.802437 0.775770 0.700496 0.378093
H8    H     H_    0.560687 0.801721 0.791856 0.173104
C23   C     C_3   0.869211 0.688867 0.686684 -0.385540
C24   C     C_3   0.780438 0.692582 0.760302 0.367503
C25   C     C_3   0.971056 0.724755 0.801552 -0.178864
C26   C     C_3   0.062151 0.722365 0.727148 -0.100773
C27   C     C_3   0.993857 0.810416 0.739893 -0.188810
C28   C     C_3   0.901614 0.811685 0.813086 -0.192821
H9    H     H_    0.038868 0.703391 0.843954 0.152709
H10   H     H_    0.208071 0.699437 0.708140 0.183428
H11   H     H_    0.081312 0.859881 0.731270 0.153700
C29   C     C_3   0.483160 0.236754 0.304931 -0.125028
C30   C     C_3   0.322752 0.180817 0.257702 -0.129245
H12   H     H_    0.271915 0.123160 0.263924 0.103287
H13   H     H_    0.562884 0.225780 0.350748 0.104790
C31   C     C_3   0.414834 0.189295 0.187842 -0.088953
C32   C     C_3   0.575030 0.244482 0.234319 -0.098487
C33   C     C_3   0.448346 0.319318 0.242205 -0.132849
C34   C     C_3   0.287938 0.263377 0.194973 -0.126145
C35   C     C_3   0.196068 0.255649 0.265587 -0.099435
C36   C     C_3   0.356262 0.310837 0.312064 -0.083132
H14   H     H_    0.730530 0.239656 0.220648 0.104101
H15   H     H_    0.499182 0.376977 0.235987 0.099602
H16   H     H_    0.208214 0.274350 0.149156 0.104180
H17   H     H_    0.040568 0.260476 0.279257 0.104258
C37   C     C_R   0.568638 0.135050 0.821206 -0.216486
C38   C     C_R   0.416632 0.135302 0.869457 -0.149711
C39   C     C_R   0.252710 0.182293 0.869811 -0.251981
C40   C     C_R   0.240605 0.229050 0.823228 0.155271
C41   C     C_R   0.392307 0.227471 0.774243 0.031242
C42   C     C_R   0.556402 0.179951 0.772980 0.140590
C43   C     C_R   0.079357 0.277382 0.824700 -0.227437
C44   C     C_R   0.067135 0.322964 0.777411 -0.183772
C45   C     C_R   0.215558 0.320843 0.727556 0.139731
C46   C     C_R   0.379712 0.273367 0.726334 0.033367
C47   C     C_R   0.531394 0.271764 0.677336 0.150067
C48   C     C_R   0.692702 0.223483 0.675898 -0.219349
C49   C     C_R   0.704895 0.177884 0.723168 -0.175472
C50   C     C_R   0.203132 0.365583 0.679196 -0.213483
C51   C     C_R   0.355014 0.365201 0.630856 -0.140565
C52   C     C_R   0.519132 0.318378 0.630644 -0.218926
H18   H     H_    0.694735 0.098565 0.820113 0.144372
H19   H     H_    0.135245 0.183178 0.907000 0.138624
H20   H     H_    0.961807 0.279532 0.862131 0.142338
H21   H     H_    0.940631 0.359457 0.779471 0.163141
H22   H     H_    0.076937 0.401995 0.680215 0.158302
H23   H     H_    0.636568 0.317450 0.593432 0.133492
H24   H     H_    0.810254 0.221335 0.638468 0.141531
H25   H     H_    0.831382 0.141381 0.721093 0.151886
O11   O     O_R   0.271890 0.085690 0.087580 -0.595037
O12   O     O_R   0.595690 0.070020 0.939870 -0.602321
O13   O     O_R   0.758900 0.914390 0.912370 -0.594151
C53   C     C_R   0.426777 0.085388 0.918336 0.955834
O14   O     O_R   0.602020 0.095100 0.088770 -0.598531
O15   O     O_R   0.765280 0.939660 0.062330 -0.556971
C54   C     C_R   0.432807 0.118710 0.116959 0.901175
O16   O     O_R   0.265520 0.060430 0.937620 -0.598414
O17   O     O_3   0.429560 0.949050 0.991100 -0.249559
V3    V     V_3+5 0.707160 0.009450 0.001650 1.172678
O18   O     O_R   0.094540 0.929890 0.060190 -0.594632
C55   C     C_R   0.925238 0.913574 0.080730 0.989930
O19   O     O_R   0.088200 0.904800 0.911290 -0.597247
C56   C     C_R   0.917915 0.881503 0.883464 0.972126
V4    V     V_3+5 0.206300 0.990390 0.998440 1.175285
O20   O     O_3   0.934030 0.050940 0.008900 -0.288095
N1    N     N_R   0.665677 0.627483 0.771199 0.230334
O21   O     O_R   0.488850 0.640219 0.793983 -0.438218
O22   O     O_R   0.740046 0.556259 0.758219 -0.424644
O23   O     O_3   0.599724 0.807628 0.076160 -0.623269
C57   C     C_3   0.641462 0.748687 0.007711 -0.136032
H26   H     H_    0.655649 0.687539 0.012823 0.122219
H27   H     H_    0.774088 0.764726 0.983046 0.093688
H28   H     H_    0.520102 0.745800 0.969144 0.187492
N2    N     N_R   0.711204 0.806305 0.646863 0.235913
O24   O     O_R   0.658075 0.881459 0.666634 -0.403198
O25   O     O_R   0.686050 0.759675 0.578996 -0.417523

loop_
_geom_bond_atom_site_label_1
_geom_bond_atom_site_label_2
_geom_bond_distance
_ccdc_geom_bond_type
C9    C14   1.415589 A    
C10   C17   1.403832 A    
C44   C45   1.403637 A    
C7    C8    1.414838 A    
C4    C19   1.482833 S    
C1    O6    1.289272 A    
N2    O24   1.300307 A    
C32   H14   1.108528 S    
C30   H12   1.110236 S    
C24   C25   1.540142 S    
C34   H16   1.110160 S    
C16   C17   1.398891 A    
C3    C23   1.497829 S    
C29   C36   1.543544 S    
O5    C3    1.289811 A    
C18   C19   1.407082 A    
O19   V4    2.005321 S    
O15   V3    1.995659 S    
C25   C28   1.546065 S    
C37   H18   1.084370 S    
N1    O21   1.300507 A    
V2    O10   2.152032 S    
O18   V4    1.993210 S    
C31   C32   1.536712 S    
C31   C54   1.512862 S    
C6    C7    1.419376 A    
C57   H26   1.113140 S    
O13   C56   1.289483 A    
O8    V2    2.005538 S    
C19   C20   1.407574 A    
C48   H24   1.083664 S    
C39   C40   1.405191 A    
C11   C12   1.398274 A    
C41   C42   1.412091 A    
O1    V2    1.994002 S    
C25   H9    1.110120 S    
O7    V1    2.162721 S    
C22   N2    1.457159 S    
C29   H13   1.110159 S    
C33   C36   1.543338 S    
C21   H8    1.110632 S    
C37   C38   1.407991 A    
C34   C35   1.550912 S    
O9    C4    1.298684 A    
C22   C23   1.532300 S    
C40   C41   1.411101 A    
C5    H1    1.084563 S    
V4    O20   2.152049 S    
C30   C35   1.550757 S    
C7    O23   1.384925 S    
C49   H25   1.083648 S    
V3    O20   1.711469 S    
C12   H3    1.083739 S    
C45   C46   1.412105 A    
C38   C39   1.408796 A    
C12   C13   1.401405 A    
O4    C2    1.300943 A    
C51   C52   1.408685 A    
C27   H11   1.110166 S    
C13   C14   1.411053 A    
C48   C49   1.400219 A    
C28   C56   1.495836 S    
C1    C36   1.512860 S    
C35   C36   1.536705 S    
C6    C55   1.486659 S    
C40   C43   1.403951 A    
O2    C1    1.307290 A    
C46   C47   1.411093 A    
C37   C42   1.406208 A    
O12   C53   1.300904 A    
C27   C28   1.545042 S    
C8    C11   1.407990 A    
C16   H6    1.083701 S    
C11   H2    1.082963 S    
C44   H21   1.083685 S    
C17   H7    1.083725 S    
C5    C6    1.406355 A    
C22   C27   1.540354 S    
C52   H23   1.084326 S    
C20   H5    1.084365 S    
C47   C48   1.403868 A    
O14   C54   1.307295 A    
C57   H28   1.109423 S    
O11   V4    2.002271 S    
C43   H20   1.083659 S    
O3    C4    1.296104 A    
C21   C22   1.540860 S    
C35   H17   1.108527 S    
O6    V2    2.001455 S    
C45   C50   1.406270 A    
O9    V2    1.993079 S    
C23   C24   1.530850 S    
C14   C15   1.412038 A    
O2    V1    1.988989 S    
C53   O16   1.296885 A    
C41   C46   1.414829 A    
C29   C30   1.548761 S    
C30   C31   1.543329 S    
C13   C18   1.404675 A    
C21   C28   1.551535 S    
C26   C27   1.557867 S    
C15   C20   1.404843 A    
O1    C2    1.296754 A    
C39   H19   1.084325 S    
C33   H15   1.110248 S    
C43   C44   1.400322 A    
C47   C52   1.405007 A    
O5    V1    1.992290 S    
N2    O25   1.300195 A    
O8    C3    1.298364 A    
O11   C54   1.289282 A    
C24   N1    1.456231 S    
C26   H10   1.110386 S    
C5    C10   1.402320 A    
C31   C34   1.543552 S    
C18   H4    1.084452 S    
C33   C34   1.548808 S    
O4    V1    1.997357 S    
O3    V1    1.995877 S    
V1    O10   1.711540 S    
O23   C57   1.411140 S    
C32   C33   1.550793 S    
N1    O22   1.300502 A    
O14   V3    1.988895 S    
O17   V4    1.702152 S    
O18   C55   1.299847 A    
C50   H22   1.084413 S    
O7    V2    1.704297 S    
O19   C56   1.298513 A    
C23   C26   1.552616 S    
C57   H27   1.112940 S    
O16   V4    2.000199 S    
C29   C32   1.550892 S    
C50   C51   1.408015 A    
C25   C26   1.557510 S    
C21   C24   1.541906 S    
C8    C9    1.413731 A    
O17   V3    2.162633 S    
C15   C16   1.402775 A    
C38   C53   1.485371 S    
O12   V3    1.997514 S    
C9    C10   1.410976 A    
C42   C49   1.403612 A    
O15   C55   1.295759 A    
O13   V3    1.992343 S    
C2    C51   1.485152 S    
