data_mof_unit_4188.cif
_audit_creation_date              2012-10-26T20:22:27-0400
_audit_creation_method            fapswitch 2.2
_symmetry_space_group_name_H-M    P1
_symmetry_Int_Tables_number       1
_space_group_crystal_system       triclinic
_cell_length_a                    9.49554
_cell_length_b                    10.92106
_cell_length_c                    17.203955
_cell_angle_alpha                 91.407753
_cell_angle_beta                  87.357971
_cell_angle_gamma                 90.851602
_cell_volume                      1781.47083059

loop_
_atom_site_label
_atom_site_type_symbol
_atom_type_description
_atom_site_fract_x
_atom_site_fract_y
_atom_site_fract_z
_atom_type_partial_charge
C1    C     C_R   0.500817 0.737435 0.500419 0.545009
C2    C     C_R   0.077873 0.433710 0.445264 0.042057
C3    C     C_R   0.071212 0.569767 0.553018 0.062559
C4    C     C_R   0.928844 0.431831 0.446101 0.041235
C5    C     C_R   0.483384 0.499002 0.651192 0.545998
C6    C     C_R   0.516879 0.501507 0.349897 0.608201
C7    C     C_R   0.475155 0.512915 0.737924 -0.023505
C8    C     C_R   0.523704 0.516051 0.265390 -0.011925
C9    C     C_R   0.591596 0.559721 0.779689 0.233044
C10   C     C_R   0.467780 0.424992 0.214800 0.227995
C11   C     C_R   0.565205 0.618964 0.852073 0.010425
C12   C     C_R   0.498672 0.262022 0.501064 0.585116
C13   C     C_R   0.460602 0.449902 0.135035 0.003238
C14   C     C_R   0.437770 0.596079 0.894354 -0.026319
C15   C     C_R   0.518318 0.559908 0.105997 -0.047898
C16   C     C_R   0.327372 0.536559 0.857476 -0.118269
C17   C     C_R   0.579076 0.646244 0.155554 -0.115711
C18   C     C_R   0.342918 0.498816 0.779424 -0.055727
C19   C     C_R   0.579881 0.626367 0.235061 -0.063994
C20   C     C_2   0.426685 0.611026 0.980014 -0.116789
C21   C     C_2   0.534356 0.577657 0.022241 -0.120375
C22   C     C_1   0.637873 0.721548 0.284572 0.226088
C23   C     C_R   0.596095 0.938407 0.546067 -0.044176
C24   C     C_1   0.223836 0.436749 0.745786 0.236534
C25   C     C_1   0.394870 0.363341 0.082193 0.313113
C26   C     C_1   0.670645 0.701600 0.883451 0.285481
C27   C     C_1   0.685207 0.878097 0.599256 0.222860
C28   C     C_1   0.272505 0.114994 0.430260 0.303565
C29   C     C_1   0.703310 0.133254 0.587737 0.247620
C30   C     C_1   0.310969 0.863478 0.405341 0.243286
C31   C     C_R   0.392631 0.058821 0.463310 -0.029179
C32   C     C_R   0.598448 0.066352 0.544100 -0.057653
C33   C     C_R   0.402166 0.931460 0.457358 -0.046796
C34   C     C_R   0.496159 0.127613 0.502842 -0.015081
C35   C     C_R   0.501432 0.870920 0.500458 -0.011663
C36   C     C_R   0.922453 0.571023 0.552081 0.083884
Cu1   Cu    Cu3+1 0.359340 0.499980 0.500000 1.033386
Cu2   Cu    Cu3+1 0.640660 0.500020 0.500000 1.063131
H1    H     H_    0.632800 0.546580 0.994442 0.174422
H2    H     H_    0.410551 0.092186 0.205246 0.378125
H3    H     H_    0.324683 0.629764 0.008802 0.150471
H4    H     H_    0.229536 0.517137 0.890266 0.138973
H5    H     H_    0.625661 0.729539 0.131948 0.160312
H6    H     H_    0.863422 0.629395 0.592179 0.190670
H7    H     H_    0.137054 0.383581 0.400348 0.183779
H8    H     H_    0.124697 0.625944 0.595443 0.138388
H9    H     H_    0.875350 0.377055 0.402991 0.146662
H10   H     H_    0.938630 0.491660 0.837476 0.369725
N1    N     N_R   0.147930 0.499970 0.499980 -0.245763
N2    N     N_1   0.238630 0.809506 0.363904 -0.253234
N3    N     N_R   0.852070 0.500030 0.500020 -0.242951
N4    N     N_1   0.684370 0.797819 0.324068 -0.252731
N5    N     N_1   0.128704 0.386806 0.718857 -0.196627
N6    N     N_1   0.342272 0.294732 0.039745 -0.214779
N7    N     N_1   0.754673 0.767584 0.908414 -0.229508
N8    N     N_1   0.755989 0.831990 0.642605 -0.241151
N9    N     N_1   0.174177 0.156212 0.404236 -0.233625
N10   N     N_1   0.788071 0.185169 0.622335 -0.172791
O1    O     O_R   0.381260 0.680340 0.500000 -0.514138
O2    O     O_2   0.853267 0.629713 0.732573 -0.316609
O3    O     O_3   0.836638 0.471284 0.841766 -0.509758
O4    O     O_2   0.480876 0.250179 0.323266 -0.304833
O5    O     O_2   0.254157 0.281441 0.263818 -0.280683
O6    O     O_3   0.451923 0.168179 0.183013 -0.493184
O7    O     O_R   0.618740 0.319660 0.500000 -0.487921
O8    O     O_R   0.618830 0.680370 0.500010 -0.501807
O9    O     O_R   0.381170 0.319630 0.499990 -0.488636
O10   O     O_R   0.367440 0.500000 0.613600 -0.516412
O11   O     O_R   0.632560 0.500000 0.386400 -0.503511
O12   O     O_R   0.605010 0.500030 0.613600 -0.445179
O13   O     O_R   0.394990 0.499970 0.386400 -0.475518
O14   O     O_2   0.787633 0.416642 0.699138 -0.219052
S1    S     S_3+6 0.770659 0.518646 0.758602 0.029637
S2    S     S_3+6 0.411310 0.279183 0.249449 0.020475

loop_
_geom_bond_atom_site_label_1
_geom_bond_atom_site_label_2
_ccdc_geom_bond_type
C6    O11   A    
C2    C4    A    
Cu2   O12   S    
C15   C17   A    
Cu1   Cu2   S    
C2    N1    A    
C23   C27   S    
Cu1   N1    S    
C12   O7    A    
C3    H8    S    
H2    O6    S    
Cu2   O7    S    
C7    C18   A    
O3    S1    S    
C23   C32   A    
C31   C33   A    
C1    O8    A    
C3    N1    A    
C31   C34   A    
C5    C7    S    
C2    H7    S    
Cu1   O13   S    
C28   N9    T    
C29   N10   T    
C26   N7    T    
C10   S2    S    
C4    H9    S    
C13   C25   S    
H10   O3    S    
Cu1   O1    S    
C36   N3    A    
C9    S1    S    
C3    C36   A    
C5    O10   A    
C18   C24   S    
Cu1   O9    S    
C16   C18   A    
C17   C19   A    
C1    O1    A    
C20   H3    S    
C29   C32   S    
C23   C35   A    
C9    C11   A    
C13   C15   A    
C30   N2    T    
C6    O13   A    
C12   O9    A    
C14   C16   A    
Cu2   O11   S    
C5    O12   A    
C36   H6    S    
C25   N6    T    
C4    N3    A    
C12   C34   S    
C8    C19   A    
Cu1   O10   S    
C14   C20   S    
O2    S1    D    
C15   C21   S    
C19   C22   S    
Cu2   O8    S    
C20   C21   D    
C1    C35   S    
C17   H5    S    
C22   N4    T    
C11   C26   S    
C11   C14   A    
C7    C9    A    
O6    S2    S    
C27   N8    T    
O4    S2    D    
C6    C8    S    
Cu2   N3    S    
C30   C33   S    
C33   C35   A    
C24   N5    T    
C16   H4    S    
C10   C13   A    
C8    C10   A    
C28   C31   S    
C32   C34   A    
O14   S1    D    
O5    S2    D    
C21   H1    S    
