data_mof_unit_1233.cif
_audit_creation_date              2012-12-10T17:31:13-0500
_audit_creation_method            fapswitch 2.2
_symmetry_space_group_name_H-M    P1
_symmetry_Int_Tables_number       1
_space_group_crystal_system       triclinic
_cell_length_a                    11.985352
_cell_length_b                    12.903494
_cell_length_c                    15.462384
_cell_angle_alpha                 87.184837
_cell_angle_beta                  115.469073
_cell_angle_gamma                 93.313776
_cell_volume                      2154.5195845

loop_
_atom_site_label
_atom_site_type_symbol
_atom_type_description
_atom_site_fract_x
_atom_site_fract_y
_atom_site_fract_z
_atom_type_partial_charge
C1    C     C_R   0.477494 0.299428 0.498737 0.895983
C2    C     C_R   0.654515 0.970193 0.508172 -0.205406
C3    C     C_R   0.355045 0.137212 0.492104 -0.187195
C4    C     C_R   0.644846 0.862825 0.507667 -0.196665
C5    C     C_R   0.563769 0.132430 0.503353 -0.264811
C6    C     C_R   0.436102 0.867606 0.496374 -0.269853
C7    C     C_R   0.554940 0.025828 0.502820 0.183053
C8    C     C_R   0.444906 0.974212 0.496859 0.182198
C9    C     C_R   0.002511 0.598397 0.409754 -0.281666
C10   C     C_R   0.997005 0.400748 0.589376 -0.265682
C11   C     C_R   0.123543 0.589179 0.418885 0.054120
C12   C     C_R   0.522486 0.700578 0.501222 0.892184
C13   C     C_R   0.876194 0.410315 0.580628 0.061669
C14   C     C_R   0.161118 0.457374 0.539222 -0.032334
C15   C     C_R   0.838731 0.542371 0.460530 -0.048868
C16   C     C_R   0.575880 0.492586 0.680484 0.881966
C17   C     C_R   0.423577 0.503443 0.319455 0.880172
C18   C     C_R   0.039947 0.463883 0.532495 0.072367
C19   C     C_R   0.959731 0.535577 0.466949 0.091867
C20   C     C_R   0.620156 0.473012 0.783532 -0.076954
C21   C     C_R   0.375416 0.488942 0.216442 -0.078092
C22   C     C_R   0.782224 0.440678 0.941801 -0.123842
C23   C     C_R   0.640921 0.418515 0.113776 -0.255160
C24   C     C_R   0.209555 0.449024 0.061925 -0.122949
C25   C     C_R   0.745405 0.461479 0.844239 -0.191704
C26   C     C_R   0.249015 0.474013 0.157684 -0.190985
C27   C     C_R   0.532281 0.459730 0.820032 -0.227871
C28   C     C_R   0.461049 0.478531 0.179235 -0.222565
C29   C     C_R   0.565995 0.434981 0.916530 0.066091
C30   C     C_R   0.424801 0.445751 0.086212 0.064661
C31   C     C_R   0.693792 0.429865 0.979438 0.067781
C32   C     C_R   0.296516 0.435494 0.024865 0.072430
C33   C     C_R   0.475360 0.424041 0.952500 0.006928
C34   C     C_R   0.347423 0.409767 0.892410 -0.254404
C35   C     C_R   0.514142 0.429293 0.051888 0.002227
C36   C     C_R   0.729612 0.416704 0.078297 0.361860
C37   C     C_R   0.259047 0.413266 0.928193 0.367264
C38   C     C_R   0.535589 0.811869 0.501819 -0.058272
C39   C     C_R   0.464327 0.188158 0.498003 -0.059027
C40   C     C_R   0.345335 0.029849 0.491518 -0.207693
Cl1   Cl    Cl    0.885439 0.404604 0.161579 -0.666762
Cl2   Cl    Cl    0.101997 0.394383 0.847758 -0.704142
H1    H     H_    0.843958 0.361654 0.624945 0.152205
H2    H     H_    0.111163 0.440008 0.017786 0.192188
H3    H     H_    0.673140 0.408714 0.190410 0.182840
H4    H     H_    0.313839 0.392667 0.817492 0.168212
H5    H     H_    0.351246 0.828393 0.491769 0.161926
H6    H     H_    0.648630 0.171642 0.507969 0.164056
H7    H     H_    0.722189 0.819990 0.511822 0.164725
H8    H     H_    0.277724 0.180050 0.487994 0.169243
H9    H     H_    0.260655 0.990502 0.486945 0.143731
H10   H     H_    0.739190 0.009543 0.512733 0.144936
H11   H     H_    0.776174 0.597350 0.410531 0.125713
H12   H     H_    0.155751 0.637687 0.374469 0.128510
H13   H     H_    0.223710 0.402457 0.589302 0.119890
H14   H     H_    0.942997 0.654153 0.358379 0.148138
H15   H     H_    0.056304 0.344520 0.640257 0.178906
H16   H     H_    0.556998 0.498130 0.223852 0.158485
H17   H     H_    0.437118 0.473398 0.772545 0.160780
H18   H     H_    0.181126 0.480874 0.185716 0.196898
H19   H     H_    0.814733 0.469821 0.816679 0.196188
H20   H     H_    0.880035 0.435101 0.987291 0.191251
N1    N     N_R   0.799120 0.480200 0.517090 -0.108335
N2    N     N_R   0.200880 0.519800 0.482910 -0.099727
O1    O     O_R   0.580150 0.341050 0.504560 -0.628184
O2    O     O_R   0.419850 0.658950 0.495440 -0.628131
O3    O     O_R   0.388090 0.353760 0.493600 -0.619906
O4    O     O_R   0.611910 0.646240 0.506400 -0.622686
O5    O     O_R   0.650890 0.490020 0.640860 -0.610741
O6    O     O_R   0.349110 0.509980 0.359140 -0.609270
O7    O     O_R   0.458830 0.502730 0.629890 -0.623984
O8    O     O_R   0.541170 0.497270 0.370110 -0.622459
Zn1   Zn    Zn3+2 0.628240 0.491510 0.507320 0.954118
Zn2   Zn    Zn3+2 0.371760 0.508490 0.492680 0.958567

loop_
_geom_bond_atom_site_label_1
_geom_bond_atom_site_label_2
_ccdc_geom_bond_type
C21   C26   A    
C23   H3    S    
C27   C29   A    
C34   C37   A    
C14   C18   A    
C2    C7    A    
C7    C8    A    
C15   C19   A    
C12   O4    A    
C30   C35   A    
C15   H11   S    
C24   C26   A    
C20   C25   A    
O2    Zn2   S    
C29   C33   A    
O1    Zn1   S    
C18   C19   A    
C37   Cl2   S    
C1    O3    A    
C9    C19   A    
C22   C25   A    
O6    Zn2   S    
C1    O1    A    
C6    C38   A    
O5    Zn1   S    
C34   H4    S    
C14   H13   S    
C3    C39   A    
C17   O6    A    
C36   Cl1   S    
C16   O7    A    
C3    H8    S    
C5    H6    S    
C6    H5    S    
C10   H15   S    
C11   N2    A    
C22   C31   A    
C5    C7    A    
C6    C8    A    
N1    Zn1   S    
O4    Zn1   S    
C12   O2    A    
C17   C21   S    
C2    C4    A    
C24   C32   A    
C22   H20   S    
C13   N1    A    
C16   C20   S    
C14   N2    A    
C33   C34   A    
C9    H14   S    
C25   H19   S    
C32   C37   A    
C9    C11   A    
C11   H12   S    
C2    H10   S    
C21   C28   A    
C4    C38   A    
C3    C40   A    
C23   C35   A    
C5    C39   A    
C24   H2    S    
C13   H1    S    
N2    Zn2   S    
C16   O5    A    
O8    Zn1   S    
C10   C13   A    
O7    Zn2   S    
C20   C27   A    
C28   H16   S    
C40   H9    S    
C4    H7    S    
C28   C30   A    
C29   C31   A    
C27   H17   S    
C30   C32   A    
C10   C18   A    
C33   C35   A    
O3    Zn2   S    
C12   C38   S    
C1    C39   S    
C17   O8    A    
C23   C36   A    
C15   N1    A    
C31   C36   A    
C8    C40   A    
C26   H18   S    
