data_mof_unit_4842.cif
_audit_creation_date              2012-12-10T19:45:40-0500
_audit_creation_method            fapswitch 2.2
_symmetry_space_group_name_H-M    P1
_symmetry_Int_Tables_number       1
_space_group_crystal_system       triclinic
_cell_length_a                    10.862503
_cell_length_b                    14.626517
_cell_length_c                    14.672913
_cell_angle_alpha                 64.963677
_cell_angle_beta                  103.455575
_cell_angle_gamma                 102.770866
_cell_volume                      2034.2451409

loop_
_atom_site_label
_atom_site_type_symbol
_atom_type_description
_atom_site_fract_x
_atom_site_fract_y
_atom_site_fract_z
_atom_type_partial_charge
C1    C     C_R   0.477130 0.120053 0.312090 0.809878
C2    C     C_R   0.518463 0.879392 0.688492 0.824652
C3    C     C_R   0.869482 0.003603 0.490518 -0.090353
C4    C     C_R   0.128984 0.003694 0.499214 -0.086444
C5    C     C_R   0.906479 0.949828 0.442804 0.025923
C6    C     C_R   0.091126 0.062646 0.540908 0.012620
C7    C     C_R   0.438924 0.188417 0.206556 -0.185840
C8    C     C_R   0.527300 0.810602 0.797999 -0.184653
C9    C     C_R   0.265493 0.230440 0.064083 0.488301
C10   C     C_R   0.629423 0.782011 0.972654 0.484294
C11   C     C_R   0.325544 0.158618 0.151559 -0.314592
C12   C     C_R   0.606468 0.846184 0.869712 -0.354362
C13   C     C_R   0.498192 0.290318 0.169809 0.197176
C14   C     C_R   0.462876 0.708940 0.831568 0.181662
C15   C     C_R   0.427057 0.366142 0.093118 -0.016078
C16   C     C_R   0.477517 0.645289 0.937224 -0.015213
C17   C     C_R   0.312450 0.334817 0.037295 0.001017
C18   C     C_R   0.567773 0.680846 0.006286 0.008064
C19   C     C_R   0.467306 0.472177 0.068842 0.088637
C20   C     C_R   0.413382 0.543420 0.975385 0.094192
C21   C     C_R   0.295645 0.510922 0.925481 -0.200599
C22   C     C_R   0.553253 0.509840 0.137208 -0.188073
C23   C     C_R   0.262528 0.000593 0.500769 0.789179
C24   C     C_R   0.736801 0.001639 0.495858 0.788424
C25   C     C_R   0.245732 0.408401 0.956327 -0.205632
C26   C     C_R   0.598795 0.613265 0.107420 -0.217399
C27   C     C_R   0.725594 0.290334 0.659205 -0.312587
C28   C     C_R   0.279036 0.711859 0.336814 -0.340900
C29   C     C_R   0.686270 0.205559 0.634331 0.052671
C30   C     C_R   0.312028 0.793222 0.367303 0.098784
C31   C     C_R   0.519638 0.285958 0.507933 0.038528
C32   C     C_R   0.489654 0.719462 0.483353 0.023289
C33   C     C_R   0.556144 0.375541 0.528242 -0.018095
C34   C     C_R   0.458956 0.632711 0.458281 -0.025659
C35   C     C_R   0.660608 0.375336 0.606823 0.164123
C36   C     C_R   0.352537 0.631681 0.381539 0.156046
C37   C     C_R   0.491516 0.463472 0.475587 0.069088
C38   C     C_R   0.529228 0.547825 0.506184 0.068196
C39   C     C_R   0.634745 0.543829 0.584429 -0.247327
C40   C     C_R   0.389916 0.469572 0.394045 -0.244760
C41   C     C_R   0.699251 0.459540 0.633047 -0.208985
C42   C     C_R   0.321058 0.551461 0.349083 -0.215838
C43   C     C_R   0.324504 0.155538 0.731649 0.311163
C44   C     C_R   0.634173 0.896457 0.246803 0.348876
C45   C     C_R   0.253779 0.090431 0.683327 -0.114503
C46   C     C_R   0.724468 0.947871 0.301037 -0.155829
C47   C     C_R   0.179207 0.130527 0.586922 0.081597
C48   C     C_R   0.814629 0.896195 0.382681 0.088188
C49   C     C_R   0.174053 0.235823 0.539826 -0.178328
C50   C     C_R   0.818929 0.793376 0.405783 -0.187782
C51   C     C_R   0.241376 0.300026 0.588343 -0.182322
C52   C     C_R   0.732952 0.742596 0.349976 -0.207176
C53   C     C_R   0.316485 0.260403 0.683398 -0.195399
C54   C     C_R   0.639993 0.792920 0.271971 -0.080866
C55   C     C_R   0.961963 0.060001 0.537271 -0.245086
C56   C     C_R   0.036226 0.948909 0.450180 -0.238152
Cu1   Cu    Cu3+1 0.466270 0.918260 0.475690 0.935882
Cu2   Cu    Cu3+1 0.533730 0.081740 0.524310 0.927634
H1    H     H_    0.368225 0.311647 0.719668 0.128781
H2    H     H_    0.573195 0.750020 0.232394 0.148574
H3    H     H_    0.238440 0.564564 0.864313 0.170199
H4    H     H_    0.582191 0.460637 0.215484 0.180344
H5    H     H_    0.779460 0.459810 0.692901 0.140427
H6    H     H_    0.241791 0.551711 0.288428 0.143959
H7    H     H_    0.572649 0.729748 0.536315 0.128036
H8    H     H_    0.439650 0.278120 0.451450 0.130400
H9    H     H_    0.256380 0.855842 0.332193 0.122557
H10   H     H_    0.736607 0.139932 0.674114 0.121506
H11   H     H_    0.806205 0.289432 0.719014 0.142299
H12   H     H_    0.197189 0.711979 0.278151 0.134888
H13   H     H_    0.670284 0.604729 0.610539 0.132433
H14   H     H_    0.359835 0.411403 0.363679 0.139942
H15   H     H_    0.253257 0.008811 0.721321 0.113523
H16   H     H_    0.721689 0.027625 0.281917 0.102054
H17   H     H_    0.114731 0.267753 0.466613 0.141121
H18   H     H_    0.888165 0.752200 0.467720 0.139224
H19   H     H_    0.234459 0.380721 0.552600 0.163965
H20   H     H_    0.736711 0.663214 0.368554 0.155510
H21   H     H_    0.933895 0.102390 0.572702 0.163217
H22   H     H_    0.064837 0.907594 0.413944 0.156625
H23   H     H_    0.155592 0.386957 0.915013 0.186094
H24   H     H_    0.664584 0.638851 0.162529 0.182430
H25   H     H_    0.655920 0.923441 0.845271 0.179028
H26   H     H_    0.279936 0.080151 0.178870 0.181344
N1    N     N_R   0.584450 0.204570 0.560790 -0.179776
N2    N     N_R   0.415550 0.795430 0.439210 -0.176696
O1    O     O_R   0.455540 0.022090 0.338120 -0.569529
O2    O     O_R   0.544460 0.977910 0.661880 -0.592067
O3    O     O_R   0.512510 0.160150 0.379180 -0.591408
O4    O     O_R   0.487490 0.839850 0.620820 -0.575867
O5    O     O_R   0.291160 0.930970 0.479480 -0.599526
O6    O     O_R   0.708840 0.069030 0.520520 -0.592758
O7    O     O_R   0.348130 0.069020 0.520540 -0.575241
O8    O     O_R   0.651870 0.930980 0.479460 -0.579020
O9    O     O_3   0.151957 0.199260 0.012483 -0.586091
C57   C     C_3   0.181185 0.164984 0.944542 -0.335046
H27   H     H_    0.232472 0.097220 0.985981 0.173156
H28   H     H_    0.238059 0.226884 0.888303 0.161203
H29   H     H_    0.090502 0.141827 0.901334 0.190071
O10   O     O_3   0.708705 0.819534 0.041429 -0.593093
C58   C     C_3   0.836893 0.825814 0.032072 -0.338494
H30   H     H_    0.859394 0.884770 0.957341 0.161946
H31   H     H_    0.859427 0.750717 0.043263 0.156387
H32   H     H_    0.899904 0.848676 0.092385 0.196016
N3    N     N_2   0.397998 0.116373 0.830676 -0.464726
H33   H     H_    0.439925 0.169958 0.861121 0.242728
C59   C     C_3   0.482658 0.045817 0.846146 -0.685902
H34   H     H_    0.548119 0.032623 0.919553 0.238565
H35   H     H_    0.541601 0.077559 0.784422 0.246228
H36   H     H_    0.426826 0.971608 0.849022 0.233928
N4    N     N_2   0.537243 0.950044 0.170737 -0.427221
H37   H     H_    0.560904 0.027897 0.135360 0.245375
C60   C     C_3   0.447495 0.901382 0.109363 -0.704765
H38   H     H_    0.379883 0.954513 0.055236 0.232545
H39   H     H_    0.390875 0.832483 0.158380 0.231712
H40   H     H_    0.498837 0.880350 0.065499 0.255680
N5    N     N_2   0.394310 0.666735 0.759631 -0.437459
H41   H     H_    0.332831 0.709943 0.699722 0.264434
C61   C     C_3   0.464329 0.607093 0.737374 -0.627747
H42   H     H_    0.403943 0.579611 0.679248 0.215983
H43   H     H_    0.490484 0.539684 0.806953 0.226643
H44   H     H_    0.553313 0.653680 0.708900 0.217819
N6    N     N_2   0.631883 0.314229 0.201839 -0.438945
H45   H     H_    0.670508 0.264671 0.271786 0.263152
C62   C     C_3   0.710885 0.338110 0.125526 -0.700373
H46   H     H_    0.811805 0.360374 0.154744 0.227756
H47   H     H_    0.680196 0.402736 0.054590 0.242210
H48   H     H_    0.705456 0.270349 0.107938 0.220476

loop_
_geom_bond_atom_site_label_1
_geom_bond_atom_site_label_2
_ccdc_geom_bond_type
C1    O1    A    
C31   H8    S    
C58   H30   S    
C31   N1    A    
C27   C29   A    
C5    C56   A    
C36   C42   A    
O9    C57   S    
C18   C26   A    
C6    C55   A    
C53   H1    S    
N6    H45   S    
C39   C41   A    
C54   H2    S    
C15   C19   A    
N3    C59   S    
Cu2   O7    S    
C37   C40   A    
C24   O8    A    
N5    C61   S    
C38   C39   A    
C13   N6    S    
N6    C62   S    
C57   H29   S    
Cu1   N2    S    
C45   H15   S    
C43   N3    S    
C2    O4    A    
C3    C55   A    
C43   C53   A    
C19   C20   A    
C44   C46   A    
C49   C51   A    
C57   H28   S    
C62   H48   S    
C50   C52   A    
C59   H34   S    
C49   H17   S    
Cu1   O1    S    
C2    O2    A    
C14   C16   A    
C30   N2    A    
C40   H14   S    
C9    O9    S    
C21   H3    S    
C30   H9    S    
C27   H11   S    
C16   C20   A    
C60   H40   S    
C40   C42   A    
C26   H24   S    
C1    C7    S    
C4    C56   A    
C25   H23   S    
C59   H35   S    
C3    C24   S    
C52   H20   S    
C24   O6    A    
C1    O3    A    
C52   C54   A    
C45   C47   A    
C5    C48   S    
C46   C48   A    
C6    C47   S    
C19   C22   A    
C4    C6    A    
Cu1   O4    S    
C4    C23   S    
C27   C35   A    
C33   C37   A    
C23   O7    A    
C12   H25   S    
C51   C53   A    
C32   C34   A    
C7    C11   A    
C51   H19   S    
C37   C38   A    
C50   H18   S    
C22   H4    S    
C29   H10   S    
C55   H21   S    
C8    C12   A    
C14   N5    S    
C32   N2    A    
C57   H27   S    
C31   C33   A    
N4    C60   S    
C16   C18   A    
C10   O10   S    
C9    C11   A    
C61   H43   S    
C10   C12   A    
C9    C17   A    
C58   H32   S    
Cu1   O8    S    
C13   C15   A    
C62   H46   S    
C59   H36   S    
C23   O5    A    
C41   H5    S    
Cu2   N1    S    
C42   H6    S    
C46   H16   S    
C60   H38   S    
C61   H44   S    
C15   C17   A    
C21   C25   A    
C8    C14   A    
Cu1   O5    S    
N4    H37   S    
C34   C38   A    
C29   N1    A    
C28   H12   S    
C3    C5    A    
Cu2   O2    S    
C61   H42   S    
C11   H26   S    
C47   C49   A    
N3    H33   S    
C56   H22   S    
C17   C25   A    
C28   C30   A    
C43   C45   A    
N5    H41   S    
Cu1   Cu2   S    
C10   C18   A    
C48   C50   A    
O10   C58   S    
C33   C35   A    
C34   C36   A    
C35   C41   A    
Cu2   O3    S    
C44   N4    S    
C44   C54   A    
C7    C13   A    
C20   C21   A    
C28   C36   A    
C58   H31   S    
C22   C26   A    
C2    C8    S    
C62   H47   S    
C39   H13   S    
Cu2   O6    S    
C32   H7    S    
C60   H39   S    
