data_mof_unit_341.cif
_audit_creation_date              2012-12-10T18:47:02-0500
_audit_creation_method            fapswitch 2.2
_symmetry_space_group_name_H-M    P1
_symmetry_Int_Tables_number       1
_space_group_crystal_system       triclinic
_cell_length_a                    10.78032
_cell_length_b                    9.978119
_cell_length_c                    14.969822
_cell_angle_alpha                 90.340072
_cell_angle_beta                  91.649261
_cell_angle_gamma                 91.727788
_cell_volume                      1608.82741039

loop_
_atom_site_label
_atom_site_type_symbol
_atom_type_description
_atom_site_fract_x
_atom_site_fract_y
_atom_site_fract_z
_atom_type_partial_charge
C1    C     C_R   0.260448 0.498056 0.502604 0.932490
C2    C     C_R   0.739551 0.501942 0.497396 0.932609
C3    C     C_R   0.272290 0.466738 0.040600 0.059962
C4    C     C_R   0.727665 0.531634 0.959410 0.060052
C5    C     C_R   0.059108 0.392027 0.460759 0.386564
C6    C     C_R   0.940885 0.607953 0.539257 0.386531
C7    C     C_R   0.932337 0.400022 0.450591 0.386303
C8    C     C_R   0.067660 0.599973 0.549412 0.386240
C9    C     C_R   0.872316 0.505863 0.492928 -0.447449
C10   C     C_R   0.127682 0.494129 0.507077 -0.447444
C11   C     C_R   0.561284 0.073548 0.566206 0.163296
C12   C     C_R   0.438715 0.926452 0.433794 0.163338
C13   C     C_R   0.439261 0.068450 0.433694 0.129723
C14   C     C_R   0.560741 0.931551 0.566303 0.129770
C15   C     C_R   0.499047 0.500040 0.327650 0.862805
C16   C     C_R   0.500919 0.499952 0.672351 0.862824
C17   C     C_R   0.613227 0.523734 0.814960 0.025001
C18   C     C_R   0.386649 0.475954 0.185093 0.025089
C19   C     C_R   0.501545 0.498276 0.767663 -0.175348
C20   C     C_R   0.498340 0.501608 0.232342 -0.175369
C21   C     C_R   0.391756 0.463448 0.809914 0.047875
C22   C     C_R   0.608166 0.536016 0.190029 0.047869
C23   C     C_R   0.387838 0.474166 0.903158 0.109865
C24   C     C_R   0.612087 0.524753 0.096825 0.109894
C25   C     C_R   0.500690 0.498081 0.953041 -0.094260
C26   C     C_R   0.499221 0.500795 0.046964 -0.094268
C27   C     C_R   0.615072 0.518269 0.908844 0.113472
C28   C     C_R   0.384837 0.480712 0.091178 0.113452
C29   C     C_R   0.273894 0.463866 0.947151 0.053727
C30   C     C_R   0.726063 0.534513 0.052854 0.053738
N1    N     N_R   0.500000 0.857200 0.500000 -0.153864
N2    N     N_R   0.500000 0.142800 0.500000 -0.153878
O1    O     O_R   0.316770 0.614620 0.499990 -0.615295
O2    O     O_R   0.683230 0.385380 0.500010 -0.615297
O3    O     O_R   0.683230 0.614620 0.500010 -0.619913
O4    O     O_R   0.316770 0.385380 0.499990 -0.620044
O5    O     O_R   0.499980 0.614680 0.367850 -0.648101
O6    O     O_R   0.500020 0.385320 0.632150 -0.648108
O7    O     O_R   0.500020 0.614680 0.632150 -0.641772
O8    O     O_R   0.499980 0.385320 0.367850 -0.641756
Zn1   Zn    Zn3+2 0.500000 0.653120 0.500000 0.924560
Zn2   Zn    Zn3+2 0.500000 0.346880 0.500000 0.924537
N3    N     N_3   0.724664 0.552028 0.766993 -0.398583
H1    H     H_    0.739994 0.472572 0.723181 0.188718
H2    H     H_    0.713692 0.639594 0.730306 0.218582
N4    N     N_3   0.275149 0.448400 0.233149 -0.398601
H3    H     H_    0.285905 0.361140 0.270196 0.218819
H4    H     H_    0.260001 0.528302 0.276641 0.188409
N5    N     N_3   0.285956 0.412303 0.758136 -0.414762
H5    H     H_    0.309665 0.323945 0.725810 0.204553
H6    H     H_    0.260812 0.482751 0.710305 0.171585
N6    N     N_3   0.713976 0.587439 0.241680 -0.414842
H7    H     H_    0.739107 0.517276 0.289705 0.171666
H8    H     H_    0.690253 0.675978 0.273782 0.204403
N7    N     N_3   0.158447 0.458151 0.896711 -0.423229
H9    H     H_    0.108240 0.543019 0.911313 0.184755
H10   H     H_    0.107789 0.371339 0.913231 0.185888
N8    N     N_3   0.841493 0.539700 0.103320 -0.423233
H11   H     H_    0.892456 0.626317 0.086823 0.185927
H12   H     H_    0.891399 0.454620 0.088699 0.184782
N9    N     N_3   0.155084 0.460035 0.083781 -0.422072
H13   H     H_    0.103038 0.541795 0.063859 0.169970
H14   H     H_    0.107668 0.370630 0.065725 0.186300
N10   N     N_3   0.844876 0.537617 0.916215 -0.422277
H15   H     H_    0.892729 0.626760 0.934275 0.186269
H16   H     H_    0.896512 0.455546 0.936137 0.169985
O9    O     O_3   0.115030 0.287257 0.419761 -0.712210
H17   H     H_    0.141931 0.227507 0.468924 0.348554
O10   O     O_3   0.884950 0.712688 0.580284 -0.712195
H18   H     H_    0.858149 0.772525 0.531142 0.348561
O11   O     O_3   0.871011 0.301364 0.399601 -0.686593
H19   H     H_    0.796004 0.338863 0.371122 0.333359
O12   O     O_3   0.128984 0.698640 0.600394 -0.686664
H20   H     H_    0.204002 0.661156 0.628866 0.333350
N11   N     N_3   0.624960 0.141701 0.639104 -0.425797
H21   H     H_    0.678707 0.221732 0.615764 0.240461
H22   H     H_    0.559588 0.173982 0.683885 0.206709
N12   N     N_3   0.375035 0.858299 0.360898 -0.425840
H23   H     H_    0.321287 0.778271 0.384239 0.240404
H24   H     H_    0.440404 0.826015 0.316115 0.206680
N13   N     N_3   0.377579 0.131835 0.360501 -0.421823
H25   H     H_    0.444617 0.164462 0.315945 0.207560
H26   H     H_    0.330128 0.212811 0.384609 0.258733
N14   N     N_3   0.622431 0.868167 0.639491 -0.421931
H27   H     H_    0.669871 0.787184 0.615379 0.258789
H28   H     H_    0.555395 0.835546 0.684051 0.207464

loop_
_geom_bond_atom_site_label_1
_geom_bond_atom_site_label_2
_ccdc_geom_bond_type
C2    O3    A    
C6    O10   S    
N7    H9    S    
O12   H20   S    
C13   N2    A    
O4    Zn2   S    
O2    Zn2   S    
C14   N14   S    
C14   N1    A    
N3    H1    S    
C6    C9    A    
C21   N5    S    
N13   H25   S    
C1    O1    A    
O7    Zn1   S    
C23   C29   A    
C3    C28   A    
C19   C21   A    
C24   C26   A    
O6    Zn2   S    
C7    O11   S    
C11   C14   A    
N12   H24   S    
N8    H12   S    
C13   N13   S    
N9    H14   S    
C3    C29   A    
C15   O5    A    
N5    H6    S    
C12   N12   S    
C5    O9    S    
C2    O2    A    
O8    Zn2   S    
O10   H18   S    
C18   N4    S    
N13   H26   S    
N6    H8    S    
C3    N9    S    
C15   C20   S    
N4    H4    S    
O9    H17   S    
C17   C27   A    
C18   C28   A    
N14   H27   S    
C5    C7    A    
N12   H23   S    
C6    C8    A    
C29   N7    S    
C25   C26   A    
N10   H16   S    
N11   H21   S    
C17   N3    S    
N11   H22   S    
N3    H2    S    
C20   C22   A    
C11   N2    A    
N7    H10   S    
C12   N1    A    
C22   C24   A    
C4    C27   A    
N6    H7    S    
C22   N6    S    
C7    C9    A    
N4    H3    S    
N1    Zn1   S    
C1    C10   S    
N14   H28   S    
C25   C27   A    
C4    N10   S    
C26   C28   A    
O1    Zn1   S    
N10   H15   S    
C21   C23   A    
N8    H11   S    
C5    C10   A    
C11   N11   S    
C16   C19   S    
C30   N8    S    
C8    O12   S    
C17   C19   A    
C18   C20   A    
C23   C25   A    
O5    Zn1   S    
N9    H13   S    
O3    Zn1   S    
C24   C30   A    
C15   O8    A    
C16   O7    A    
O11   H19   S    
C12   C13   A    
C8    C10   A    
N5    H5    S    
N2    Zn2   S    
C2    C9    S    
C4    C30   A    
C1    O4    A    
C16   O6    A    
