data_mof_unit_3404.cif
_audit_creation_date              2012-12-11T15:10:40-0500
_audit_creation_method            fapswitch 2.2
_symmetry_space_group_name_H-M    P1
_symmetry_Int_Tables_number       1
_space_group_crystal_system       triclinic
_cell_length_a                    21.115445
_cell_length_b                    7.236505
_cell_length_c                    18.26917
_cell_angle_alpha                 90.012724
_cell_angle_beta                  93.482644
_cell_angle_gamma                 90.003931
_cell_volume                      2786.41072466

loop_
_atom_site_label
_atom_site_type_symbol
_atom_type_description
_atom_site_fract_x
_atom_site_fract_y
_atom_site_fract_z
_atom_type_partial_charge
O1    O     O_R   0.448880 0.506250 0.415280 -0.527818
O2    O     O_R   0.551120 0.006250 0.584720 -0.527808
O3    O     O_R   0.434830 0.174000 0.557310 -0.521438
O4    O     O_R   0.565170 0.674000 0.442690 -0.521487
C1    C     C_R   0.417071 0.344554 0.579763 0.690502
C2    C     C_R   0.582928 0.844541 0.420235 0.690479
O5    O     O_R   0.441680 0.176440 0.414130 -0.534939
O6    O     O_R   0.558320 0.676440 0.585870 -0.534904
O7    O     O_R   0.558020 0.007570 0.440520 -0.519929
O8    O     O_R   0.441980 0.507570 0.559480 -0.519948
C3    C     C_R   0.428562 0.344891 0.387861 0.699100
C4    C     C_R   0.571437 0.844936 0.612136 0.699134
O9    O     O_3   0.538160 0.339670 0.508820 -0.363178
O10   O     O_3   0.461840 0.839670 0.491180 -0.363181
V1    V     V_3+5 0.492920 0.064260 0.498360 1.411705
V2    V     V_3+5 0.507080 0.564260 0.501640 1.411659
C5    C     C_R   0.875892 0.956285 0.687672 -0.162211
C6    C     C_R   0.124196 0.458129 0.312297 -0.162228
H1    H     H_    0.964262 0.984680 0.750799 0.106924
H2    H     H_    0.035837 0.486617 0.249170 0.106952
H3    H     H_    0.796098 0.938341 0.570413 0.123531
H4    H     H_    0.204017 0.440935 0.429547 0.123534
H5    H     H_    0.898300 0.973000 0.636257 0.114467
H6    H     H_    0.101828 0.475699 0.363697 0.114470
C7    C     C_R   0.886601 0.940589 0.820113 -0.039050
C8    C     C_R   0.113410 0.440827 0.179886 -0.039108
C9    C     C_R   0.578606 0.834755 0.749370 0.074940
C10   C     C_R   0.421341 0.333537 0.250638 0.075038
C11   C     C_R   0.614626 0.843294 0.816819 0.198260
C12   C     C_R   0.385304 0.341669 0.183193 0.198156
C13   C     C_R   0.680253 0.866394 0.818818 -0.211438
C14   C     C_R   0.319696 0.365216 0.181193 -0.211410
C15   C     C_R   0.713110 0.883512 0.754293 0.039268
C16   C     C_R   0.286877 0.383255 0.245710 0.039279
C17   C     C_R   0.676926 0.877536 0.685532 0.038401
C18   C     C_R   0.323085 0.377815 0.314462 0.038372
C19   C     C_R   0.780771 0.908066 0.755940 0.097329
C20   C     C_R   0.219236 0.408245 0.244059 0.097325
C21   C     C_R   0.810103 0.929013 0.688459 0.137653
C22   C     C_R   0.189955 0.430273 0.311522 0.137661
C23   C     C_R   0.773774 0.922946 0.621955 -0.198844
C24   C     C_R   0.226306 0.424732 0.378017 -0.198855
C25   C     C_R   0.708513 0.897019 0.620368 -0.164313
C26   C     C_R   0.291542 0.398301 0.379613 -0.164364
C27   C     C_R   0.820698 0.912949 0.821836 -0.207546
C28   C     C_R   0.179283 0.412564 0.178178 -0.207554
C29   C     C_R   0.913632 0.962865 0.752845 -0.167074
C30   C     C_R   0.086437 0.464253 0.247133 -0.167045
C31   C     C_R   0.609823 0.852442 0.683103 -0.135601
C32   C     C_R   0.390166 0.352204 0.316896 -0.135506
H7    H     H_    0.802407 0.896218 0.875211 0.101441
H8    H     H_    0.197535 0.394988 0.124822 0.101491
H9    H     H_    0.704225 0.872035 0.872441 0.147636
H10   H     H_    0.295712 0.370496 0.127569 0.147639
H11   H     H_    0.682951 0.893179 0.567199 0.105445
H12   H     H_    0.317120 0.394894 0.432777 0.105540
C33   C     C_1   0.864457 0.938931 0.132026 -0.200770
C34   C     C_1   0.135541 0.438899 0.867973 -0.200761
C35   C     C_1   0.821544 0.924827 0.175712 0.008940
C36   C     C_1   0.178454 0.424801 0.824288 0.008945
C37   C     C_1   0.770916 0.905631 0.227751 0.009776
C38   C     C_1   0.229083 0.405622 0.772248 0.009798
C39   C     C_1   0.728319 0.888945 0.271708 0.007308
C40   C     C_1   0.271680 0.388952 0.728291 0.007328
C41   C     C_1   0.677792 0.869805 0.323864 0.004263
C42   C     C_1   0.322208 0.369831 0.676134 0.004175
C43   C     C_1   0.635035 0.855802 0.367736 -0.207039
C44   C     C_1   0.364965 0.355834 0.632262 -0.207050
O11   O     O_R   0.058070 0.289240 0.940580 -0.520042
O12   O     O_R   0.941930 0.789240 0.059420 -0.520031
O13   O     O_R   0.058330 0.616740 0.085880 -0.531807
O14   O     O_R   0.941670 0.116740 0.914120 -0.531797
C45   C     C_R   0.072149 0.448624 0.111672 0.685932
C46   C     C_R   0.927853 0.948580 0.888330 0.685939
O15   O     O_R   0.065180 0.619040 0.942700 -0.521844
O16   O     O_R   0.934820 0.119040 0.057300 -0.521853
O17   O     O_R   0.948870 0.787780 0.915270 -0.529683
O18   O     O_R   0.051130 0.287780 0.084730 -0.529680
C47   C     C_R   0.083212 0.450315 0.920218 0.705376
C48   C     C_R   0.916787 0.950328 0.079782 0.705344
O19   O     O_3   0.961870 0.453310 0.991210 -0.364830
O20   O     O_3   0.038130 0.953310 0.008790 -0.364835
V3    V     V_3+5 0.007070 0.728770 0.001630 1.426374
V4    V     V_3+5 0.992930 0.228770 0.998370 1.426347
C49   C     C_3   0.506967 0.811206 0.748536 -0.349329
C50   C     C_3   0.473840 0.998050 0.753029 -0.678391
H13   H     H_    0.489182 0.070177 0.804743 0.254664
H14   H     H_    0.485009 0.086442 0.705873 0.218332
H15   H     H_    0.421681 0.977244 0.751717 0.217067
H16   H     H_    0.488113 0.737962 0.698502 0.170658
H17   H     H_    0.493528 0.722015 0.794448 0.215809
C51   C     C_3   0.492958 0.309425 0.251467 -0.349571
C52   C     C_3   0.526256 0.495963 0.246835 -0.678661
H18   H     H_    0.510806 0.568134 0.195181 0.254725
H19   H     H_    0.515369 0.584470 0.294079 0.218316
H20   H     H_    0.578380 0.474676 0.247879 0.217199
H21   H     H_    0.511753 0.236300 0.301540 0.170872
H22   H     H_    0.506299 0.219859 0.205610 0.215855
I1    I     I_    0.573721 0.824853 0.920338 -0.353975
I2    I     I_    0.426157 0.321976 0.079673 -0.353945

loop_
_geom_bond_atom_site_label_1
_geom_bond_atom_site_label_2
_ccdc_geom_bond_type
C42   C44   T    
C39   C41   S    
C52   H18   S    
C28   H8    S    
C9    C11   A    
O14   C46   A    
O1    C3    A    
O2    C4    A    
O16   V4    S    
C2    O7    A    
C4    C31   S    
C49   H17   S    
C51   H22   S    
C21   C23   A    
C49   C50   S    
O5    C3    A    
C5    H5    S    
C6    H6    S    
H1    C29   S    
C33   C35   T    
O17   V3    S    
C34   C36   T    
C12   I2    S    
C8    C45   S    
C36   C38   S    
C7    C46   S    
C5    C21   A    
C9    C49   S    
C6    C22   A    
C38   C40   T    
C10   C32   A    
C41   C43   T    
C46   O17   A    
C17   C31   A    
C45   O18   A    
C13   C15   A    
C12   C14   A    
C17   C25   A    
C7    C29   A    
C16   C18   A    
C8    C30   A    
O5    V1    S    
O6    V2    S    
C11   C13   A    
C23   C25   A    
C33   C48   S    
C24   C26   A    
C1    C44   S    
C14   H10   S    
C51   H21   S    
O13   V3    S    
C35   C37   S    
C11   I1    S    
O12   C48   A    
O16   C48   A    
O4    C2    A    
O13   C45   A    
C50   H13   S    
C15   C19   A    
C14   C16   A    
O4    V2    S    
O12   V3    S    
C26   H12   S    
O6    C4    A    
C37   C39   T    
C10   C51   S    
O1    V2    S    
O14   V4    S    
C13   H9    S    
O2    V1    S    
H2    C30   S    
C34   C47   S    
H3    C23   S    
C25   H11   S    
C2    C43   S    
C52   H20   S    
O11   C47   A    
C19   C27   A    
C7    C27   A    
O19   V4    S    
C18   C32   A    
C16   C20   A    
C5    C29   A    
O3    C1    A    
C50   H15   S    
C6    C30   A    
C49   H16   S    
C10   C12   A    
O7    V1    S    
C1    O8    A    
C19   C21   A    
O11   V4    S    
O8    V2    S    
C20   C22   A    
O15   V3    S    
H4    C24   S    
C22   C24   A    
C51   C52   S    
C15   C17   A    
C50   H14   S    
C20   C28   A    
C18   C26   A    
C8    C28   A    
O18   V4    S    
C52   H19   S    
O20   V3    S    
O9    V2    S    
C3    C32   S    
C27   H7    S    
O10   V1    S    
O3    V1    S    
O15   C47   A    
C9    C31   A    
C40   C42   S    
