data_mof_unit_2737.cif
_audit_creation_date              2012-12-10T17:09:27-0500
_audit_creation_method            fapswitch 2.2
_symmetry_space_group_name_H-M    P1
_symmetry_Int_Tables_number       1
_space_group_crystal_system       triclinic
_cell_length_a                    10.508703
_cell_length_b                    10.639436
_cell_length_c                    10.048702
_cell_angle_alpha                 91.166006
_cell_angle_beta                  89.501243
_cell_angle_gamma                 90.281525
_cell_volume                      1123.22413238

loop_
_atom_site_label
_atom_site_type_symbol
_atom_type_description
_atom_site_fract_x
_atom_site_fract_y
_atom_site_fract_z
_atom_type_partial_charge
C1    C     C_R   0.500569 0.262318 0.498605 0.939597
C2    C     C_3   0.961179 0.502272 0.372683 -0.117145
C3    C     C_3   0.042000 0.397132 0.433496 -0.215902
C4    C     C_3   0.122348 0.499346 0.502470 -0.033200
C5    C     C_2   0.424267 0.932274 0.396515 0.272367
C6    C     C_2   0.457184 0.868013 0.505118 -0.440776
C7    C     C_2   0.423801 0.069302 0.407490 -0.190867
C8    C     C_2   0.499654 0.129254 0.494113 -0.373373
C9    C     C_2   0.567151 0.578592 0.927956 0.164810
C10   C     C_2   0.585387 0.556015 0.075044 -0.122621
C11   C     C_R   0.257419 0.499442 0.500755 0.853334
C12   C     C_R   0.488269 0.737064 0.501123 0.931393
C13   C     C_R   0.742411 0.500542 0.499347 0.874845
C14   C     C_3   0.035984 0.497635 0.624558 0.298325
C15   C     C_3   0.954742 0.394804 0.558480 -0.234268
C16   C     C_3   0.877126 0.500571 0.498031 -0.004895
C17   C     C_3   0.956636 0.603476 0.566971 -0.189385
C18   C     C_3   0.043844 0.604490 0.441899 -0.213920
H1    H     H_    0.914300 0.310550 0.607055 0.136830
H2    H     H_    0.563323 0.082241 0.561118 0.141735
H3    H     H_    0.468765 0.420467 0.895767 0.146506
H4    H     H_    0.667917 0.594960 0.125070 0.181259
H5    H     H_    0.418307 0.474057 0.101832 0.160028
H6    H     H_    0.917427 0.686803 0.621219 0.129158
H7    H     H_    0.084585 0.689107 0.394263 0.136054
H8    H     H_    0.925919 0.504323 0.268896 0.141511
H9    H     H_    0.081131 0.313823 0.379155 0.141016
H10   H     H_    0.462389 0.913294 0.602756 0.140538
H11   H     H_    0.363920 0.122246 0.341311 0.164532
N1    N     N_2   0.501360 0.501330 0.852150 -0.224534
N2    N     N_2   0.501400 0.501360 0.147810 -0.213255
O1    O     O_R   0.499980 0.319060 0.613040 -0.617249
O2    O     O_R   0.500020 0.319100 0.386900 -0.604071
O3    O     O_R   0.313930 0.499950 0.613050 -0.616189
O4    O     O_R   0.313970 0.499990 0.386910 -0.625187
O5    O     O_R   0.499980 0.680900 0.613100 -0.641936
O6    O     O_R   0.500020 0.680940 0.386960 -0.583319
O7    O     O_R   0.686030 0.500010 0.613090 -0.632706
O8    O     O_R   0.686070 0.500050 0.386950 -0.621452
Zn1   Zn    Zn3+2 0.499970 0.499970 0.650990 0.916831
Zn2   Zn    Zn3+2 0.500030 0.500030 0.349010 0.936063
C19   C     C_3   0.624798 0.695937 0.867611 -0.302233
C20   C     C_3   0.705157 0.778604 0.961153 -1.000307
H12   H     H_    0.647738 0.811066 0.048504 0.288007
H13   H     H_    0.790184 0.726949 0.994753 0.260224
H14   H     H_    0.738593 0.862815 0.907209 0.260742
H15   H     H_    0.685830 0.669258 0.781408 0.238238
H16   H     H_    0.545557 0.755580 0.833881 0.223348
N3    N     N_2   0.080003 0.493539 0.760547 -0.290895
H17   H     H_    0.137642 0.417435 0.777250 0.231343
C21   C     C_3   0.981454 0.508709 0.860758 -0.811317
H18   H     H_    0.024597 0.507978 0.961218 0.234871
H19   H     H_    0.911017 0.430726 0.852698 0.241684
H20   H     H_    0.932473 0.599934 0.849271 0.251608
N4    N     N_2   0.390817 0.868987 0.274242 -0.265371
H21   H     H_    0.319618 0.802445 0.282877 0.229557
C22   C     C_3   0.388427 0.939082 0.152379 -0.802099
H22   H     H_    0.382194 0.872459 0.066139 0.243894
H23   H     H_    0.477184 0.995242 0.141349 0.254184
H24   H     H_    0.304055 0.001493 0.151615 0.224039

loop_
_geom_bond_atom_site_label_1
_geom_bond_atom_site_label_2
_ccdc_geom_bond_type
C22   H23   S    
C15   H1    S    
C20   H12   S    
C7    H11   S    
C12   O5    A    
C1    C8    S    
C2    C16   S    
C9    C10   S    
C11   O3    A    
N4    H21   S    
C21   H20   S    
O2    Zn2   S    
C3    H9    S    
C17   C18   S    
C9    C19   S    
N1    Zn1   S    
C7    C8    D    
O8    Zn2   S    
C19   H16   S    
C10   H4    S    
C4    C11   S    
O7    Zn1   S    
C20   H13   S    
C14   C17   S    
C22   H22   S    
C8    H2    S    
C18   H7    S    
C9    N1    D    
O6    Zn2   S    
O3    Zn1   S    
C10   N2    D    
C6    C12   S    
C11   O4    A    
C13   O7    A    
C2    C3    S    
C19   H15   S    
N4    C22   S    
C4    C14   S    
C5    C6    D    
O4    Zn2   S    
C20   H14   S    
C13   O8    A    
C14   N3    S    
C2    C18   S    
C19   C20   S    
C1    O2    A    
C15   C16   S    
C17   H6    S    
O5    Zn1   S    
O1    Zn1   S    
C3    C15   S    
C2    H8    S    
N3    H17   S    
H3    N1    S    
C13   C16   S    
C12   O6    A    
C5    C7    S    
C14   C15   S    
C22   H24   S    
N2    Zn2   S    
N3    C21   S    
C4    C18   S    
C5    N4    S    
C1    O1    A    
C6    H10   S    
C3    C4    S    
C21   H18   S    
C16   C17   S    
C21   H19   S    
H5    N2    S    
