data_mof_unit_3807.cif
_audit_creation_date              2012-12-11T17:39:36-0500
_audit_creation_method            fapswitch 2.2
_symmetry_space_group_name_H-M    P1
_symmetry_Int_Tables_number       1
_space_group_crystal_system       triclinic
_cell_length_a                    15.219311
_cell_length_b                    15.11486
_cell_length_c                    15.304185
_cell_angle_alpha                 108.812179
_cell_angle_beta                  110.958268
_cell_angle_gamma                 109.672626
_cell_volume                      2674.41826819

loop_
_atom_site_label
_atom_site_type_symbol
_atom_type_description
_atom_site_fract_x
_atom_site_fract_y
_atom_site_fract_z
_atom_type_partial_charge
C1    C     C_R   0.910401 0.953867 0.721333 -0.139874
C2    C     C_R   0.908227 0.698692 0.497584 -0.145324
C3    C     C_R   0.736970 0.778584 0.187335 -0.133984
C4    C     C_R   0.090254 0.315079 0.550549 0.154514
C5    C     C_R   0.270859 0.957112 0.549416 -0.150833
C6    C     C_R   0.699324 0.676580 0.176788 0.126504
C7    C     C_R   0.309283 0.987376 0.488306 0.064479
C8    C     C_R   0.998660 0.692624 0.550544 0.058352
C9    C     C_R   0.994867 0.046080 0.192108 0.047186
C10   C     C_R   0.464716 0.606458 0.268687 -0.099738
C11   C     C_R   0.456699 0.699690 0.292685 -0.140254
C12   C     C_R   0.998558 0.322226 0.543945 0.005199
C13   C     C_R   0.450358 0.748409 0.383770 0.120383
C14   C     C_R   0.449315 0.700712 0.448713 -0.171746
C15   C     C_R   0.458200 0.607786 0.424720 -0.125558
C16   C     C_R   0.297846 0.209973 0.802170 -0.155843
C17   C     C_R   0.465718 0.560607 0.334773 -0.087541
C18   C     C_R   0.380396 0.871098 0.436741 -0.251553
C19   C     C_R   0.392049 0.974362 0.473589 0.066952
C20   C     C_R   0.480862 0.063868 0.492508 0.002422
C21   C     C_R   0.554868 0.047257 0.469677 -0.238408
C22   C     C_R   0.545906 0.945696 0.436352 0.062290
C23   C     C_R   0.362376 0.300248 0.804617 0.145363
C24   C     C_R   0.458346 0.855795 0.418261 0.018429
C25   C     C_R   0.491103 0.234342 0.496466 -0.182699
C26   C     C_R   0.529478 0.345451 0.554200 -0.117485
C27   C     C_R   0.589141 0.401588 0.667404 -0.110514
C28   C     C_R   0.699059 0.998418 0.406697 -0.180420
C29   C     C_R   0.609144 0.346299 0.722868 -0.101649
C30   C     C_R   0.568528 0.234716 0.665416 -0.131941
C31   C     C_R   0.509717 0.178139 0.551782 0.136051
C32   C     C_R   0.695805 0.132804 0.222776 -0.161435
C33   C     C_R   0.790585 0.233923 0.302356 -0.130874
C34   C     C_R   0.640879 0.944966 0.441817 0.061943
C35   C     C_R   0.790802 0.305453 0.388294 0.118864
C36   C     C_R   0.692222 0.279189 0.386833 -0.179004
C37   C     C_R   0.596296 0.180824 0.303309 -0.122329
C38   C     C_R   0.598452 0.107001 0.222330 -0.108411
C39   C     C_R   0.899214 0.501614 0.486164 -0.251679
C40   C     C_R   0.303250 0.298436 0.711025 -0.123795
C41   C     C_R   0.992226 0.602367 0.567572 0.056272
C42   C     C_R   0.075461 0.611317 0.656067 0.041389
C43   C     C_R   0.070718 0.516397 0.651361 -0.270146
C44   C     C_R   0.984563 0.415271 0.560835 0.078882
C45   C     C_R   0.733429 0.686406 0.277748 -0.137657
C46   C     C_R   0.893044 0.407527 0.481168 0.016782
C47   C     C_R   0.270357 0.748698 0.747259 -0.258494
C48   C     C_R   0.349218 0.858665 0.801284 -0.197172
C49   C     C_R   0.336313 0.938231 0.864657 0.215430
C50   C     C_R   0.247149 0.905248 0.879189 -0.238633
C51   C     C_R   0.162582 0.795892 0.818315 0.150494
C52   C     C_R   0.700366 0.912275 0.501272 -0.113783
C53   C     C_R   0.172305 0.717709 0.747066 0.081019
C54   C     C_2   0.538790 0.460455 0.886693 -0.146831
C55   C     C_2   0.477099 0.372743 0.885580 -0.200367
C56   C     C_R   0.266845 0.045931 0.455160 -0.108435
C57   C     C_2   0.631134 0.554982 0.990281 -0.131004
C58   C     C_2   0.621835 0.576583 0.077248 -0.193517
C59   C     C_R   0.398106 0.263868 0.131491 -0.141012
C60   C     C_R   0.295737 0.190907 0.107039 -0.190503
C61   C     C_R   0.202478 0.193515 0.047917 0.117398
C62   C     C_R   0.213103 0.270900 0.014646 -0.130237
C63   C     C_R   0.315892 0.343389 0.038693 -0.098997
C64   C     C_R   0.911528 0.218457 0.485785 -0.166861
C65   C     C_R   0.408131 0.339754 0.097146 -0.137409
C66   C     C_R   0.084533 0.126401 0.112511 -0.245685
C67   C     C_R   0.090431 0.785899 0.582827 -0.132240
C68   C     C_R   0.990002 0.050049 0.098165 0.080413
C69   C     C_R   0.902018 0.965274 0.993737 0.046582
C70   C     C_R   0.916450 0.949838 0.908481 -0.279509
C71   C     C_R   0.008767 0.027184 0.921295 0.057553
C72   C     C_R   0.095568 0.116255 0.024749 0.020577
C73   C     C_R   0.737109 0.797442 0.936141 -0.207559
C74   C     C_R   0.627549 0.741700 0.905439 -0.139508
C75   C     C_R   0.570066 0.796163 0.909024 -0.113291
C76   C     C_R   0.094789 0.038353 0.811293 -0.138938
C77   C     C_R   0.619338 0.904541 0.935223 -0.201402
C78   C     C_R   0.906650 0.996049 0.199687 -0.155968
C79   C     C_R   0.725813 0.959358 0.956507 0.153919
C80   C     C_R   0.787662 0.907218 0.964706 0.073508
C81   C     C_R   0.005928 0.012243 0.823147 0.059019
C82   C     C_3   0.189831 0.398578 0.563378 -0.458651
C83   C     C_3   0.158043 0.430688 0.476187 -0.227572
C84   C     C_3   0.258013 0.497727 0.475611 -0.953864
C85   C     C_3   0.401766 0.056002 0.897926 -0.472724
C86   C     C_3   0.525517 0.104451 0.957384 -0.259884
C87   C     C_3   0.585932 0.226667 0.001045 -0.917645
C88   C     C_3   0.059930 0.767067 0.823890 -0.437693
C89   C     C_R   0.089414 0.084800 0.287673 -0.131902
C90   C     C_3   0.047353 0.697331 0.877287 -0.230381
C91   C     C_3   0.945820 0.672151 0.885899 -0.931997
C92   C     C_3   0.767893 0.067284 0.959220 -0.443235
C93   C     C_3   0.825903 0.164467 0.072813 -0.266661
C94   C     C_3   0.895435 0.270462 0.081432 -0.909337
H1    H     H_    0.826116 0.918132 0.700235 0.095134
H2    H     H_    0.472548 0.571379 0.200176 0.102979
H3    H     H_    0.458828 0.735892 0.242288 0.109103
H4    H     H_    0.446696 0.738177 0.520462 0.116232
H5    H     H_    0.461779 0.573681 0.477226 0.115145
H6    H     H_    0.311003 0.803223 0.422482 0.135657
H7    H     H_    0.626043 0.116986 0.488408 0.142878
H8    H     H_    0.446518 0.192027 0.408923 0.097350
H9    H     H_    0.514326 0.388287 0.511227 0.102663
H10   H     H_    0.620442 0.487984 0.712142 0.099034
H11   H     H_    0.657240 0.390074 0.810456 0.122769
H12   H     H_    0.282079 0.082407 0.408244 0.096764
H13   H     H_    0.585838 0.193103 0.709301 0.108002
H14   H     H_    0.524844 0.029422 0.159577 0.110123
H15   H     H_    0.323236 0.183466 0.858699 0.111291
H16   H     H_    0.697512 0.073719 0.161605 0.109020
H17   H     H_    0.865484 0.253420 0.301527 0.107617
H18   H     H_    0.690169 0.334151 0.451220 0.126778
H19   H     H_    0.520574 0.160645 0.302080 0.107257
H20   H     H_    0.833392 0.494335 0.419643 0.132631
H21   H     H_    0.137336 0.521477 0.714981 0.131596
H22   H     H_    0.278356 0.689700 0.692616 0.145572
H23   H     H_    0.174860 0.811890 0.629899 0.123610
H24   H     H_    0.414077 0.881324 0.784532 0.122867
H25   H     H_    0.238377 0.966121 0.930452 0.114940
H26   H     H_    0.670719 0.024851 0.350250 0.129040
H27   H     H_    0.513485 0.469786 0.816104 0.123554
H28   H     H_    0.507164 0.362586 0.955271 0.143408
H29   H     H_    0.699628 0.612705 0.993190 0.129756
H30   H     H_    0.551407 0.523169 0.074703 0.123536
H31   H     H_    0.487866 0.396119 0.117094 0.091952
H32   H     H_    0.469656 0.261455 0.176847 0.129091
H33   H     H_    0.288871 0.131948 0.133702 0.113894
H34   H     H_    0.823045 0.973525 0.150964 0.111551
H35   H     H_    0.142101 0.274377 0.969773 0.111932
H36   H     H_    0.324128 0.402420 0.012170 0.109279
H37   H     H_    0.337269 0.347917 0.681542 0.089074
H38   H     H_    0.151408 0.193116 0.192609 0.130740
H39   H     H_    0.850475 0.879645 0.830043 0.136949
H40   H     H_    0.782051 0.755071 0.936386 0.125109
H41   H     H_    0.586921 0.656542 0.879537 0.117935
H42   H     H_    0.486340 0.753626 0.888888 0.125371
H43   H     H_    0.573434 0.944654 0.936573 0.112684
H44   H     H_    0.674583 0.861757 0.533770 0.103542
H45   H     H_    0.173356 0.136845 0.313672 0.088543
H46   H     H_    0.829985 0.194294 0.469723 0.139050
H47   H     H_    0.179702 0.074036 0.870326 0.110731
H48   H     H_    0.713202 0.622046 0.296693 0.096035
H49   H     H_    0.319433 0.572369 0.556125 0.258638
H50   H     H_    0.295355 0.448645 0.455054 0.258576
H51   H     H_    0.233024 0.521903 0.413762 0.262298
H52   H     H_    0.098735 0.356283 0.394870 0.197104
H53   H     H_    0.119137 0.479544 0.490689 0.209273
H54   H     H_    0.240344 0.471109 0.645842 0.179145
H55   H     H_    0.239117 0.361557 0.551217 0.191611
H56   H     H_    0.825064 0.647539 0.474576 0.091650
H57   H     H_    0.568752 0.242113 0.932360 0.260334
H58   H     H_    0.560849 0.268024 0.053240 0.259333
H59   H     H_    0.675426 0.261721 0.050212 0.258623
H60   H     H_    0.551466 0.088593 0.025125 0.210098
H61   H     H_    0.547427 0.066975 0.899826 0.186736
H62   H     H_    0.376132 0.061049 0.822851 0.189316
H63   H     H_    0.382318 0.105621 0.950736 0.200249
H64   H     H_    0.952312 0.748682 0.936191 0.263313
H65   H     H_    0.871005 0.626854 0.804122 0.261420
H66   H     H_    0.938300 0.621344 0.924470 0.251040
H67   H     H_    0.718765 0.798392 0.123801 0.123994
H68   H     H_    0.039996 0.619471 0.829136 0.204262
H69   H     H_    0.120800 0.741463 0.959918 0.196508
H70   H     H_    0.062478 0.842219 0.871358 0.198097
H71   H     H_    0.986800 0.723874 0.741477 0.195430
H72   H     H_    0.961995 0.267962 0.068284 0.266936
H73   H     H_    0.843952 0.284008 0.020475 0.262509
H74   H     H_    0.932943 0.339455 0.163547 0.247374
H75   H     H_    0.763483 0.171185 0.090436 0.203818
H76   H     H_    0.879192 0.153503 0.134874 0.200107
H77   H     H_    0.823797 0.075523 0.927764 0.210391
H78   H     H_    0.293747 0.916164 0.591830 0.099365
H79   H     H_    0.699106 0.068873 0.902457 0.174884
H80   H     H_    0.473647 0.489361 0.317193 0.114014
N1    N     N_R   0.941940 0.944580 0.650780 -0.040197
N2    N     N_R   0.204460 0.150250 0.707090 -0.042662
N3    N     N_R   0.794270 0.003240 0.446420 -0.037444
N4    N     N_R   0.204920 0.207570 0.650770 -0.048981
N5    N     N_R   0.793810 0.945920 0.502740 -0.040367
N6    N     N_R   0.943620 0.152590 0.446420 -0.052429
N7    N     N_R   0.055110 0.000900 0.707100 -0.038506
N8    N     N_R   0.795080 0.792430 0.349230 -0.039706
N9    N     N_R   0.206190 0.054080 0.497260 -0.041443
N10   N     N_R   0.056380 0.847410 0.553580 -0.040972
N11   N     N_R   0.944890 0.999100 0.292900 -0.037514
N12   N     N_R   0.058060 0.055420 0.349220 -0.039579
N13   N     N_R   0.943200 0.791100 0.497260 -0.036479
N14   N     N_R   0.795540 0.849750 0.292910 -0.043324
N15   N     N_R   0.205730 0.996760 0.553580 -0.039803
N16   N     N_R   0.056800 0.208900 0.502740 -0.061641
Ni1   Ni    Ni4+2 0.869690 0.869690 0.500000 0.213770
Ni2   Ni    Ni4+2 0.130310 0.130310 0.500000 0.204966
Ni3   Ni    Ni4+2 0.129250 0.998840 0.629170 0.208818
Ni4   Ni    Ni4+2 0.870750 0.001160 0.370830 0.208710

loop_
_geom_bond_atom_site_label_1
_geom_bond_atom_site_label_2
_ccdc_geom_bond_type
C2    H56   S    
C66   C68   A    
C63   C65   A    
C25   C31   A    
C93   C94   S    
C6    C45   A    
C30   H13   S    
C27   C29   A    
C89   N12   A    
C6    C58   S    
C35   C36   A    
N11   Ni4   S    
C86   H61   S    
C3    C6    A    
C78   H34   S    
C3    N14   A    
C94   H72   S    
N11   N12   A    
C39   C41   A    
C84   H51   S    
C59   H32   S    
C93   H75   S    
C26   C27   A    
C37   C38   A    
C32   H16   S    
C90   H68   S    
C18   C24   A    
C36   C37   A    
C77   H43   S    
C76   C81   A    
C42   C53   S    
N1    Ni1   S    
C30   C31   A    
C64   N6    A    
C25   H8    S    
C37   H19   S    
C84   H50   S    
C92   H77   S    
C1    C81   A    
C23   C40   A    
C27   H10   S    
C18   C19   A    
C41   C42   A    
C63   H36   S    
C75   C77   A    
C2    N13   A    
C91   H64   S    
C43   H21   S    
C5    H78   S    
C66   C72   A    
C83   C84   S    
C68   C69   A    
N3    N5    A    
C36   H18   S    
C70   H39   S    
C52   H44   S    
C87   H59   S    
C70   C71   A    
C33   H17   S    
C32   C38   A    
N2    Ni3   S    
C4    C12   A    
C29   C30   A    
N7    Ni3   S    
C28   N3    A    
C91   H65   S    
C90   C91   S    
C47   C53   A    
C21   H7    S    
C76   H47   S    
C16   N2    A    
N2    N4    A    
C55   H28   S    
C28   C34   A    
C59   C60   A    
C87   H57   S    
C13   C14   A    
N9    Ni2   S    
C38   H14   S    
C62   H35   S    
C29   H11   S    
C61   C62   A    
C18   H6    S    
C7    C56   A    
N9    N15   A    
C44   C46   A    
C16   H15   S    
C14   H4    S    
C66   H38   S    
C77   C79   A    
C73   C74   A    
C47   H22   S    
C22   C34   S    
C93   H76   S    
N3    Ni4   S    
C50   H25   S    
C4    N16   A    
C8    C41   S    
C28   H26   S    
C94   H74   S    
C67   N10   A    
C5    C7    A    
C75   H42   S    
C48   H24   S    
C84   H49   S    
C89   H45   S    
C25   C26   A    
C88   H70   S    
C82   C83   S    
C13   C24   S    
C60   C61   A    
C51   C53   A    
C85   H62   S    
C65   H31   S    
C51   C88   S    
C43   C44   A    
C62   C63   A    
C49   C85   S    
C26   H9    S    
C57   H29   S    
C83   H52   S    
N4    Ni2   S    
C45   N8    A    
C47   C48   A    
C10   H2    S    
C1    H1    S    
C39   H20   S    
C74   H41   S    
C50   C51   A    
C91   H66   S    
C4    C82   S    
C78   N11   A    
N8    N14   A    
C73   H40   S    
C67   H23   S    
C56   H12   S    
C79   C92   S    
C39   C46   A    
C83   H53   S    
C61   C72   S    
C48   C49   A    
C54   H27   S    
C88   C90   S    
C88   H71   S    
C16   C23   A    
C7    C19   S    
C87   H58   S    
C45   H48   S    
C40   N4    A    
C42   C43   A    
C9    C89   A    
C76   N7    A    
C74   C75   A    
N6    Ni4   S    
C17   H80   S    
C64   H46   S    
C15   C17   A    
C54   C55   D    
C1    N1    A    
N16   Ni2   S    
C86   C87   S    
N13   Ni1   S    
C40   H37   S    
C60   H33   S    
C2    C8    A    
C15   H5    S    
C58   H30   S    
C85   C86   S    
C94   H73   S    
C82   H54   S    
C23   C55   S    
C56   N9    A    
C92   H79   S    
C34   C52   A    
N10   N13   A    
N1    N7    A    
C90   H69   S    
C11   H3    S    
C32   C33   A    
C19   C20   A    
C86   H60   S    
C9    C68   S    
C5    N15   A    
C71   C72   A    
C12   C44   S    
N6    N16   A    
C59   C65   A    
C11   C13   A    
C57   C58   D    
C12   C64   A    
C92   C93   S    
C33   C35   A    
C73   C80   A    
C22   C24   A    
C9    C78   A    
N12   Ni2   S    
C69   C70   A    
C52   N5    A    
C82   H55   S    
C10   C11   A    
C3    H67   S    
N14   Ni4   S    
C79   C80   A    
N15   Ni3   S    
N5    Ni1   S    
C20   C21   A    
C8    C67   A    
C49   C50   A    
N8    Ni1   S    
C85   H63   S    
C14   C15   A    
C69   C80   S    
C10   C17   A    
C21   C22   A    
C35   C46   S    
C54   C57   S    
N10   Ni3   S    
C71   C81   S    
C20   C31   S    
