data_mof_unit_1536.cif
_audit_creation_date              2012-12-10T17:37:45-0500
_audit_creation_method            fapswitch 2.2
_symmetry_space_group_name_H-M    P1
_symmetry_Int_Tables_number       1
_space_group_crystal_system       triclinic
_cell_length_a                    12.319901
_cell_length_b                    13.030708
_cell_length_c                    17.219229
_cell_angle_alpha                 103.979177
_cell_angle_beta                  76.159924
_cell_angle_gamma                 116.460903
_cell_volume                      2373.73440144

loop_
_atom_site_label
_atom_site_type_symbol
_atom_type_description
_atom_site_fract_x
_atom_site_fract_y
_atom_site_fract_z
_atom_type_partial_charge
C1    C     C_R   0.144375 0.714297 0.508334 0.758365
C2    C     C_R   0.959410 0.599105 0.793486 -0.374274
C3    C     C_R   0.983723 0.588247 0.165603 0.540968
C4    C     C_R   0.988965 0.587811 0.245486 -0.335100
C5    C     C_R   0.053946 0.429611 0.202100 -0.186793
C6    C     C_R   0.052168 0.431561 0.122028 -0.238560
C7    C     C_R   0.018411 0.511172 0.103388 0.099130
C8    C     C_2   0.068127 0.599350 0.980799 0.609264
C9    C     C_2   0.012180 0.506205 0.018860 -0.321759
C10   C     C_R   0.020398 0.506491 0.264071 -0.083400
C11   C     C_R   0.728730 0.979974 0.389342 0.504391
C12   C     C_R   0.990360 0.504970 0.652020 0.808940
C13   C     C_R   0.774830 0.162048 0.481632 -0.190941
C14   C     C_R   0.184498 0.917294 0.571167 -0.205098
C15   C     C_R   0.265570 0.031430 0.592280 -0.196019
C16   C     C_R   0.390365 0.066798 0.563421 -0.144648
C17   C     C_R   0.436201 0.989213 0.510072 0.113520
C18   C     C_R   0.351196 0.878160 0.480108 0.057534
C19   C     C_R   0.563810 0.020988 0.483103 -0.068247
C20   C     C_R   0.603027 0.948423 0.417949 -0.012977
C21   C     C_R   0.516284 0.844828 0.383191 -0.181753
C22   C     C_R   0.392572 0.810141 0.413762 -0.223315
C23   C     C_R   0.855829 0.285944 0.492205 0.823211
C24   C     C_R   0.652654 0.119364 0.522903 0.411579
C25   C     C_R   0.812516 0.089917 0.417526 -0.341334
C26   C     C_R   0.226527 0.838761 0.516869 -0.108004
C27   C     C_R   0.640297 0.668124 0.634533 -0.271000
C28   C     C_R   0.240699 0.342159 0.397230 -0.004837
C29   C     C_R   0.324334 0.293299 0.386741 0.413552
C30   C     C_R   0.424758 0.350168 0.428849 -0.245764
C31   C     C_R   0.442123 0.455879 0.481660 -0.073636
C32   C     C_R   0.345671 0.493107 0.497745 0.212888
C33   C     C_R   0.547319 0.521626 0.522762 -0.170020
C34   C     C_R   0.013147 0.499823 0.348414 0.822160
C35   C     C_R   0.543280 0.609925 0.588947 0.018811
C36   C     C_R   0.443544 0.640570 0.608171 0.391167
C37   C     C_R   0.347518 0.582845 0.562617 -0.210339
C38   C     C_R   0.659346 0.507085 0.499334 0.650151
C39   C     C_R   0.741549 0.641156 0.613692 -0.062647
C40   C     C_R   0.000362 0.521229 0.737403 -0.198857
C41   C     C_R   0.063950 0.469987 0.761695 0.543244
C42   C     C_R   0.089910 0.501103 0.840256 -0.362888
C43   C     C_R   0.050577 0.579854 0.895881 -0.145352
C44   C     C_R   0.986778 0.631500 0.873019 0.540228
Cu1   Cu    Cu3+1 0.900140 0.524980 0.518800 0.951888
Cu2   Cu    Cu3+1 0.099860 0.475020 0.481200 0.941117
H1    H     H_    0.076672 0.370606 0.074443 0.154195
H2    H     H_    0.906645 0.119959 0.387210 0.185931
H3    H     H_    0.543780 0.789288 0.332417 0.186971
H4    H     H_    0.089327 0.889672 0.599107 0.150612
H5    H     H_    0.449429 0.156313 0.581203 0.159411
H6    H     H_    0.232117 0.091974 0.633281 0.148471
H7    H     H_    0.329523 0.730998 0.382860 0.175979
H8    H     H_    0.815413 0.684713 0.649536 0.145687
H9    H     H_    0.966610 0.649937 0.293006 0.145405
H10   H     H_    0.638383 0.734315 0.686198 0.192371
H11   H     H_    0.162834 0.298542 0.364880 0.146348
H12   H     H_    0.485110 0.307721 0.421263 0.210556
H13   H     H_    0.273310 0.607928 0.582937 0.207162
H14   H     H_    0.078359 0.366371 0.215795 0.158564
H15   H     H_    0.964500 0.420842 0.985380 0.109611
H16   H     H_    0.908746 0.636175 0.774596 0.172464
H17   H     H_    0.139678 0.462245 0.858439 0.169829
N1    N     N_R   0.749710 0.562810 0.547300 -0.213939
N2    N     N_R   0.249640 0.437820 0.453210 -0.224678
O1    O     O_R   0.025490 0.682370 0.523640 -0.584414
O2    O     O_R   0.194150 0.640180 0.491890 -0.609165
O3    O     O_R   0.905900 0.523560 0.631310 -0.604584
O4    O     O_R   0.074570 0.481370 0.599560 -0.543926
O5    O     O_R   0.805850 0.359820 0.508110 -0.558611
O6    O     O_R   0.974510 0.317630 0.476360 -0.586729
O7    O     O_R   0.925430 0.518630 0.400440 -0.537349
O8    O     O_R   0.094100 0.476440 0.368690 -0.594150
O9    O     O_3   0.107504 0.394263 0.707917 -0.553103
C45   C     C_3   0.016485 0.280404 0.710531 -0.313854
H18   H     H_    0.931118 0.269405 0.691689 0.148444
H19   H     H_    0.996102 0.256170 0.771808 0.147727
H20   H     H_    0.051104 0.219515 0.667236 0.186569
O10   O     O_3   0.768821 0.908721 0.327825 -0.584060
C46   C     C_3   0.817592 0.853675 0.362376 -0.353596
H21   H     H_    0.849123 0.795543 0.313672 0.200514
H22   H     H_    0.746598 0.799178 0.406720 0.152541
H23   H     H_    0.898650 0.917678 0.391490 0.170879
O11   O     O_3   0.627315 0.134939 0.607376 -0.609473
C47   C     C_3   0.664940 0.251650 0.644226 -0.297987
H24   H     H_    0.635978 0.301509 0.615736 0.179731
H25   H     H_    0.764716 0.292126 0.646622 0.161540
H26   H     H_    0.618744 0.253688 0.707970 0.175271
O12   O     O_3   0.435876 0.721715 0.675803 -0.587384
C48   C     C_3   0.444421 0.821457 0.651421 0.065898
H27   H     H_    0.362241 0.802234 0.624978 0.146686
H28   H     H_    0.528550 0.856491 0.606617 0.162403
C49   C     C_3   0.450538 0.914600 0.725182 -0.739483
H29   H     H_    0.534942 0.940783 0.751299 0.240106
H30   H     H_    0.451810 0.991677 0.707560 0.243126
H31   H     H_    0.368970 0.881053 0.771670 0.228492
O13   O     O_3   0.682976 0.442670 0.426327 -0.567831
C50   C     C_3   0.704880 0.504976 0.363304 -0.319698
H32   H     H_    0.739026 0.460081 0.306232 0.192699
H33   H     H_    0.775029 0.595565 0.374611 0.145546
H34   H     H_    0.620199 0.507217 0.353658 0.154304
O14   O     O_3   0.309077 0.191662 0.333270 -0.575506
C51   C     C_3   0.263803 0.099480 0.377987 -0.288241
H35   H     H_    0.176917 0.093160 0.419153 0.149426
H36   H     H_    0.333289 0.107833 0.412872 0.169293
H37   H     H_    0.243176 0.016913 0.335057 0.200232
O15   O     O_3   0.944411 0.704959 0.931584 -0.565521
C52   C     C_3   0.962615 0.803989 0.901483 -0.337783
H38   H     H_    0.052555 0.838863 0.861671 0.145749
H39   H     H_    0.962227 0.873245 0.953606 0.200305
H40   H     H_    0.885900 0.784802 0.869412 0.160425
O16   O     O_3   0.946924 0.665381 0.148567 -0.531677
C53   C     C_3   0.817613 0.615887 0.157442 0.033708
H41   H     H_    0.782620 0.531262 0.116623 0.142887
H42   H     H_    0.776698 0.602908 0.221110 0.112096
C54   C     C_3   0.775641 0.697581 0.135823 -0.681936
H43   H     H_    0.808083 0.707102 0.071076 0.282863
H44   H     H_    0.673896 0.662120 0.146871 0.185055
H45   H     H_    0.812763 0.784309 0.173331 0.275363
O17   O     O_3   0.133847 0.708279 0.022405 -0.515364
C55   C     C_3   0.233779 0.777045 0.970627 -0.253450
H46   H     H_    0.202152 0.809076 0.929975 0.168300
H47   H     H_    0.290098 0.729411 0.934859 0.145958
H48   H     H_    0.293891 0.854127 0.008293 0.185243

loop_
_geom_bond_atom_site_label_1
_geom_bond_atom_site_label_2
_ccdc_geom_bond_type
C36   O12   S    
C12   O4    A    
C49   H29   S    
C41   C42   A    
C19   C20   A    
C18   C26   A    
C8    C43   S    
C43   C44   A    
C21   H3    S    
O13   C50   S    
C14   H4    S    
C47   H24   S    
C54   H43   S    
C39   N1    A    
C12   O3    A    
C9    H15   S    
C36   C37   A    
C3    C7    A    
C38   O13   S    
C5    C6    A    
C47   H26   S    
C39   H8    S    
C11   C25   A    
C15   C16   A    
C52   H38   S    
C13   C23   S    
Cu2   O4    S    
C17   C19   A    
C41   O9    S    
C51   H36   S    
C35   C36   A    
C2    C44   A    
C8    C9    D    
C55   H48   S    
O15   C52   S    
C16   H5    S    
C53   C54   S    
C49   H30   S    
C28   H11   S    
C21   C22   A    
Cu1   O7    S    
C23   O5    A    
C13   C25   A    
C46   H23   S    
O16   C53   S    
C17   C18   A    
C22   H7    S    
C38   N1    A    
C47   H25   S    
C11   C20   A    
C32   C37   A    
O9    C45   S    
C23   O6    A    
O11   C47   S    
Cu2   N2    S    
C46   H22   S    
C6    H1    S    
C27   C39   A    
C27   H10   S    
C16   C17   A    
C27   C35   A    
Cu1   Cu2   S    
C13   C24   A    
C12   C40   S    
C45   H18   S    
C29   C30   A    
C48   H28   S    
C31   C32   A    
C3    O16   S    
Cu1   O3    S    
C31   C33   A    
C1    O1    A    
C55   H46   S    
C10   C34   S    
C15   H6    S    
C14   C26   A    
C45   H19   S    
C25   H2    S    
Cu2   O6    S    
C37   H13   S    
C11   O10   S    
C54   H44   S    
C40   C41   A    
C49   H31   S    
C50   H33   S    
C4    H9    S    
C1    C26   S    
C42   C43   A    
C4    C10   A    
C3    C4    A    
C34   O7    A    
Cu1   O1    S    
O17   C55   S    
C8    O17   S    
C48   C49   S    
C53   H41   S    
C44   O15   S    
C7    C9    S    
C28   C29   A    
C5    H14   S    
Cu1   O5    S    
C18   C22   A    
C46   H21   S    
C54   H45   S    
C6    C7    A    
C1    O2    A    
C50   H34   S    
Cu1   N1    S    
C33   C38   A    
C52   H40   S    
C19   C24   A    
C24   O11   S    
Cu2   O2    S    
C48   H27   S    
C30   C31   A    
C30   H12   S    
C33   C35   A    
C52   H39   S    
C29   O14   S    
C28   N2    A    
C51   H37   S    
O14   C51   S    
C45   H20   S    
C55   H47   S    
C34   O8    A    
O10   C46   S    
C2    C40   A    
C5    C10   A    
C20   C21   A    
C50   H32   S    
C51   H35   S    
C14   C15   A    
O12   C48   S    
C42   H17   S    
Cu2   O8    S    
C2    H16   S    
C32   N2    A    
C53   H42   S    
