data_mof_unit_1498.cif
_audit_creation_date              2012-10-26T20:03:21-0400
_audit_creation_method            fapswitch 2.2
_symmetry_space_group_name_H-M    P1
_symmetry_Int_Tables_number       1
_space_group_crystal_system       triclinic
_cell_length_a                    10.614435
_cell_length_b                    12.333309
_cell_length_c                    13.184965
_cell_angle_alpha                 116.656652
_cell_angle_beta                  77.785284
_cell_angle_gamma                 101.084091
_cell_volume                      1498.28695909

loop_
_atom_site_label
_atom_site_type_symbol
_atom_type_description
_atom_site_fract_x
_atom_site_fract_y
_atom_site_fract_z
_atom_type_partial_charge
C1    C     C_R   0.511133 0.854892 0.286622 0.521009
C2    C     C_R   0.497069 0.566774 0.009139 0.040401
C3    C     C_R   0.459122 0.650358 0.123695 0.024547
C4    C     C_R   0.740205 0.999348 0.499901 0.551214
C5    C     C_R   0.455743 0.440277 0.975829 0.039579
C6    C     C_R   0.367564 0.400852 0.053100 0.057462
C7    C     C_R   0.319092 0.486342 0.160248 -0.129467
C8    C     C_R   0.362562 0.609344 0.194481 -0.118741
C9    C     C_R   0.500657 0.351328 0.868250 -0.118301
C10   C     C_R   0.369158 0.190191 0.912171 -0.116963
C11   C     C_R   0.517832 0.773040 0.163562 -0.001562
C12   C     C_3   0.021776 0.036804 0.605784 0.062481
C13   C     C_R   0.693579 0.339345 0.318393 -0.143409
C14   C     C_R   0.325698 0.762146 0.646297 0.022288
C15   C     C_R   0.276501 0.662124 0.670158 -0.153879
C16   C     C_R   0.480785 0.145125 0.713374 0.558909
C17   C     C_R   0.330417 0.551528 0.607301 0.049313
C18   C     C_R   0.446520 0.545985 0.527764 -0.028151
C19   C     C_R   0.488796 0.650311 0.502888 0.156772
C20   C     C_R   0.521777 0.442941 0.470369 -0.002415
C21   C     C_R   0.623171 0.440415 0.380041 0.033796
C22   C     C_R   0.656886 0.540174 0.353720 -0.168824
C23   C     C_3   0.930486 0.922639 0.543707 -0.116225
C24   C     C_R   0.594347 0.644072 0.416406 -0.092571
C25   C     C_R   0.506422 0.344328 0.501274 0.077729
C26   C     C_R   0.666211 0.241680 0.347834 0.045277
C27   C     C_R   0.259822 0.999968 0.499211 0.566522
C28   C     C_3   0.976933 0.960843 0.391291 -0.147763
C29   C     C_3   0.033433 0.885485 0.434947 -0.140979
C30   C     C_3   0.122993 0.999934 0.498510 0.022948
C31   C     C_3   0.068531 0.075185 0.454695 -0.118549
C32   C     C_3   0.965851 0.113080 0.563589 -0.112380
C33   C     C_2   0.248954 0.443243 0.615117 0.534635
C34   C     C_3   0.876749 0.998416 0.500029 0.012973
C35   C     C_2   0.048192 0.077825 0.725499 0.569119
C36   C     C_R   0.326634 0.276192 0.021312 -0.114647
C37   C     C_R   0.453725 0.228283 0.834482 0.011776
C38   C     C_R   0.595087 0.815138 0.085204 -0.130778
C39   C     C_R   0.619812 0.736365 0.970156 -0.134433
C40   C     C_R   0.573815 0.613267 0.932318 -0.107033
Cu1   Cu    Cu3+1 0.529830 0.098270 0.475420 0.956217
Cu2   Cu    Cu3+1 0.470170 0.901730 0.524580 0.934891
H1    H     H_    0.064092 0.792698 0.382064 0.119649
H2    H     H_    0.443154 0.344590 0.576662 0.157177
H3    H     H_    0.279198 0.845051 0.692188 0.175313
H4    H     H_    0.954986 0.929480 0.303094 0.117000
H5    H     H_    0.189937 0.668832 0.732468 0.146275
H6    H     H_    0.632192 0.717836 0.393639 0.185433
H7    H     H_    0.126963 0.135044 0.415467 0.186937
H8    H     H_    0.935325 0.205929 0.616436 0.147323
H9    H     H_    0.871569 0.860656 0.580593 0.136992
H10   H     H_    0.332243 0.094943 0.887179 0.124708
H11   H     H_    0.247330 0.458041 0.218137 0.118516
H12   H     H_    0.571840 0.375130 0.807959 0.117636
H13   H     H_    0.259249 0.245604 0.079909 0.112342
H14   H     H_    0.137899 0.367639 0.716239 0.359241
H15   H     H_    0.105344 0.034307 0.837592 0.323883
H16   H     H_    0.639215 0.908850 0.113255 0.129424
H17   H     H_    0.597691 0.557776 0.841921 0.107794
H18   H     H_    0.678538 0.770190 0.910304 0.127197
H19   H     H_    0.316577 0.671638 0.276076 0.148731
H20   H     H_    0.718458 0.162369 0.299391 0.121878
H21   H     H_    0.735973 0.539762 0.286307 0.115768
H22   H     H_    0.769572 0.336118 0.248052 0.104128
N1    N     N_R   0.575030 0.246270 0.438190 -0.241662
N2    N     N_R   0.425760 0.754330 0.561190 -0.245117
O1    O     O_R   0.537510 0.972500 0.318130 -0.507827
O2    O     O_R   0.192119 0.446973 0.722295 -0.695437
O3    O     O_2   0.029444 0.180891 0.797731 -0.531839
O4    O     O_R   0.093137 0.997239 0.753956 -0.717643
O5    O     O_R   0.487140 0.806530 0.359650 -0.532157
O6    O     O_R   0.708330 0.082950 0.479220 -0.500768
O7    O     O_R   0.657960 0.916980 0.520740 -0.524095
O8    O     O_R   0.512860 0.193470 0.640350 -0.512949
O9    O     O_R   0.462490 0.027500 0.681870 -0.500013
O10   O     O_R   0.342040 0.083020 0.479260 -0.484922
O11   O     O_R   0.291670 0.917050 0.520780 -0.489855
O12   O     O_2   0.227267 0.352374 0.527615 -0.551849

loop_
_geom_bond_atom_site_label_1
_geom_bond_atom_site_label_2
_ccdc_geom_bond_type
C16   O9    A    
Cu1   Cu2   S    
C1    C11   S    
C15   H5    S    
C10   H10   S    
C7    C8    A    
Cu1   O1    S    
C12   C23   S    
C28   H4    S    
Cu2   O9    S    
C1    O5    A    
C10   C37   A    
C16   O8    A    
C23   C29   S    
C28   C29   S    
C5    C6    A    
C33   O12   D    
C20   C25   A    
C19   N2    A    
C18   C19   A    
C22   H21   S    
C38   H16   S    
C35   O4    S    
H15   O4    S    
C16   C37   S    
Cu1   O8    S    
C28   C34   S    
C40   H17   S    
C21   C22   A    
C29   H1    S    
C27   C30   S    
C17   C33   S    
C31   H7    S    
C25   H2    S    
C14   H3    S    
C4    C34   S    
C24   H6    S    
C25   N1    A    
C3    C8    A    
C39   C40   A    
Cu1   N1    S    
H14   O2    S    
C32   C34   S    
C11   C38   A    
C5    C9    A    
C29   C30   S    
C23   H9    S    
C31   C32   S    
C30   C31   S    
C23   C34   S    
C9    C37   A    
C17   C18   A    
C14   N2    A    
C13   C21   A    
C12   C35   S    
C32   H8    S    
C4    O7    A    
Cu1   O6    S    
C22   C24   A    
C13   C26   A    
C2    C5    A    
C7    H11   S    
C27   O10   A    
C4    O6    A    
C15   C17   A    
Cu2   O7    S    
C12   C30   S    
C26   N1    A    
C28   C31   S    
C27   O11   A    
C6    C7    A    
C8    H19   S    
C2    C3    A    
C26   H20   S    
C36   H13   S    
Cu1   O10   S    
C38   C39   A    
C13   H22   S    
C39   H18   S    
Cu2   O5    S    
C1    O1    A    
C6    C36   A    
C19   C24   A    
C18   C20   A    
C3    C11   A    
C2    C40   A    
C20   C21   A    
C35   O3    D    
Cu2   O11   S    
Cu2   N2    S    
C14   C15   A    
C10   C36   A    
C9    H12   S    
C12   C32   S    
C33   O2    S    
