data_mof_unit_3708.cif
_audit_creation_date              2012-12-10T19:00:46-0500
_audit_creation_method            fapswitch 2.2
_symmetry_space_group_name_H-M    P1
_symmetry_Int_Tables_number       1
_space_group_crystal_system       triclinic
_cell_length_a                    15.07698
_cell_length_b                    10.790032
_cell_length_c                    9.543663
_cell_angle_alpha                 90.350495
_cell_angle_beta                  89.91217
_cell_angle_gamma                 90.764357
_cell_volume                      1552.40472694

loop_
_atom_site_label
_atom_site_type_symbol
_atom_type_description
_atom_site_fract_x
_atom_site_fract_y
_atom_site_fract_z
_atom_type_partial_charge
C1    C     C_R   0.501440 0.262720 0.499309 0.811626
C2    C     C_R   0.907038 0.509219 0.378718 0.109138
C3    C     C_R   0.955951 0.417373 0.746526 -0.213905
C4    C     C_R   0.048157 0.425675 0.746623 -0.224365
C5    C     C_R   0.093867 0.458317 0.624542 0.115329
C6    C     C_R   0.046650 0.485092 0.501297 0.074777
C7    C     C_R   0.092639 0.517829 0.377586 0.110216
C8    C     C_R   0.045529 0.545477 0.255641 -0.217689
C9    C     C_R   0.953191 0.541956 0.256452 -0.200388
C10   C     C_R   0.186196 0.464812 0.623785 -0.254219
C11   C     C_R   0.231923 0.495988 0.500685 -0.072805
C12   C     C_R   0.328675 0.499317 0.500144 0.813025
C13   C     C_R   0.185065 0.522284 0.377920 -0.251702
C14   C     C_R   0.433581 0.064285 0.561409 0.079379
C15   C     C_R   0.501840 0.129527 0.495175 -0.126496
C16   C     C_R   0.564477 0.064054 0.413629 0.156757
C17   C     C_R   0.562259 0.934154 0.415856 -0.220084
C18   C     C_R   0.499816 0.870659 0.498565 -0.125277
C19   C     C_R   0.432429 0.936882 0.563311 0.061216
C20   C     C_3   0.395455 0.932648 0.708660 -0.454360
C21   C     C_3   0.397096 0.074160 0.706549 -0.034932
C22   C     C_R   0.565984 0.560489 0.073793 0.214577
C23   C     C_R   0.499611 0.737465 0.500298 0.813762
C24   C     C_R   0.440550 0.430257 0.074106 -0.084698
C25   C     C_R   0.440619 0.430130 0.925230 -0.087880
C26   C     C_R   0.565494 0.560941 0.926076 0.215494
C27   C     C_3   0.586976 0.696273 0.919652 -0.090112
C28   C     C_3   0.589062 0.696019 0.080286 -0.089310
C29   C     C_R   0.671075 0.491353 0.500224 0.801257
C30   C     C_R   0.815058 0.509354 0.380458 -0.302114
C31   C     C_R   0.767836 0.476332 0.501212 -0.087534
C32   C     C_R   0.813642 0.431197 0.620250 0.120894
C33   C     C_R   0.907207 0.441913 0.623870 0.099784
C34   C     C_R   0.953491 0.479080 0.501561 0.019616
Cu1   Cu    Cu3+1 0.500000 0.499980 0.640670 0.929236
Cu2   Cu    Cu3+1 0.500000 0.500020 0.359330 0.934839
H1    H     H_    0.611787 0.882832 0.358914 0.149981
H2    H     H_    0.327948 0.889899 0.711385 0.202245
H3    H     H_    0.391442 0.375473 0.869186 0.140516
H4    H     H_    0.923602 0.394376 0.844372 0.155844
H5    H     H_    0.917812 0.565055 0.161516 0.138372
N1    N     N_R   0.500570 0.500930 0.147930 -0.198402
N2    N     N_R   0.500570 0.500890 0.852020 -0.196283
O1    O     O_R   0.500000 0.319640 0.618810 -0.591764
O2    O     O_R   0.500010 0.319680 0.381230 -0.575576
O3    O     O_R   0.370250 0.499950 0.618800 -0.590306
O4    O     O_R   0.370260 0.499990 0.381220 -0.587006
O5    O     O_R   0.499990 0.680320 0.618770 -0.582759
O6    O     O_R   0.500000 0.680360 0.381190 -0.583884
O7    O     O_R   0.629740 0.500010 0.618780 -0.571710
O8    O     O_R   0.629750 0.500050 0.381200 -0.584987
H6    H     H_    0.780098 0.536292 0.287021 0.165993
H7    H     H_    0.442659 0.894454 0.785429 0.171585
C35   C     C_3   0.305337 0.132935 0.709759 -0.848491
H8    H     H_    0.276095 0.122809 0.815943 0.232267
H9    H     H_    0.311640 0.233157 0.685508 0.231827
H10   H     H_    0.260039 0.088624 0.631877 0.247001
H11   H     H_    0.444910 0.116560 0.782157 0.174045
H12   H     H_    0.391312 0.375708 0.129691 0.144188
C36   C     C_3   0.673977 0.724688 0.841584 -0.767330
H13   H     H_    0.698211 0.819188 0.869594 0.226809
H14   H     H_    0.726077 0.656250 0.865519 0.225836
H15   H     H_    0.662035 0.722568 0.726987 0.243904
H16   H     H_    0.530731 0.750298 0.879049 0.155013
C37   C     C_3   0.679308 0.721969 0.148958 -0.824090
H17   H     H_    0.699116 0.820195 0.132059 0.229646
H18   H     H_    0.674511 0.706198 0.263258 0.240465
H19   H     H_    0.731483 0.660912 0.106034 0.226128
C38   C     C_3   0.764643 0.362685 0.736071 -0.842866
H20   H     H_    0.702890 0.317383 0.697164 0.242509
H21   H     H_    0.804340 0.284480 0.775664 0.215627
H22   H     H_    0.749394 0.427088 0.823694 0.231811
H23   H     H_    0.535079 0.752204 0.126898 0.170488
H24   H     H_    0.083769 0.406408 0.842480 0.142117
H25   H     H_    0.222414 0.443847 0.718648 0.147826
H26   H     H_    0.220426 0.547023 0.282861 0.153709
H27   H     H_    0.080056 0.570650 0.160051 0.141141
C39   C     C_3   0.636953 0.129781 0.332731 -0.832388
H28   H     H_    0.607824 0.183505 0.245787 0.248713
H29   H     H_    0.674580 0.193413 0.403462 0.220779
H30   H     H_    0.684548 0.063396 0.286193 0.218408

loop_
_geom_bond_atom_site_label_1
_geom_bond_atom_site_label_2
_ccdc_geom_bond_type
C8    C9    A    
C24   N1    A    
Cu2   N1    S    
Cu1   Cu2   S    
C25   N2    A    
C7    C8    A    
C22   N1    A    
C26   C27   S    
C36   H15   S    
C5    C6    A    
C14   C21   S    
C27   C36   S    
C21   C35   S    
C39   H29   S    
C23   O6    A    
Cu1   O5    S    
C15   C16   A    
Cu2   O4    S    
C36   H14   S    
C18   C19   A    
C38   H21   S    
C19   C20   S    
C16   C17   A    
C37   H18   S    
C1    C15   S    
Cu1   N2    S    
C4    H24   S    
C2    C34   A    
C22   C28   S    
C12   O4    A    
C28   H23   S    
C5    C10   A    
C26   N2    A    
C17   C18   A    
C29   O7    A    
C35   H9    S    
C18   C23   S    
C24   C25   A    
C12   O3    A    
C10   C11   A    
C39   H28   S    
C20   H7    S    
C6    C34   A    
C36   H13   S    
C2    C9    A    
C38   H22   S    
C20   H2    S    
C10   H25   S    
C1    O1    A    
C31   C32   A    
C13   H26   S    
C37   H19   S    
Cu1   O7    S    
C33   C34   A    
Cu2   O2    S    
C17   H1    S    
Cu1   O1    S    
C6    C7    A    
Cu2   O8    S    
C3    H4    S    
C8    H27   S    
C3    C4    A    
C29   O8    A    
C30   H6    S    
C35   H8    S    
C23   O5    A    
C14   C19   A    
C4    C5    A    
C11   C12   S    
C32   C38   S    
C9    H5    S    
C2    C30   A    
C32   C33   A    
C28   C37   S    
C21   H11   S    
C29   C31   S    
C25   H3    S    
C11   C13   A    
C39   H30   S    
C1    O2    A    
C30   C31   A    
C24   H12   S    
C16   C39   S    
C38   H20   S    
C27   H16   S    
C7    C13   A    
C20   C21   S    
C37   H17   S    
C22   C26   A    
C27   C28   S    
C3    C33   A    
C14   C15   A    
Cu1   O3    S    
Cu2   O6    S    
C35   H10   S    
