data_mof_unit_4258.cif
_audit_creation_date              2013-03-05T16:40:44-0500
_audit_creation_method            fapswitch 2.2
_symmetry_space_group_name_H-M    P1
_symmetry_Int_Tables_number       1
_space_group_crystal_system       triclinic
_cell_length_a                    17.88128
_cell_length_b                    16.580905
_cell_length_c                    10.72834
_cell_angle_alpha                 92.086216
_cell_angle_beta                  94.400173
_cell_angle_gamma                 90.982511
_cell_volume                      3168.70975735

loop_
_atom_site_label
_atom_site_type_symbol
_atom_site_description
_atom_site_fract_x
_atom_site_fract_y
_atom_site_fract_z
_atom_type_partial_charge
O1    O     O_R   0.391260 0.567930 0.500000 -0.546952
O2    O     O_R   0.608740 0.432070 0.500000 -0.652681
O3    O     O_R   0.608740 0.567930 0.500000 -0.486247
O4    O     O_R   0.391260 0.432070 0.500000 -0.555818
C1    C     C_R   0.354357 0.499890 0.501854 0.824595
C2    C     C_R   0.645328 0.500741 0.498807 0.836746
O5    O     O_R   0.500000 0.567910 0.319660 -0.535514
O6    O     O_R   0.500000 0.432090 0.680340 -0.558244
O7    O     O_R   0.500000 0.567910 0.680340 -0.562677
O8    O     O_R   0.500000 0.432090 0.319660 -0.542709
C3    C     C_R   0.509235 0.498781 0.262085 0.861324
C4    C     C_R   0.488996 0.501222 0.736595 0.833880
Cu1   Cu    Cu3+1 0.500000 0.580420 0.500000 1.048627
Cu2   Cu    Cu3+1 0.500000 0.419580 0.500000 1.020425
C5    C     C_R   0.564500 0.640183 0.112780 -0.162029
C6    C     C_R   0.423179 0.363952 0.880992 -0.140644
C7    C     C_R   0.456501 0.651369 0.909896 -0.169212
C8    C     C_R   0.529319 0.346568 0.085971 -0.099906
C9    C     C_R   0.543919 0.716623 0.068497 0.346393
C10   C     C_R   0.439416 0.286402 0.924633 0.431903
C11   C     C_R   0.483346 0.721912 0.977364 0.356287
C12   C     C_R   0.498494 0.277477 0.017465 0.445995
C13   C     C_R   0.485300 0.575574 0.944724 0.012046
C14   C     C_R   0.504772 0.424218 0.051437 -0.063134
C15   C     C_R   0.523570 0.570616 0.063359 0.022970
C16   C     C_R   0.467149 0.430500 0.932346 -0.042436
C17   C     C_R   0.472396 0.503802 0.871146 -0.091754
C18   C     C_R   0.520963 0.496393 0.125055 -0.104418
C19   C     C_R   0.850432 0.568858 0.585399 -0.106584
C20   C     C_R   0.149807 0.425501 0.525692 -0.045172
C21   C     C_R   0.153962 0.571215 0.564373 -0.040640
C22   C     C_R   0.845857 0.423939 0.534018 -0.029910
C23   C     C_R   0.772925 0.573525 0.548652 -0.067495
C24   C     C_R   0.226760 0.427264 0.504949 -0.053895
C25   C     C_R   0.231470 0.573627 0.543472 0.001841
C26   C     C_R   0.769828 0.429495 0.488919 -0.126685
C27   C     C_R   0.730168 0.502135 0.508417 -0.069325
C28   C     C_R   0.269922 0.500569 0.515108 -0.191323
C29   C     C_R   0.886612 0.494427 0.575868 0.073083
C30   C     C_R   0.114019 0.497198 0.556878 0.008899
C31   C     C_1   0.967618 0.494022 0.580195 0.172493
C32   C     C_1   0.034534 0.495256 0.574034 0.127867
C33   C     C_R   0.559393 0.829439 0.579789 0.271309
C34   C     C_R   0.446808 0.162719 0.447678 0.240191
C35   C     C_R   0.451618 0.831369 0.432646 0.234980
C36   C     C_R   0.564963 0.176526 0.569595 0.303808
C37   C     C_R   0.549196 0.744586 0.585876 0.066896
C38   C     C_R   0.446855 0.248078 0.433587 0.093931
C39   C     C_R   0.453720 0.745488 0.418675 0.006580
C40   C     C_R   0.557132 0.261960 0.571252 -0.001348
N1    N     N_R   0.500000 0.701220 0.500000 -0.232050
N2    N     N_R   0.500000 0.298780 0.500000 -0.236633
C41   C     C_R   0.507718 0.874104 0.507376 -0.082042
C42   C     C_R   0.508481 0.126141 0.509313 -0.083344
C43   C     C_1   0.511390 0.963233 0.509572 0.091685
C44   C     C_1   0.511861 0.037206 0.511360 0.083642
O9    O     O_3   0.534517 0.204394 0.025037 -0.559669
C45   C     C_3   0.496303 0.153332 0.101312 -0.236895
H1    H     H_    0.442394 0.131073 0.053080 0.177470
H2    H     H_    0.487509 0.183509 0.192998 0.162120
H3    H     H_    0.531288 0.099892 0.120240 0.185607
O10   O     O_3   0.441038 0.791167 0.972923 -0.577964
C46   C     C_3   0.471970 0.846685 0.894520 -0.319733
H4    H     H_    0.474999 0.820616 0.798338 0.106851
H5    H     H_    0.527445 0.869707 0.935045 0.202891
H6    H     H_    0.434604 0.899281 0.887213 0.197135
O11   O     O_3   0.395365 0.219942 0.883025 -0.560039
C47   C     C_3   0.420597 0.188865 0.770380 -0.156870
H7    H     H_    0.421660 0.235414 0.698581 0.173980
H8    H     H_    0.381380 0.139852 0.732506 0.202761
H9    H     H_    0.476510 0.162282 0.787512 0.131855
O12   O     O_3   0.589170 0.784116 0.099050 -0.604269
C48   C     C_3   0.565510 0.823263 0.207054 -0.283589
H10   H     H_    0.573507 0.784407 0.288916 0.157989
H11   H     H_    0.506474 0.842847 0.192437 0.210254
H12   H     H_    0.600856 0.878409 0.228132 0.208512
C49   C     C_2   0.634712 0.633435 0.194855 0.484630
H13   H     H_    0.665328 0.687447 0.230039 0.162393
O13   O     O_2   0.661536 0.568021 0.218599 -0.568114
C50   C     C_2   0.355898 0.377964 0.794272 0.491717
H14   H     H_    0.347527 0.436171 0.753403 0.067665
O14   O     O_2   0.306777 0.326262 0.772592 -0.455560
C51   C     C_2   0.391689 0.657601 0.816515 0.487995
H15   H     H_    0.380767 0.714319 0.772270 0.127347
O15   O     O_2   0.348421 0.600552 0.791588 -0.564245
C52   C     C_2   0.594484 0.339057 0.178964 0.524460
H16   H     H_    0.627762 0.392240 0.210437 0.083585
O16   O     O_2   0.611780 0.274151 0.221652 -0.513892
C53   C     C_2   0.894229 0.643066 0.631467 0.413743
H17   H     H_    0.880785 0.701324 0.593689 0.087342
O17   O     O_2   0.944578 0.640010 0.714670 -0.509037
C54   C     C_2   0.106057 0.348029 0.507165 0.436319
H18   H     H_    0.128257 0.293248 0.546610 0.141499
O18   O     O_2   0.046743 0.344259 0.442651 -0.512871
C55   C     C_2   0.113013 0.647185 0.586664 0.446144
H19   H     H_    0.132205 0.689230 0.662571 0.146653
O19   O     O_2   0.057913 0.663611 0.518655 -0.527839
C56   C     C_2   0.881464 0.343123 0.541462 0.460117
H20   H     H_    0.859585 0.292091 0.483108 0.127398
O20   O     O_2   0.933642 0.331390 0.618505 -0.513230
C57   C     C_2   0.740125 0.655021 0.549236 0.469950
H21   H     H_    0.750088 0.695294 0.631105 0.086602
O21   O     O_2   0.706541 0.680179 0.455924 -0.536894
C58   C     C_2   0.256939 0.353497 0.451303 0.371445
H22   H     H_    0.262160 0.349874 0.351480 0.093248
O22   O     O_2   0.271161 0.295844 0.516031 -0.518357
C59   C     C_2   0.268382 0.654171 0.538336 0.371260
H23   H     H_    0.297061 0.669362 0.457812 0.130001
O23   O     O_2   0.264502 0.705434 0.621937 -0.585492
C60   C     C_2   0.736222 0.362452 0.406632 0.332050
H24   H     H_    0.685471 0.331121 0.426681 0.116584
O24   O     O_2   0.766661 0.341081 0.313176 -0.483189
O25   O     O_3   0.627407 0.864728 0.625563 -0.540042
C61   C     C_3   0.620363 0.907986 0.739341 -0.294440
H25   H     H_    0.564626 0.935732 0.746690 0.117681
H26   H     H_    0.663256 0.957193 0.747667 0.213500
H27   H     H_    0.633610 0.868656 0.818992 0.172950
O26   O     O_3   0.381827 0.116847 0.416739 -0.567918
C62   C     C_3   0.384681 0.077705 0.298355 -0.268742
H28   H     H_    0.342401 0.027921 0.289742 0.225020
H29   H     H_    0.440027 0.050775 0.283752 0.160409
H30   H     H_    0.368300 0.119486 0.223304 0.135767
O27   O     O_3   0.399090 0.874014 0.361658 -0.606067
C63   C     C_3   0.333788 0.878892 0.427146 -0.243129
H31   H     H_    0.344479 0.915893 0.515595 0.182476
H32   H     H_    0.311346 0.818119 0.446945 0.170297
H33   H     H_    0.289594 0.908667 0.368118 0.193312
O28   O     O_3   0.630516 0.143262 0.620576 -0.563448
C64   C     C_3   0.622171 0.124733 0.746036 -0.257115
H34   H     H_    0.577297 0.078426 0.752916 0.131712
H35   H     H_    0.610982 0.179111 0.804444 0.214808
H36   H     H_    0.675616 0.099972 0.785947 0.200860
C65   C     C_2   0.585641 0.709959 0.700577 0.452308
H37   H     H_    0.583926 0.742912 0.788990 0.024664
O29   O     O_2   0.621017 0.648177 0.700454 -0.539140
C66   C     C_2   0.388770 0.276573 0.340806 0.406910
H38   H     H_    0.338216 0.240437 0.317905 0.113721
O30   O     O_2   0.396603 0.336723 0.281842 -0.551529
C67   C     C_2   0.409575 0.710266 0.305407 0.394170
H39   H     H_    0.399551 0.747253 0.224657 0.126248
O31   O     O_2   0.380941 0.643138 0.299593 -0.536483
C68   C     C_2   0.611692 0.308696 0.656570 0.529222
H40   H     H_    0.668576 0.318237 0.631655 0.041723
O32   O     O_2   0.596093 0.329130 0.761670 -0.567105

loop_
_geom_bond_atom_site_label_1
_geom_bond_atom_site_label_2
_geom_bond_distance
_ccdc_geom_bond_type
C34   C38   1.428829 A    
C43   C44   1.225857 T    
C46   H5    1.107918 S    
C57   H21   1.085495 S    
C59   O23   1.219754 D    
C31   C32   1.203283 T    
C10   O11   1.383656 S    
C55   H19   1.083766 S    
O3    C2    1.301745 A    
O28   C64   1.409848 S    
C12   O9    1.384147 S    
C58   O22   1.220784 D    
C61   H25   1.111910 S    
O27   C63   1.410186 S    
C29   C31   1.445822 S    
C49   H13   1.082177 S    
C35   O27   1.383629 S    
C15   C18   1.420181 A    
O5    C3    1.301239 A    
C16   C17   1.407399 A    
C7    C13   1.418127 A    
C8    C14   1.420120 A    
C22   C26   1.413308 A    
C36   O28   1.386747 S    
C26   C27   1.425153 A    
C9    C11   1.408455 A    
C14   C16   1.405712 A    
C64   H34   1.109465 S    
C38   N2    1.393768 A    
C50   H14   1.082504 S    
C52   O16   1.220320 D    
C5    C15   1.419251 A    
C45   H2    1.110514 S    
C19   C23   1.415728 A    
C21   C30   1.405974 A    
C48   H10   1.109915 S    
C22   C29   1.407481 A    
O7    Cu1   1.953329 S    
O26   C62   1.409946 S    
C60   H24   1.077777 S    
C33   C41   1.400354 A    
Cu2   N2    2.002972 S    
C47   H7    1.111055 S    
C39   N1    1.393374 A    
C40   N2    1.391486 A    
C59   H23   1.073365 S    
C13   C17   1.409533 A    
C53   O17   1.221244 D    
O3    Cu1   1.958934 S    
O6    C4    1.300958 A    
C64   H36   1.108457 S    
C45   H3    1.109197 S    
C49   O13   1.220883 D    
C46   H6    1.109061 S    
C35   C41   1.400713 A    
C57   O21   1.218017 D    
Cu1   N1    2.002972 S    
Cu1   Cu2   2.666874 S    
C37   C65   1.486541 S    
C48   H11   1.111065 S    
C19   C29   1.407271 A    
C9    O12   1.384221 S    
O2    C2    1.304404 A    
C19   C53   1.494929 S    
C58   H22   1.081693 S    
C60   O24   1.221291 D    
C62   H29   1.112298 S    
C6    C16   1.413781 A    
C67   H39   1.085050 S    
C42   C44   1.477799 S    
C20   C24   1.410641 A    
C4    C17   1.495109 S    
O11   C47   1.405645 S    
C25   C28   1.437562 A    
C20   C54   1.491533 S    
O8    Cu2   1.953331 S    
C52   H16   1.084072 S    
O12   C48   1.404553 S    
C37   N1    1.394781 A    
C45   H1    1.109303 S    
C23   C27   1.432878 A    
C7    C51   1.480178 S    
C5    C9    1.414406 A    
O10   C46   1.403974 S    
C51   H15   1.082805 S    
C35   C39   1.427860 A    
C6    C10   1.411630 A    
C36   C42   1.402774 A    
C54   O18   1.220560 D    
C2    C27   1.512358 S    
C20   C30   1.401665 A    
C8    C52   1.484666 S    
C11   O10   1.386169 S    
C63   H33   1.108423 S    
C50   O14   1.220165 D    
C51   O15   1.220492 D    
C10   C12   1.408681 A    
C56   O20   1.221118 D    
C39   C67   1.492042 S    
C26   C60   1.483378 S    
C65   H37   1.080039 S    
C48   H12   1.109010 S    
C23   C57   1.482263 S    
O1    Cu1   1.951876 S    
C34   O26   1.389577 S    
C41   C43   1.477432 S    
O1    C1    1.298729 A    
C66   O30   1.212119 D    
C63   H32   1.111909 S    
O25   C61   1.408271 S    
C62   H30   1.106978 S    
O6    Cu2   1.938313 S    
C24   C28   1.424846 A    
C38   C66   1.478242 S    
C14   C18   1.422678 A    
O4    C1    1.313848 A    
C61   H26   1.106639 S    
C62   H28   1.106255 S    
C55   O19   1.220904 D    
C36   C40   1.425463 A    
C8    C12   1.418184 A    
C33   O25   1.387667 S    
C67   O31   1.214666 D    
O9    C45   1.403481 S    
C5    C49   1.485414 S    
C3    C18   1.500033 S    
C47   H9    1.104745 S    
C21   C55   1.488827 S    
C21   C25   1.420964 A    
C30   C32   1.447052 S    
C54   H18   1.084577 S    
C22   C56   1.495528 S    
C68   O32   1.219693 D    
C13   C15   1.403878 A    
O4    Cu2   1.958938 S    
O2    Cu2   1.951872 S    
O7    C4    1.298064 A    
C24   C58   1.462022 S    
C61   H27   1.107431 S    
C25   C59   1.484231 S    
O8    C3    1.300271 A    
C46   H4    1.109710 S    
C34   C42   1.400515 A    
O5    Cu1   1.938315 S    
C47   H8    1.109061 S    
C56   H20   1.083268 S    
C65   O29   1.213171 D    
C68   H40   1.081829 S    
C66   H38   1.083121 S    
C6    C50   1.490134 S    
C53   H17   1.084753 S    
C1    C28   1.527499 S    
C33   C37   1.420115 A    
C40   C68   1.474980 S    
C63   H31   1.113154 S    
C64   H35   1.109016 S    
C7    C11   1.410045 A    
