data_mof_unit_2840.cif
_audit_creation_date              2012-12-10T20:57:49-0500
_audit_creation_method            fapswitch 2.2
_symmetry_space_group_name_H-M    P1
_symmetry_Int_Tables_number       1
_space_group_crystal_system       triclinic
_cell_length_a                    18.202885
_cell_length_b                    18.230966
_cell_length_c                    18.422817
_cell_angle_alpha                 120.086068
_cell_angle_beta                  89.945349
_cell_angle_gamma                 119.889641
_cell_volume                      4326.68594818

loop_
_atom_site_label
_atom_site_type_symbol
_atom_type_description
_atom_site_fract_x
_atom_site_fract_y
_atom_site_fract_z
_atom_type_partial_charge
C1    C     C_R   0.360889 0.220152 0.361228 0.800440
C2    C     C_3   0.798435 0.940715 0.735720 -0.385765
C3    C     C_3   0.698431 0.897422 0.700668 0.075257
C4    C     C_R   0.640908 0.780991 0.640493 0.782977
C5    C     C_3   0.799205 0.102485 0.805993 0.016074
C6    C     C_3   0.724598 0.056815 0.843505 0.262265
C7    C     C_3   0.857455 0.060049 0.795072 -0.345440
C8    C     C_3   0.643202 0.398020 0.204884 -0.346702
C9    C     C_3   0.706511 0.394251 0.149689 -0.456677
C10   C     C_3   0.736471 0.593055 0.300530 -0.515642
C11   C     C_3   0.778553 0.501882 0.340339 0.239826
C12   C     C_3   0.331064 0.609037 0.337174 -0.482294
C13   C     C_3   0.697864 0.496352 0.302209 -0.020976
C14   C     C_3   0.800926 0.500200 0.201956 -0.041144
C15   C     C_3   0.784192 0.585502 0.230352 0.018694
C16   C     C_R   0.362464 0.504049 0.643811 0.905279
C17   C     C_3   0.842851 0.512082 0.285237 -0.001362
C18   C     C_R   0.460016 0.184924 0.560364 -0.166547
C19   C     C_R   0.421713 0.142910 0.471736 -0.096393
C20   C     C_R   0.329972 0.097579 0.437514 0.136618
C21   C     C_R   0.276913 0.093593 0.492659 -0.155951
C22   C     C_R   0.315538 0.135845 0.581309 -0.047123
C23   C     C_3   0.299032 0.496274 0.299161 -0.027129
C24   C     C_R   0.407023 0.181556 0.615157 -0.035300
C25   C     C_R   0.231913 0.943443 0.286970 -0.230729
C26   C     C_R   0.196375 0.892218 0.195423 -0.051618
C27   C     C_R   0.218243 0.949683 0.158742 0.006917
C28   C     C_R   0.640457 0.498572 0.359472 0.862474
C29   C     C_R   0.271733 0.056619 0.215228 -0.209983
C30   C     C_R   0.306932 0.107789 0.306604 -0.059509
C31   C     C_R   0.288780 0.050485 0.342981 -0.008774
C32   C     C_R   0.244692 0.881645 0.013333 -0.165451
C33   C     C_R   0.230255 0.857986 0.927619 -0.140023
C34   C     C_3   0.195110 0.496795 0.199748 -0.017182
C35   C     C_R   0.162666 0.857518 0.890682 0.512015
C36   C     C_R   0.106501 0.875548 0.938235 -0.214173
C37   C     C_R   0.121083 0.899626 0.024154 -0.193446
C38   C     C_R   0.191201 0.904424 0.062674 0.127116
C39   C     C_R   0.914088 0.654906 0.587190 -0.021599
C40   C     C_R   0.641898 0.501122 0.641079 0.855110
C41   C     C_R   0.868536 0.592917 0.616991 -0.028398
C42   C     C_R   0.843227 0.630871 0.692171 0.105455
C43   C     C_R   0.865031 0.731835 0.737981 -0.112883
C44   C     C_R   0.909950 0.793217 0.707457 -0.079884
C45   C     C_3   0.137054 0.429551 0.234304 0.465192
C46   C     C_R   0.934165 0.754608 0.631877 -0.062737
C47   C     C_R   0.842365 0.561285 0.776043 -0.223484
C48   C     C_R   0.799997 0.503266 0.810035 -0.058014
C49   C     C_R   0.706102 0.449186 0.792099 0.004449
C50   C     C_R   0.656434 0.450271 0.736589 -0.217554
C51   C     C_R   0.698498 0.505654 0.700345 -0.063288
C52   C     C_R   0.358233 0.499819 0.358904 0.791113
C53   C     C_R   0.793015 0.564596 0.722537 -0.019160
C54   C     C_R   0.611549 0.285622 0.782723 -0.281874
C55   C     C_R   0.564563 0.232941 0.820016 0.484679
C56   C     C_3   0.271042 0.609504 0.278687 -0.398790
C57   C     C_R   0.563235 0.288698 0.906284 -0.157598
C58   C     C_R   0.608771 0.396228 0.955076 -0.209389
C59   C     C_R   0.655799 0.448710 0.918022 -0.074035
C60   C     C_R   0.657371 0.393627 0.831661 0.096831
C61   C     C_R   0.348704 0.766446 0.677320 -0.145504
C62   C     C_R   0.339874 0.714489 0.716353 0.472465
C63   C     C_R   0.270011 0.607336 0.669645 0.066506
C64   C     C_3   0.302528 0.445333 0.201036 0.347526
C65   C     C_R   0.210607 0.555617 0.585785 -0.173909
C66   C     C_R   0.218151 0.609764 0.550043 -0.079100
C67   C     C_3   0.691668 0.941942 0.650023 -0.392144
C68   C     C_R   0.287635 0.714522 0.595001 -0.164281
C69   C     C_R   0.194618 0.534441 0.751456 0.170326
C70   C     C_R   0.192401 0.495786 0.801901 -0.179067
C71   C     C_R   0.249306 0.463837 0.802579 -0.202419
C72   C     C_R   0.316501 0.484454 0.763581 0.339611
C73   C     C_R   0.313115 0.514342 0.707169 -0.195487
C74   C     C_R   0.257934 0.548618 0.707878 -0.072104
C75   C     C_R   0.264611 0.421988 0.910589 -0.023182
C76   C     C_3   0.244325 0.450758 0.145395 -0.541109
C77   C     C_R   0.252611 0.349515 0.925784 -0.096241
C78   C     C_3   0.750916 0.061995 0.711518 -0.453933
C79   C     C_R   0.199007 0.243735 0.857098 -0.051084
C80   C     C_R   0.158657 0.210168 0.772342 -0.174145
C81   C     C_R   0.173604 0.282538 0.755838 -0.117882
C82   C     C_R   0.227552 0.389027 0.824629 0.234317
C83   C     C_R   0.857249 0.499588 0.143060 0.866574
C84   C     C_R   0.136371 0.497281 0.859181 0.843647
C85   C     C_R   0.856881 0.219014 0.862811 0.799035
C86   C     C_R   0.138484 0.779891 0.140977 0.793154
C87   C     C_R   0.855983 0.501088 0.863258 0.805579
C88   C     C_3   0.201209 0.437948 0.298401 -0.415629
C89   C     C_3   0.667279 0.936276 0.782190 -0.359909
C90   C     C_R   0.138813 0.498894 0.142682 0.844767
H1    H     H_    0.244136 0.652867 0.319876 0.249344
H2    H     H_    0.373227 0.494896 0.205961 0.092692
H3    H     H_    0.822942 0.913002 0.679035 0.179857
H4    H     H_    0.907200 0.088143 0.764008 0.180140
H5    H     H_    0.896887 0.089486 0.860692 0.228474
H6    H     H_    0.671469 0.904276 0.818743 0.229681
H7    H     H_    0.592250 0.400442 0.174558 0.198770
H8    H     H_    0.605365 0.326079 0.202205 0.245567
H9    H     H_    0.712877 0.330525 0.133413 0.260616
H10   H     H_    0.675347 0.375215 0.085463 0.205352
H11   H     H_    0.681768 0.599361 0.284542 0.178730
H12   H     H_    0.201201 0.480456 0.367365 0.185823
H13   H     H_    0.288401 0.500353 0.124302 0.146860
H14   H     H_    0.737932 0.560304 0.170631 0.143676
H15   H     H_    0.815261 0.572712 0.409592 0.109150
H16   H     H_    0.852286 0.448910 0.259792 0.211739
H17   H     H_    0.784484 0.664577 0.367406 0.208686
H18   H     H_    0.436728 0.214299 0.683799 0.156571
H19   H     H_    0.530743 0.219937 0.586427 0.129633
H20   H     H_    0.463295 0.145594 0.429761 0.132164
H21   H     H_    0.194990 0.374065 0.083127 0.252117
H22   H     H_    0.205912 0.058075 0.467014 0.145960
H23   H     H_    0.620652 0.913089 0.625206 0.209861
H24   H     H_    0.274560 0.133165 0.623784 0.154322
H25   H     H_    0.217623 0.900012 0.315334 0.185927
H26   H     H_    0.286626 0.100022 0.186722 0.193877
H27   H     H_    0.299859 0.886488 0.042684 0.181550
H28   H     H_    0.273711 0.843584 0.891362 0.238515
H29   H     H_    0.053623 0.874703 0.910151 0.183027
H30   H     H_    0.080136 0.918497 0.061947 0.172602
H31   H     H_    0.969338 0.802313 0.608515 0.144028
H32   H     H_    0.177143 0.360561 0.281495 0.211537
H33   H     H_    0.934556 0.625986 0.529947 0.193827
H34   H     H_    0.713584 0.915003 0.591105 0.169688
H35   H     H_    0.852822 0.515555 0.581631 0.161567
H36   H     H_    0.846205 0.762201 0.796394 0.136911
H37   H     H_    0.926295 0.870792 0.742529 0.132197
H38   H     H_    0.914651 0.604723 0.790968 0.201598
H39   H     H_    0.584366 0.408489 0.722845 0.204911
H40   H     H_    0.612783 0.243229 0.716072 0.150503
H41   H     H_    0.526842 0.248892 0.935665 0.184358
H42   H     H_    0.607415 0.438879 0.021617 0.153883
H43   H     H_    0.690775 0.532037 0.956356 0.144139
H44   H     H_    0.293835 0.755776 0.566306 0.183505
H45   H     H_    0.801319 0.092522 0.682052 0.179673
H46   H     H_    0.402263 0.847719 0.710993 0.228227
H47   H     H_    0.156912 0.473865 0.549316 0.164487
H48   H     H_    0.169524 0.570505 0.487726 0.217888
H49   H     H_    0.305707 0.503670 0.964566 0.110763
H50   H     H_    0.286599 0.375410 0.990203 0.164246
H51   H     H_    0.329026 0.648239 0.406067 0.225707
H52   H     H_    0.189499 0.187846 0.869241 0.192850
H53   H     H_    0.117453 0.128282 0.718990 0.143686
H54   H     H_    0.144501 0.255876 0.689112 0.125507
H55   H     H_    0.401988 0.654937 0.340778 0.170774
H56   H     H_    0.708294 0.090410 0.715425 0.229736
H57   H     H_    0.313231 0.653713 0.252629 0.163245
H58   H     H_    0.358578 0.256580 0.127217 0.383119
H59   H     H_    0.930302 0.366571 0.200069 0.392865
H60   H     H_    0.887860 0.258924 0.031035 0.355160
H61   H     H_    0.821292 0.363851 0.406413 0.394192
H62   H     H_    0.240205 0.867289 0.711589 0.403506
H63   H     H_    0.503678 0.047107 0.624161 0.354451
H64   H     H_    0.388300 0.725380 0.902952 0.373370
H65   H     H_    0.455506 0.597378 0.934225 0.349473
H66   H     H_    0.595428 0.905959 0.759549 0.207791
H67   H     H_    0.679309 0.080635 0.841991 0.168499
H68   H     H_    0.805280 0.912081 0.774552 0.194237
I1    I     I_    0.976062 0.651507 0.375564 -0.180380
I2    I     I_    0.896376 0.736782 0.270568 -0.377919
I3    I     I_    0.043072 0.267075 0.124931 -0.165946
I4    I     I_    0.094434 0.558211 0.727591 -0.276088
O1    O     O_3   0.500000 0.500000 0.500000 -0.507432
O2    O     O_R   0.113800 0.731630 0.056520 -0.640271
O3    O     O_R   0.819390 0.439310 0.886160 -0.642746
O4    O     O_R   0.383400 0.268380 0.323710 -0.626351
O5    O     O_R   0.115110 0.560720 0.179280 -0.572087
O6    O     O_R   0.941380 0.560750 0.885620 -0.637590
O7    O     O_R   0.115110 0.439270 0.057830 -0.661630
O8    O     O_R   0.942690 0.268390 0.886930 -0.649208
O9    O     O_R   0.114340 0.731630 0.178520 -0.636539
O10   O     O_R   0.820160 0.439310 0.057830 -0.636981
O11   O     O_R   0.113800 0.560730 0.885620 -0.604387
O12   O     O_R   0.383400 0.560740 0.616060 -0.648813
O13   O     O_R   0.555060 0.731630 0.615290 -0.634052
O14   O     O_R   0.383950 0.439280 0.616600 -0.580682
O15   O     O_R   0.677590 0.560710 0.444390 -0.643804
O16   O     O_R   0.556370 0.439260 0.616600 -0.614201
O17   O     O_R   0.382640 0.439290 0.322940 -0.567064
O18   O     O_R   0.678360 0.560700 0.616060 -0.635271
O19   O     O_R   0.382640 0.560750 0.444390 -0.660799
O20   O     O_2   0.224503 0.258909 0.181566 -0.297000
O21   O     O_2   0.225523 0.250173 0.045092 -0.316283
O22   O     O_3   0.375125 0.326817 0.150225 -0.536000
O23   O     O_R   0.555060 0.439270 0.322940 -0.630414
O24   O     O_2   0.025344 0.406391 0.330374 -0.289049
O25   O     O_2   0.118953 0.578847 0.362623 -0.295183
O26   O     O_3   0.983229 0.433927 0.216156 -0.542133
O27   O     O_2   0.684696 0.061305 0.985730 -0.167034
O28   O     O_2   0.820501 0.068905 0.967740 -0.306118
O29   O     O_3   0.824507 0.234406 0.025305 -0.555855
O30   O     O_2   0.686635 0.388445 0.404198 -0.346430
O31   O     O_2   0.702151 0.295142 0.259339 -0.278979
O32   O     O_3   0.842019 0.421169 0.399916 -0.537308
O33   O     O_2   0.082242 0.729422 0.715205 -0.299715
O34   O     O_R   0.383950 0.268380 0.445700 -0.642958
O35   O     O_2   0.124819 0.906845 0.788698 -0.312235
O36   O     O_3   0.251078 0.876821 0.769316 -0.517331
O37   O     O_2   0.524225 0.069299 0.817387 -0.260470
O38   O     O_2   0.406856 0.048549 0.728618 -0.305922
O39   O     O_3   0.537736 0.051545 0.669830 -0.595684
O40   O     O_2   0.483643 0.755862 0.809911 -0.320123
O41   O     O_2   0.468774 0.899249 0.865604 -0.221207
O42   O     O_3   0.364331 0.756265 0.888133 -0.573978
O43   O     O_2   0.382784 0.372989 0.735367 -0.279736
O44   O     O_2   0.491046 0.550475 0.780440 -0.286845
O45   O     O_R   0.677590 0.731610 0.615290 -0.653555
O46   O     O_3   0.437523 0.525001 0.899893 -0.547100
O47   O     O_3   0.997750 0.500010 0.002220 -0.504007
O48   O     O_R   0.942690 0.560750 0.179280 -0.560680
O49   O     O_R   0.114340 0.439270 0.886160 -0.660666
O50   O     O_R   0.820160 0.268410 0.886930 -0.611560
S1    S     S_3+6 0.277201 0.315058 0.142223 0.026926
S2    S     S_3+6 0.066347 0.465063 0.289814 0.032954
S3    S     S_3+6 0.764553 0.104289 0.957841 0.051653
S4    S     S_3+6 0.747732 0.396499 0.349453 -0.010986
S5    S     S_3+6 0.152363 0.841290 0.787869 0.025681
S6    S     S_3+6 0.505914 0.097333 0.758868 -0.006429
S7    S     S_3+6 0.417964 0.784622 0.821927 0.029611
S8    S     S_3+6 0.409067 0.482279 0.792913 0.040646
Zn1   Zn    Zn3+2 0.456040 0.586770 0.543190 0.986880
Zn2   Zn    Zn3+2 0.456820 0.413240 0.543960 1.062866
Zn3   Zn    Zn3+2 0.631110 0.586750 0.543190 1.001082
Zn4   Zn    Zn3+2 0.456040 0.413240 0.369660 1.035213
Zn5   Zn    Zn3+2 0.041710 0.413240 0.959030 0.970332
Zn6   Zn    Zn3+2 0.866640 0.413270 0.959030 1.017017
Zn7   Zn    Zn3+2 0.040930 0.586780 0.958260 0.995017
Zn8   Zn    Zn3+2 0.041710 0.586770 0.132560 1.064812

loop_
_geom_bond_atom_site_label_1
_geom_bond_atom_site_label_2
_ccdc_geom_bond_type
O21   S1    D    
C66   C68   A    
C63   C65   A    
C44   H37   S    
C34   C56   S    
C8    C13   S    
C90   O5    A    
C27   C29   A    
O38   S6    D    
C41   C42   A    
C35   C36   A    
C18   H19   S    
C32   H27   S    
C8    H7    S    
C67   H34   S    
C6    H67   S    
O6    Zn7   S    
C81   C82   A    
C23   C52   S    
C84   O49   A    
C47   H38   S    
C39   C41   A    
C54   C60   A    
O1    Zn4   S    
O45   Zn3   S    
O37   S6    D    
C12   C23   S    
C26   C27   A    
C37   C38   A    
C49   C60   S    
O14   Zn2   S    
C4    O45   A    
C18   C24   A    
H61   O32   S    
C36   C37   A    
O13   Zn1   S    
O39   S6    S    
C10   C15   S    
C25   H25   S    
C42   C53   S    
O32   S4    S    
C5    C6    S    
O1    Zn2   S    
C79   H52   S    
C27   C38   S    
O50   Zn6   S    
C39   H33   S    
C12   H51   S    
O18   Zn3   S    
C18   C19   A    
C73   C74   A    
C36   H29   S    
C45   I3    S    
O3    Zn6   S    
C8    H8    S    
O27   S3    D    
O29   S3    S    
H60   O29   S    
C40   O18   A    
O10   Zn6   S    
C56   H1    S    
C11   C17   S    
C6    S3    S    
C2    C7    S    
C58   H42   S    
C8    C9    S    
O23   Zn4   S    
C11   H15   S    
O20   S1    D    
C77   H50   S    
C46   H31   S    
C70   C71   A    
C24   H18   S    
O47   Zn8   S    
C32   C38   A    
C15   H14   S    
C29   C30   A    
C70   C84   S    
C28   O15   A    
C89   H6    S    
H58   O22   S    
C11   S4    S    
C47   C53   A    
C71   C82   S    
C65   H47   S    
C16   O14   A    
C76   H13   S    
C77   C79   A    
O25   S2    D    
C59   C60   A    
C9    H9    S    
C21   C22   A    
C14   C17   S    
C10   H17   S    
C69   C70   A    
C67   C78   S    
O47   Zn5   S    
C14   C83   S    
O35   S5    D    
C35   S5    S    
C43   H36   S    
C81   H54   S    
C44   C46   A    
C45   S2    S    
C55   S6    S    
H63   O39   S    
O1    Zn1   S    
O12   Zn1   S    
C54   H40   S    
C10   H11   S    
O42   S7    S    
O19   Zn1   S    
C16   C73   S    
C47   C48   A    
C41   H35   S    
C64   S1    S    
C1    O34   A    
C52   O19   A    
C88   H32   S    
H65   O46   S    
O11   Zn7   S    
O4    Zn4   S    
C5    C7    S    
O26   S2    S    
C72   C73   A    
C89   H66   S    
O44   S8    D    
C25   C26   A    
C59   H43   S    
O15   Zn3   S    
C86   O9    A    
C51   C53   A    
C12   H55   S    
O28   S3    D    
C9    C14   S    
C34   C90   S    
C62   C63   A    
C50   H39   S    
C88   H12   S    
O46   S8    S    
C66   H48   S    
C26   C86   S    
C80   H53   S    
C83   O10   A    
C45   C88   S    
C50   C51   A    
C64   C76   S    
C48   C87   S    
H62   O36   S    
C69   C74   A    
C13   C28   S    
C34   C45   S    
C69   I4    S    
C75   C77   A    
C12   C56   S    
O5    Zn8   S    
C39   C46   A    
C40   O16   A    
C48   C49   A    
C29   H26   S    
C49   C50   A    
C9    H10   S    
C23   C88   S    
C55   C57   A    
C43   C44   A    
O47   Zn6   S    
C22   C24   A    
O36   S5    S    
C86   O2    A    
C42   C43   A    
C64   H2    S    
C78   H56   S    
C33   H28   S    
C84   O11   A    
C6    C89   S    
C85   O50   A    
O33   S5    D    
C21   H22   S    
C4    O13   A    
O31   S4    D    
C78   H45   S    
C19   H20   S    
C16   O12   A    
C7    H4    S    
C54   C55   A    
C23   C64   S    
C20   C21   A    
O48   Zn8   S    
C25   C31   A    
C57   H41   S    
C2    H3    S    
C3    C67   S    
O40   S7    D    
C80   C81   A    
C10   C13   S    
C87   O6    A    
H64   O42   S    
C75   C82   A    
C63   C74   S    
O1    Zn3   S    
C40   C51   S    
C7    H5    S    
C85   O8    A    
O41   S7    D    
O17   Zn4   S    
C3    C89   S    
C62   S7    S    
C19   C20   A    
C68   H44   S    
C2    C3    S    
C58   C59   A    
C52   O17   A    
C5    C85   S    
C15   I2    S    
C75   H49   S    
C28   O23   A    
C32   C33   A    
C11   C13   S    
C61   C68   A    
O22   S1    S    
C30   C31   A    
C37   H30   S    
C1    O4    A    
C56   H57   S    
C76   H21   S    
O24   S2    D    
C90   O7    A    
C1    C30   S    
C33   C35   A    
O2    Zn7   S    
O7    Zn5   S    
C67   H23   S    
C61   C62   A    
C17   I1    S    
C83   O48   A    
C87   O3    A    
C79   C80   A    
C5    C78   S    
C22   H24   S    
C71   C72   A    
C2    H68   S    
C61   H46   S    
H59   O26   S    
O9    Zn8   S    
C65   C66   A    
O49   Zn5   S    
O8    Zn5   S    
C14   C15   S    
O16   Zn2   S    
C72   S8    S    
O47   Zn7   S    
C57   C58   A    
C17   H16   S    
O30   S4    D    
O34   Zn2   S    
C3    C4    S    
O43   S8    D    
C34   C76   S    
C20   C31   S    
