data_mof_unit_920.cif
_audit_creation_date              2012-12-11T14:30:21-0500
_audit_creation_method            fapswitch 2.2
_symmetry_space_group_name_H-M    P1
_symmetry_Int_Tables_number       1
_space_group_crystal_system       triclinic
_cell_length_a                    13.075741
_cell_length_b                    13.089711
_cell_length_c                    26.927615
_cell_angle_alpha                 90.170598
_cell_angle_beta                  89.93698
_cell_angle_gamma                 121.116223
_cell_volume                      3945.72961796

loop_
_atom_site_label
_atom_site_type_symbol
_atom_type_description
_atom_site_fract_x
_atom_site_fract_y
_atom_site_fract_z
_atom_type_partial_charge
C1    C     C_R   0.553784 0.456977 0.820099 0.620229
C2    C     C_R   0.458425 0.559688 0.177941 0.633613
C3    C     C_R   0.146991 0.433011 0.486828 0.266799
C4    C     C_R   0.273301 0.878472 0.014337 0.265277
C5    C     C_R   0.616343 0.724988 0.486638 0.259436
C6    C     C_R   0.280023 0.871483 0.538985 0.273047
C7    C     C_R   0.134221 0.432552 0.960125 0.257299
C8    C     C_R   0.609052 0.713876 0.538525 0.251586
C9    C     C_R   0.281426 0.878892 0.962345 0.267081
C10   C     C_R   0.129690 0.426521 0.538368 0.258406
C11   C     C_R   0.610687 0.716290 0.962034 0.249902
C12   C     C_3   0.821563 0.627393 0.070747 -0.272620
C13   C     C_R   0.438467 0.894606 0.322850 0.595352
C14   C     C_3   0.791524 0.215013 0.437917 -0.333278
C15   C     C_3   0.331536 0.176548 0.057525 -0.254945
C16   C     C_3   0.816807 0.622082 0.429130 -0.272567
C17   C     C_3   0.819666 0.182053 0.061869 -0.283305
C18   C     C_3   0.329414 0.174563 0.440779 -0.257007
C19   C     C_3   0.843047 0.179297 0.540446 -0.272112
C20   C     C_3   0.826512 0.661429 0.962345 -0.270363
C21   C     C_3   0.422906 0.184825 0.539714 -0.357985
C22   C     C_3   0.817282 0.234987 0.957222 -0.340248
C23   C     C_3   0.811453 0.641975 0.537933 -0.283228
C24   C     C_R   0.105124 0.544241 0.177863 0.626393
C25   C     C_3   0.428502 0.189452 0.958925 -0.361575
C26   C     C_R   0.009307 0.518143 0.971917 -0.049232
C27   C     C_R   0.498568 0.982403 0.530710 -0.072358
C28   C     C_R   0.491187 0.500153 0.970380 -0.051698
C29   C     C_R   0.995980 0.501486 0.526579 -0.048228
C30   C     C_R   0.499273 0.984556 0.969826 -0.072505
C31   C     C_R   0.488131 0.497694 0.529454 -0.052419
C32   C     C_R   0.486291 0.974963 0.478260 -0.064985
C33   C     C_R   0.896297 0.440912 0.678436 0.619617
C34   C     C_R   0.023963 0.518840 0.023606 -0.050873
C35   C     C_R   0.492673 0.508371 0.476696 -0.049538
C36   C     C_R   0.490123 0.977237 0.022398 -0.065111
C37   C     C_R   0.015564 0.508746 0.475186 -0.048805
C38   C     C_R   0.495326 0.510327 0.023154 -0.048876
C39   C     C_R   0.873596 0.589112 0.984992 0.074264
C40   C     C_R   0.716941 0.107844 0.520182 0.061238
C41   C     C_R   0.412665 0.288262 0.978795 0.077656
C42   C     C_R   0.859456 0.571377 0.514333 0.069884
C43   C     C_R   0.713437 0.123357 0.978505 0.079353
C44   C     C_R   0.543073 0.099102 0.820727 0.581333
C45   C     C_R   0.409880 0.285538 0.520215 0.077195
C46   C     C_R   0.699751 0.110825 0.468486 0.076460
C47   C     C_R   0.878669 0.579147 0.037216 0.039302
C48   C     C_R   0.392793 0.290880 0.468902 0.040682
C49   C     C_R   0.707604 0.107099 0.030621 0.064867
C50   C     C_R   0.870060 0.568843 0.462008 0.038303
C51   C     C_R   0.394551 0.292905 0.029990 0.040303
C52   C     C_R   0.879330 0.500966 0.905868 0.152299
C53   C     C_R   0.624367 0.050515 0.604330 0.211131
C54   C     C_R   0.432992 0.374119 0.896807 0.232301
C55   C     C_R   0.553843 0.456522 0.679740 0.620549
C56   C     C_R   0.867346 0.483798 0.593155 0.154529
C57   C     C_R   0.623312 0.054620 0.896162 0.206080
C58   C     C_R   0.432573 0.372017 0.602800 0.236711
C59   C     C_R   0.576348 0.998196 0.396135 0.212575
C60   C     C_R   0.966096 0.528260 0.109386 0.176242
C61   C     C_R   0.426328 0.418794 0.393266 0.223328
C62   C     C_R   0.580355 0.995975 0.104499 0.214040
C63   C     C_R   0.963437 0.526046 0.389553 0.176961
C64   C     C_R   0.426261 0.419576 0.106052 0.223456
C65   C     C_R   0.069227 0.531147 0.125578 0.060391
C66   C     C_R   0.897133 0.442011 0.821423 0.614936
C67   C     C_R   0.462997 0.944228 0.374351 0.025084
C68   C     C_R   0.487843 0.533654 0.127197 0.066293
C69   C     C_R   0.067892 0.531010 0.373878 0.064378
C70   C     C_R   0.466762 0.946595 0.126165 0.030979
C71   C     C_R   0.487098 0.533369 0.372725 0.065865
C72   C     C_R   0.524980 0.029763 0.632702 0.023399
C73   C     C_R   0.946658 0.479759 0.871415 0.042486
C74   C     C_R   0.503168 0.472080 0.632792 0.056249
C75   C     C_R   0.524139 0.029968 0.867177 0.017797
C76   C     C_R   0.940612 0.472346 0.627665 0.050311
C77   C     C_R   0.543511 0.099622 0.679069 0.590448
C78   C     C_R   0.503420 0.473705 0.866931 0.059388
C79   C     C_R   0.923292 0.540522 0.953616 0.080181
C80   C     C_R   0.615204 0.043357 0.551910 0.057449
C81   C     C_R   0.441539 0.386485 0.948638 0.090708
C82   C     C_R   0.907742 0.520330 0.544938 0.079522
C83   C     C_R   0.613415 0.050346 0.948150 0.061245
C84   C     C_R   0.439534 0.383968 0.550860 0.091436
C85   C     C_R   0.588612 0.029109 0.447326 0.059504
C86   C     C_R   0.951560 0.538472 0.057235 0.052141
C87   C     C_R   0.436571 0.403994 0.445662 0.065002
C88   C     C_R   0.458323 0.559769 0.322045 0.633521
C89   C     C_R   0.594881 0.026870 0.052889 0.058724
C90   C     C_R   0.945467 0.531531 0.441662 0.049920
C91   C     C_R   0.437859 0.405589 0.053690 0.064971
C92   C     C_R   0.048357 0.478908 0.887298 0.251655
C93   C     C_R   0.410549 0.953816 0.613968 0.241858
C94   C     C_R   0.544116 0.587307 0.886593 0.246886
C95   C     C_R   0.042192 0.471730 0.611243 0.250978
C96   C     C_R   0.409880 0.955048 0.886542 0.243920
C97   C     C_R   0.542527 0.585247 0.613394 0.244575
C98   C     C_R   0.365810 0.929162 0.403974 0.213844
C99   C     C_R   0.439222 0.895197 0.177330 0.599190
C100  C     C_R   0.144702 0.524323 0.090763 0.235877
C101  C     C_R   0.570385 0.630453 0.402722 0.219325
C102  C     C_R   0.371534 0.935687 0.096840 0.212863
C103  C     C_R   0.142289 0.522968 0.408764 0.237551
C104  C     C_R   0.572710 0.630895 0.097724 0.221362
C105  C     C_R   0.070213 0.481801 0.939077 -0.025909
C106  C     C_R   0.394561 0.931111 0.561855 -0.034414
C107  C     C_R   0.543878 0.603001 0.939193 -0.028032
C108  C     C_R   0.060983 0.470600 0.559383 -0.023677
C109  C     C_R   0.394883 0.934057 0.938946 -0.035532
C110  C     C_R   0.104767 0.544284 0.321923 0.626063
C111  C     C_R   0.541396 0.600590 0.560945 -0.026878
C112  C     C_R   0.372323 0.923595 0.456296 -0.030202
C113  C     C_R   0.108804 0.495360 0.041834 0.003944
C114  C     C_R   0.558877 0.622954 0.455095 -0.026110
C115  C     C_R   0.376771 0.928544 0.044694 -0.030749
C116  C     C_R   0.103758 0.489807 0.457100 0.007281
C117  C     C_R   0.562140 0.624427 0.045245 -0.026299
C118  C     C_R   0.150672 0.437620 0.011711 0.265487
C119  C     C_R   0.269873 0.871523 0.487109 0.267608
C120  C     C_R   0.620356 0.726707 0.014027 0.254858
Cl1   Cl    Cl    0.858004 0.503129 0.155077 -0.534045
Cl2   Cl    Cl    0.754587 0.072998 0.867356 -0.365713
Cl3   Cl    Cl    0.712450 0.413488 0.604179 -0.730504
Cl4   Cl    Cl    0.321112 0.236914 0.869673 -0.388948
Cl5   Cl    Cl    0.297577 0.594283 0.102769 -0.606592
Cl6   Cl    Cl    0.250866 0.945350 0.376230 -0.436061
Cl7   Cl    Cl    0.704320 0.747485 0.127169 -0.403715
Cl8   Cl    Cl    0.295659 0.593286 0.397603 -0.604453
Cl9   Cl    Cl    0.260408 0.957554 0.125086 -0.434808
Cl10  Cl    Cl    0.702494 0.747912 0.374152 -0.397781
Cl11  Cl    Cl    0.297512 0.882058 0.659673 -0.333433
Cl12  Cl    Cl    0.700192 0.021514 0.359907 -0.417624
Cl13  Cl    Cl    0.146976 0.480416 0.841823 -0.343076
Cl14  Cl    Cl    0.568312 0.696621 0.657655 -0.336579
Cl15  Cl    Cl    0.296329 0.878752 0.841393 -0.336699
Cl16  Cl    Cl    0.145149 0.479836 0.656036 -0.343906
Cl17  Cl    Cl    0.571011 0.698481 0.842347 -0.340643
Cl18  Cl    Cl    0.176815 0.333355 0.040731 -0.507456
Cl19  Cl    Cl    0.124134 0.801838 0.462507 -0.497050
Cl20  Cl    Cl    0.712793 0.872481 0.037216 -0.441855
Cl21  Cl    Cl    0.175290 0.330715 0.457150 -0.506555
Cl22  Cl    Cl    0.128681 0.811510 0.039800 -0.498760
Cl23  Cl    Cl    0.343931 0.301442 0.148667 -0.474993
Cl24  Cl    Cl    0.703122 0.871685 0.463879 -0.426652
Cl25  Cl    Cl    0.143625 0.803934 0.572656 -0.432066
Cl26  Cl    Cl    0.163957 0.335791 0.925963 -0.379626
Cl27  Cl    Cl    0.716512 0.839596 0.572715 -0.404449
Cl28  Cl    Cl    0.145680 0.825279 0.929198 -0.434267
Cl29  Cl    Cl    0.164069 0.333359 0.572360 -0.402452
Cl30  Cl    Cl    0.713242 0.843992 0.927808 -0.369590
Cl31  Cl    Cl    0.857029 0.502629 0.343349 -0.535523
Cl32  Cl    Cl    0.698758 0.015923 0.143511 -0.446831
Cl33  Cl    Cl    0.347560 0.301270 0.349780 -0.478819
Cl34  Cl    Cl    0.748978 0.062770 0.636564 -0.399764
Cl35  Cl    Cl    0.724035 0.435310 0.896525 -0.734828
Cl36  Cl    Cl    0.321049 0.235330 0.630095 -0.394451
Cr1   Cr    Cr6+3 0.487630 0.241180 0.750000 1.245459
Cr2   Cr    Cr6+3 0.753550 0.512370 0.750000 1.216114
Cr3   Cr    Cr6+3 0.758820 0.246450 0.750000 1.244513
Cr4   Cr    Cr6+3 0.241180 0.487630 0.250000 1.232891
Cr5   Cr    Cr6+3 0.512370 0.753550 0.250000 1.258110
Cr6   Cr    Cr6+3 0.246450 0.758820 0.250000 1.232707
H1    H     H_    0.739795 0.552190 0.087518 0.170670
H2    H     H_    0.735164 0.549422 0.411063 0.169411
H3    H     H_    0.791719 0.679047 0.449176 0.158873
H4    H     H_    0.883241 0.682400 0.401324 0.265627
H5    H     H_    0.800119 0.224980 0.093086 0.175323
H6    H     H_    0.896466 0.255476 0.042326 0.113107
H7    H     H_    0.854786 0.125927 0.075002 0.268385
H8    H     H_    0.392160 0.172774 0.413545 0.184276
H9    H     H_    0.295584 0.094871 0.464509 0.155359
H10   H     H_    0.246840 0.161957 0.423498 0.277297
H11   H     H_    0.870424 0.118047 0.555154 0.272392
H12   H     H_    0.885992 0.686479 0.099503 0.266017
H13   H     H_    0.911602 0.231491 0.512287 0.130077
H14   H     H_    0.848749 0.242942 0.569128 0.150651
H15   H     H_    0.731046 0.613337 0.970603 0.110170
H16   H     H_    0.839599 0.672875 0.921577 0.230215
H17   H     H_    0.873020 0.753096 0.978076 0.220082
H18   H     H_    0.333639 0.106034 0.547668 0.202957
H19   H     H_    0.470798 0.163175 0.511695 0.098999
H20   H     H_    0.479397 0.209745 0.573480 0.186727
H21   H     H_    0.898594 0.228577 0.956907 0.217068
H22   H     H_    0.800926 0.257796 0.919803 0.180918
H23   H     H_    0.795173 0.683903 0.051443 0.159663
H24   H     H_    0.828822 0.309904 0.980268 0.102238
H25   H     H_    0.717847 0.596969 0.527070 0.103943
H26   H     H_    0.861573 0.735715 0.524737 0.217839
H27   H     H_    0.818348 0.647538 0.578993 0.223231
H28   H     H_    0.476218 0.168091 0.987047 0.098657
H29   H     H_    0.340022 0.110329 0.950247 0.206895
H30   H     H_    0.486134 0.216213 0.925432 0.178896
H31   H     H_    0.753271 0.227601 0.403347 0.192083
H32   H     H_    0.868711 0.204943 0.428806 0.224332
H33   H     H_    0.821393 0.297728 0.459318 0.096862
H34   H     H_    0.394438 0.176076 0.084957 0.187275
H35   H     H_    0.247961 0.162678 0.074323 0.277171
H36   H     H_    0.299452 0.097340 0.033492 0.155071
O1    O     O_R   0.460870 0.120930 0.805240 -0.427336
O2    O     O_R   0.120930 0.460870 0.194760 -0.456195
O3    O     O_R   0.539130 0.660060 0.305240 -0.434829
O4    O     O_R   0.339940 0.879070 0.194760 -0.433816
O5    O     O_R   0.498910 0.350470 0.801870 -0.456008
O6    O     O_R   0.851560 0.501090 0.698130 -0.460017
O7    O     O_R   0.649530 0.148440 0.801870 -0.455097
O8    O     O_R   0.498910 0.350470 0.698130 -0.452193
O9    O     O_R   0.851560 0.501090 0.801870 -0.456806
O10   O     O_R   0.649530 0.148440 0.698130 -0.449163
O11   O     O_R   0.350470 0.498910 0.301870 -0.426121
O12   O     O_R   0.660060 0.539130 0.694760 -0.435014
O13   O     O_R   0.501090 0.851560 0.198130 -0.432585
O14   O     O_R   0.148440 0.649530 0.301870 -0.450275
O15   O     O_R   0.350470 0.498910 0.198130 -0.425882
O16   O     O_R   0.501090 0.851560 0.301870 -0.434616
O17   O     O_R   0.148440 0.649530 0.198130 -0.451119
O18   O     O_3   0.666667 0.333333 0.750000 -0.338465
O19   O     O_3   0.333333 0.666667 0.250000 -0.355179
O20   O     O_R   0.879070 0.339940 0.805240 -0.433836
O21   O     O_R   0.460870 0.120930 0.694760 -0.425697
O22   O     O_R   0.660060 0.539130 0.805240 -0.429979
O23   O     O_R   0.879070 0.339940 0.694760 -0.434010
O24   O     O_R   0.120930 0.460870 0.305240 -0.455730
O25   O     O_R   0.539130 0.660060 0.194760 -0.433664
O26   O     O_R   0.339940 0.879070 0.305240 -0.435218

loop_
_geom_bond_atom_site_label_1
_geom_bond_atom_site_label_2
_ccdc_geom_bond_type
C36   C89   A    
Cr2   O12   S    
Cr4   O24   S    
C14   H33   S    
C56   C76   A    
Cr5   O19   S    
C5    C114  A    
C43   C83   A    
C4    C115  A    
C10   C108  A    
C92   Cl13  S    
C3    Cl21  S    
C102  Cl9   S    
Cr5   O16   S    
C59   C85   A    
Cr3   O10   S    
C14   C46   S    
C37   C116  A    
C99   O13   A    
C18   H9    S    
C16   H2    S    
C34   C113  A    
C40   C46   A    
Cr4   O11   S    
Cr5   O13   S    
C22   H21   S    
C23   C42   S    
C62   Cl32  S    
C37   C90   A    
Cr6   O4    S    
Cr2   O9    S    
C64   C68   A    
Cr5   O3    S    
C16   C50   S    
C22   C43   S    
C2    C68   S    
C25   H28   S    
C10   Cl29  S    
C4    Cl22  S    
C23   H26   S    
C97   C111  A    
C24   O17   A    
C17   H7    S    
C40   C80   A    
Cr4   O15   S    
C28   C107  A    
Cr2   O18   S    
C47   C86   A    
C62   C89   A    
Cr1   O21   S    
Cr2   O6    S    
C62   C70   A    
C35   C114  A    
C34   C86   A    
C30   C83   A    
C19   H14   S    
C44   O7    A    
C22   H22   S    
C102  C115  A    
C61   C87   A    
C67   C98   A    
C51   C91   A    
C57   Cl2   S    
C55   C74   S    
C35   C87   A    
C26   C34   A    
C21   H18   S    
C95   Cl16  S    
C63   C69   A    
C16   H4    S    
C42   C82   A    
C7    C105  A    
C29   C108  A    
C120  Cl20  S    
C15   C51   S    
C88   O3    A    
C96   Cl15  S    
C52   C79   A    
C33   O6    A    
C7    Cl26  S    
C59   C67   A    
C101  Cl10  S    
C61   C71   A    
C44   O1    A    
C18   H8    S    
C14   H32   S    
Cr6   O19   S    
C53   Cl34  S    
C101  C114  A    
C38   C117  A    
C7    C118  A    
C97   Cl14  S    
C12   C47   S    
C19   C40   S    
C11   C120  A    
C26   C105  A    
C50   C90   A    
C75   C96   A    
Cr3   O7    S    
C74   C97   A    
C21   C45   S    
Cr6   O17   S    
C69   C103  A    
C9    C109  A    
C21   H20   S    
C59   Cl12  S    
C110  O14   A    
C94   C107  A    
C98   C112  A    
C100  C113  A    
C30   C109  A    
C1    C78   S    
C100  Cl5   S    
C56   Cl3   S    
C8    C111  A    
C53   C80   A    
C65   C100  A    
Cr4   O2    S    
C27   C80   A    
C25   H29   S    
C77   O10   A    
C25   C41   S    
C20   C39   S    
C60   C86   A    
C43   C49   A    
C5    Cl24  S    
C20   H16   S    
C27   C106  A    
Cr3   O23   S    
C66   C73   S    
C38   C91   A    
C17   H6    S    
C31   C84   A    
C71   C88   S    
C61   Cl33  S    
Cr1   O1    S    
C39   C79   A    
C13   O16   A    
C22   H24   S    
C44   C75   S    
C21   H19   S    
C19   H11   S    
C72   C77   S    
C58   C84   A    
C93   C106  A    
C5    C8    A    
C69   C110  S    
C11   Cl30  S    
Cr4   O19   S    
C28   C38   A    
C16   H3    S    
Cr3   O20   S    
C41   C81   A    
C57   C83   A    
C6    C106  A    
C48   C87   A    
C103  Cl8   S    
C63   Cl31  S    
C58   Cl36  S    
C24   C65   S    
C42   C50   A    
Cr1   O5    S    
C15   H34   S    
C14   H31   S    
Cr6   O26   S    
C60   C65   A    
C52   C73   A    
C88   O11   A    
C99   O4    A    
C11   C107  A    
C31   C35   A    
C117  C120  A    
C8    Cl27  S    
C72   C93   A    
C13   O26   A    
C17   C49   S    
C1    O5    A    
C6    C119  A    
C23   H27   S    
C70   C99   S    
C58   C74   A    
C39   C47   A    
C104  C117  A    
C13   C67   S    
C45   C48   A    
C15   H36   S    
C55   O8    A    
C54   Cl4   S    
Cr1   O18   S    
Cr3   O18   S    
C32   C112  A    
C28   C81   A    
C77   O21   A    
Cr1   O8    S    
C68   C104  A    
C73   C92   A    
C49   C89   A    
C55   O12   A    
C25   H30   S    
C18   C48   S    
C112  C119  A    
C70   C102  A    
C56   C82   A    
C20   H15   S    
C64   Cl23  S    
C18   H10   S    
C96   C109  A    
C9    Cl28  S    
C26   C79   A    
C30   C36   A    
C20   H17   S    
C3    C116  A    
C119  Cl19  S    
C46   C85   A    
C103  C116  A    
C29   C82   A    
C66   O20   A    
C3    C10   A    
C118  Cl18  S    
C12   H1    S    
C23   H25   S    
C66   O9    A    
C53   C72   A    
C57   C75   A    
C104  Cl7   S    
Cr6   O14   S    
C78   C94   A    
C15   H35   S    
C12   H23   S    
Cr5   O25   S    
C63   C90   A    
C2    O25   A    
C1    O22   A    
C71   C101  A    
C60   Cl1   S    
C19   H13   S    
C6    Cl25  S    
C95   C108  A    
C27   C32   A    
C113  C118  A    
C45   C84   A    
C92   C105  A    
C98   Cl6   S    
C33   C76   S    
C17   H5    S    
C24   O2    A    
C2    O15   A    
Cr2   O22   S    
C52   Cl35  S    
C29   C37   A    
C76   C95   A    
C12   H12   S    
C94   Cl17  S    
C31   C111  A    
C64   C91   A    
C4    C9    A    
C93   Cl11  S    
C36   C115  A    
C41   C51   A    
C54   C81   A    
C32   C85   A    
C33   O23   A    
C54   C78   A    
C110  O24   A    
