data_mof_unit_1703.cif
_audit_creation_date              2012-12-10T20:48:17-0500
_audit_creation_method            fapswitch 2.2
_symmetry_space_group_name_H-M    P1
_symmetry_Int_Tables_number       1
_space_group_crystal_system       triclinic
_cell_length_a                    10.693729
_cell_length_b                    8.915041
_cell_length_c                    8.099945
_cell_angle_alpha                 90.055932
_cell_angle_beta                  90.20745
_cell_angle_gamma                 90.524454
_cell_volume                      772.170715149

loop_
_atom_site_label
_atom_site_type_symbol
_atom_type_description
_atom_site_fract_x
_atom_site_fract_y
_atom_site_fract_z
_atom_type_partial_charge
C1    C     C_R   0.499988 0.217976 0.499949 0.937895
C2    C     C_R   0.257206 0.498044 0.499605 0.870897
C3    C     C_R   0.743110 0.505817 0.500477 0.853909
C4    C     C_R   0.498734 0.781947 0.499970 0.912397
C5    C     C_1   0.499463 0.065174 0.499895 -0.208420
C6    C     C_3   0.069934 0.381916 0.615982 -0.498846
C7    C     C_3   0.069216 0.465755 0.325703 -0.416161
C8    C     C_3   0.927240 0.384581 0.614319 -0.449358
C9    C     C_3   0.928125 0.482010 0.324347 -0.445242
C10   C     C_1   0.498994 0.934730 0.499956 -0.218308
C11   C     C_3   0.080841 0.670806 0.560154 0.361802
C12   C     C_3   0.929875 0.674551 0.565336 0.367519
C13   C     C_3   0.121709 0.507251 0.500039 0.059649
C14   C     C_3   0.879868 0.514329 0.502054 0.025885
H1    H     H_    0.105250 0.389017 0.744483 0.180493
H2    H     H_    0.110853 0.528523 0.222097 0.197828
H3    H     H_    0.891711 0.392414 0.742597 0.185680
H4    H     H_    0.899555 0.571193 0.236846 0.180904
H5    H     H_    0.101393 0.269911 0.572093 0.183782
H6    H     H_    0.092399 0.346916 0.296841 0.177658
H7    H     H_    0.891509 0.275362 0.565903 0.185983
H8    H     H_    0.886443 0.375443 0.276264 0.193996
N1    N     N_1   0.500000 0.500030 0.073640 -0.046493
N2    N     N_1   0.500000 0.500030 0.926360 -0.044954
O1    O     O_R   0.500000 0.285340 0.636850 -0.616371
O2    O     O_R   0.500000 0.285340 0.363150 -0.613070
O3    O     O_R   0.314790 0.499970 0.636880 -0.616536
O4    O     O_R   0.314790 0.499970 0.363120 -0.632262
O5    O     O_R   0.685210 0.499970 0.636880 -0.613372
O6    O     O_R   0.685210 0.499970 0.363120 -0.637767
O7    O     O_R   0.500000 0.714650 0.636900 -0.616117
O8    O     O_R   0.500000 0.714650 0.363100 -0.616795
Zn1   Zn    Zn3+2 0.500000 0.499990 0.682780 0.965538
Zn2   Zn    Zn3+2 0.500000 0.499990 0.317220 0.957825
N3    N     N_2   0.133022 0.695994 0.728000 -0.309976
H9    H     H_    0.119581 0.614625 0.815939 0.214045
C15   C     C_3   0.141112 0.845181 0.800687 -0.795726
H10   H     H_    0.208242 0.843010 0.905475 0.241988
H11   H     H_    0.049348 0.880007 0.849952 0.248186
H12   H     H_    0.176033 0.930748 0.712791 0.239680
N4    N     N_2   0.138574 0.787392 0.453375 -0.283203
H13   H     H_    0.230616 0.810635 0.483151 0.229362
C16   C     C_3   0.120052 0.807282 0.277140 -0.803999
H14   H     H_    0.126481 0.928770 0.248298 0.236551
H15   H     H_    0.028368 0.766975 0.232827 0.260431
H16   H     H_    0.196390 0.752269 0.207820 0.235973
N5    N     N_2   0.886770 0.697163 0.736792 -0.313957
H17   H     H_    0.914885 0.623473 0.826979 0.206417
C17   C     C_3   0.778698 0.785116 0.781388 -0.694665
H18   H     H_    0.724896 0.726745 0.879674 0.234379
H19   H     H_    0.715882 0.801830 0.675327 0.251404
H20   H     H_    0.809989 0.895718 0.829865 0.221081
N6    N     N_2   0.880828 0.793613 0.457008 -0.301169
H21   H     H_    0.797674 0.772921 0.396078 0.204168
C18   C     C_3   0.900593 0.951624 0.494574 -0.745469
H22   H     H_    0.813137 0.002044 0.541512 0.213990
H23   H     H_    0.925866 0.012295 0.379773 0.232966
H24   H     H_    0.975707 0.969437 0.586559 0.267976

loop_
_geom_bond_atom_site_label_1
_geom_bond_atom_site_label_2
_ccdc_geom_bond_type
C3    O6    A    
C2    O4    A    
C9    C14   S    
O7    Zn1   S    
C15   H10   S    
N2    Zn1   S    
C16   H15   S    
N4    H13   S    
C8    H3    S    
C7    C13   S    
C18   H22   S    
C17   H20   S    
N1    Zn2   S    
C11   N3    S    
C8    H7    S    
O4    Zn2   S    
C5    C10   T    
N5    C17   S    
C18   H23   S    
N6    H21   S    
O3    Zn1   S    
C6    C13   S    
C1    O1    A    
C6    H5    S    
N4    C16   S    
C4    O8    A    
C3    C14   S    
C16   H14   S    
C12   N5    S    
C1    C5    S    
C6    C8    S    
C7    H2    S    
N3    C15   S    
C12   C14   S    
C11   N4    S    
C15   H12   S    
C7    C9    S    
N6    C18   S    
C2    O3    A    
C1    O2    A    
C16   H16   S    
C9    H8    S    
C4    O7    A    
O6    Zn2   S    
N1    N2    T    
C4    C10   S    
N5    H17   S    
O5    Zn1   S    
C9    H4    S    
C11   C13   S    
C15   H11   S    
C17   H18   S    
C18   H24   S    
C3    O5    A    
C2    C13   S    
C8    C14   S    
O2    Zn2   S    
C6    H1    S    
C7    H6    S    
C12   N6    S    
C11   C12   S    
O1    Zn1   S    
C17   H19   S    
N3    H9    S    
O8    Zn2   S    
