data_mof_unit_2511.cif
_audit_creation_date              2012-12-10T20:40:53-0500
_audit_creation_method            fapswitch 2.2
_symmetry_space_group_name_H-M    P1
_symmetry_Int_Tables_number       1
_space_group_crystal_system       triclinic
_cell_length_a                    27.741597
_cell_length_b                    10.676511
_cell_length_c                    9.846464
_cell_angle_alpha                 90.116514
_cell_angle_beta                  90.1546
_cell_angle_gamma                 89.786107
_cell_volume                      2916.32292205

loop_
_atom_site_label
_atom_site_type_symbol
_atom_type_description
_atom_site_fract_x
_atom_site_fract_y
_atom_site_fract_z
_atom_type_partial_charge
C1    C     C_R   0.501344 0.260027 0.499983 0.891199
C2    C     C_R   0.278753 0.462670 0.620985 -0.097883
C3    C     C_R   0.253060 0.494264 0.503618 0.310556
C4    C     C_R   0.101813 0.494993 0.507333 -0.051753
C5    C     C_R   0.127488 0.381007 0.511624 -0.022216
C6    C     C_R   0.102487 0.267986 0.515690 -0.133033
C7    C     C_R   0.127327 0.608689 0.502667 -0.021993
C8    C     C_R   0.353441 0.497336 0.500763 -0.050792
C9    C     C_R   0.646649 0.498952 0.500723 -0.038547
C10   C     C_R   0.974589 0.381063 0.523770 0.046526
C11   C     C_R   0.974475 0.610408 0.489779 0.046547
C12   C     C_R   0.406040 0.499505 0.499987 0.893701
C13   C     C_R   0.949311 0.495862 0.506284 0.070992
C14   C     C_R   0.947767 0.270978 0.548385 -0.215368
C15   C     C_R   0.897803 0.272725 0.549348 -0.135676
C16   C     C_R   0.872692 0.384143 0.526460 -0.021615
C17   C     C_R   0.898248 0.496108 0.505158 -0.051631
C18   C     C_R   0.872615 0.608316 0.482652 -0.021925
C19   C     C_R   0.822215 0.606380 0.481577 0.505134
C20   C     C_R   0.822282 0.386557 0.525073 0.504562
C21   C     C_R   0.722005 0.488188 0.624450 -0.101871
C22   C     C_R   0.671941 0.489326 0.624051 -0.213686
C23   C     C_R   0.501214 0.740041 0.500130 0.885710
C24   C     C_R   0.672098 0.507459 0.377991 -0.214938
C25   C     C_R   0.722175 0.506665 0.378822 -0.101438
C26   C     C_R   0.747048 0.496977 0.501958 0.322233
C27   C     C_R   0.025596 0.380026 0.516999 0.046684
C28   C     C_R   0.050748 0.495291 0.507479 0.070978
C29   C     C_R   0.025457 0.610858 0.497860 0.046774
C30   C     C_R   0.052529 0.267202 0.518035 -0.214266
C31   C     C_R   0.102192 0.722028 0.499553 -0.133316
C32   C     C_R   0.947584 0.720792 0.464220 -0.215381
C33   C     C_R   0.897638 0.719527 0.461068 -0.135515
C34   C     C_R   0.593989 0.499794 0.500192 0.865142
C35   C     C_R   0.052238 0.723391 0.497571 -0.214530
C36   C     C_R   0.505436 0.063924 0.623400 0.039450
C37   C     C_R   0.508138 0.128592 0.500966 -0.071798
C38   C     C_R   0.519300 0.064407 0.380649 -0.190730
C39   C     C_R   0.519239 0.934874 0.380707 -0.207920
C40   C     C_R   0.508217 0.871372 0.501226 -0.068571
C41   C     C_R   0.505933 0.936341 0.623638 0.128688
C42   C     C_3   0.470585 0.928069 0.737833 -0.537359
C43   C     C_3   0.470151 0.070663 0.738643 -0.221328
C44   C     C_R   0.477207 0.591737 0.071318 0.210984
C45   C     C_R   0.177898 0.382857 0.510234 0.507580
C46   C     C_R   0.525989 0.412379 0.072044 -0.122995
C47   C     C_R   0.525965 0.412350 0.927882 -0.113898
C48   C     C_R   0.477246 0.591863 0.928598 0.207988
C49   C     C_3   0.424854 0.622683 0.922409 -0.488428
C50   C     C_3   0.424780 0.621993 0.076372 -0.501317
C51   C     C_R   0.177726 0.606258 0.502242 0.506183
C52   C     C_R   0.277347 0.526935 0.384727 -0.089796
C53   C     C_R   0.327404 0.528395 0.383181 -0.204213
C54   C     C_R   0.328804 0.464270 0.619739 -0.203995
H1    H     H_    0.348132 0.438944 0.711362 0.186088
H2    H     H_    0.257350 0.551485 0.293937 0.143313
H3    H     H_    0.121054 0.810717 0.498558 0.191517
H4    H     H_    0.963983 0.809838 0.442972 0.140602
H5    H     H_    0.653408 0.515019 0.281627 0.162673
H6    H     H_    0.878692 0.806583 0.441386 0.191712
H7    H     H_    0.741728 0.513372 0.284087 0.139026
H8    H     H_    0.035752 0.814841 0.498721 0.138417
H9    H     H_    0.524966 0.113263 0.285719 0.161208
H10   H     H_    0.524768 0.885529 0.285728 0.166284
H11   H     H_    0.436087 0.883687 0.706238 0.221319
H12   H     H_    0.259860 0.437483 0.713016 0.147700
H13   H     H_    0.487193 0.887345 0.830734 0.193572
H14   H     H_    0.486582 0.111271 0.832042 0.146774
H15   H     H_    0.546264 0.341729 0.126542 0.141335
H16   H     H_    0.546193 0.341629 0.873345 0.140990
H17   H     H_    0.417966 0.716884 0.878751 0.200048
H18   H     H_    0.403035 0.545985 0.877361 0.230186
H19   H     H_    0.417742 0.715655 0.121819 0.208198
H20   H     H_    0.403238 0.544079 0.119085 0.221250
H21   H     H_    0.121459 0.179086 0.516786 0.191584
H22   H     H_    0.653138 0.482400 0.719983 0.161852
H23   H     H_    0.741422 0.480879 0.719684 0.138870
H24   H     H_    0.878910 0.185862 0.568238 0.191563
H25   H     H_    0.964223 0.181775 0.570309 0.140511
H26   H     H_    0.036163 0.175925 0.517450 0.138387
H27   H     H_    0.345578 0.555284 0.290880 0.154053
N1    N     N_R   0.201726 0.494418 0.505510 -0.358572
N2    N     N_R   0.798359 0.496583 0.502726 -0.358636
N3    N     N_R   0.499670 0.499140 0.142800 -0.106665
N4    N     N_R   0.499670 0.499180 0.857150 -0.101090
O1    O     O_R   0.500010 0.316790 0.614690 -0.623166
O2    O     O_2   0.797266 0.279971 0.545019 -0.551076
O3    O     O_2   0.202665 0.714565 0.499171 -0.545483
O4    O     O_2   0.797134 0.713231 0.460523 -0.550245
O5    O     O_R   0.500000 0.316760 0.385350 -0.620972
O6    O     O_R   0.428760 0.500040 0.614660 -0.609810
O7    O     O_R   0.428750 0.500000 0.385310 -0.618085
O8    O     O_R   0.500000 0.683240 0.614650 -0.618016
O9    O     O_R   0.499990 0.683210 0.385310 -0.625735
O10   O     O_R   0.571250 0.500000 0.614690 -0.626232
O11   O     O_R   0.571240 0.499960 0.385340 -0.626603
O12   O     O_2   0.202998 0.274301 0.512657 -0.545672
Zn1   Zn    Zn3+2 0.500000 0.500020 0.653130 0.967878
Zn2   Zn    Zn3+2 0.500000 0.499980 0.346870 0.957258
C55   C     C_2   0.421976 0.127356 0.701597 0.978020
O13   O     O_2   0.404519 0.208541 0.774261 -0.636685
O14   O     O_R   0.397627 0.088204 0.584470 -0.798748
H28   H     H_    0.366060 0.134620 0.570433 0.351413

loop_
_geom_bond_atom_site_label_1
_geom_bond_atom_site_label_2
_ccdc_geom_bond_type
C10   C27   A    
C44   C48   A    
C21   C26   A    
O11   Zn2   S    
C1    O5    A    
C41   C42   S    
C12   O6    A    
C45   N1    A    
C32   H4    S    
O10   Zn1   S    
C6    H21   S    
C39   H10   S    
C28   C29   A    
C26   N2    S    
C43   C55   S    
C47   N4    A    
C16   C20   A    
C34   O11   A    
C50   H20   S    
C5    C6    A    
C9    C22   A    
C15   H24   S    
C23   C40   S    
C20   O2    S    
C53   H27   S    
C18   C19   A    
C46   H15   S    
N4    Zn1   S    
C46   C47   A    
C43   H14   S    
C49   H18   S    
C42   H11   S    
C22   H22   S    
C1    C37   S    
C30   H26   S    
C21   C22   A    
C27   C30   A    
C36   C41   A    
C4    C7    A    
C19   N2    A    
C4    C28   A    
C7    C31   A    
C34   O10   A    
C10   C14   A    
C50   H19   S    
C8    C54   A    
C39   C40   A    
C16   C17   A    
C44   N3    A    
C25   C26   A    
C5    C45   A    
C23   O8    A    
C8    C53   A    
C47   H16   S    
C37   C38   A    
C19   O4    S    
C8    C12   S    
C3    N1    S    
C55   O14   S    
C17   C18   A    
C25   H7    S    
C14   H25   S    
C24   C25   A    
C51   N1    A    
C46   N3    A    
C48   C49   S    
C6    C30   A    
C11   C32   A    
C33   H6    S    
C2    C54   A    
C42   H13   S    
C31   C35   A    
C42   C43   S    
O5    Zn2   S    
C52   C53   A    
C38   H9    S    
C44   C50   S    
C1    O1    A    
C54   H1    S    
C40   C41   A    
C48   N4    A    
N3    Zn2   S    
C12   O7    A    
C4    C5    A    
C2    H12   S    
C10   C13   A    
C51   O3    S    
C3    C52   A    
C9    C24   A    
C29   C35   A    
C23   O9    A    
C13   C17   A    
C32   C33   A    
C31   H3    S    
C2    C3    A    
C7    C51   A    
C45   O12   S    
C11   C13   A    
C38   C39   A    
O9    Zn2   S    
C24   H5    S    
C55   O13   D    
C9    C34   S    
C35   H8    S    
O6    Zn1   S    
O14   H28   S    
O1    Zn1   S    
C18   C33   A    
C52   H2    S    
C11   C29   A    
C36   C37   A    
C49   C50   S    
C49   H17   S    
C20   N2    A    
C21   H23   S    
C27   C28   A    
C14   C15   A    
C36   C43   S    
O8    Zn1   S    
C15   C16   A    
O7    Zn2   S    
