data_mof_unit_3066.cif
_audit_creation_date              2012-12-10T17:45:33-0500
_audit_creation_method            fapswitch 2.2
_symmetry_space_group_name_H-M    P1
_symmetry_Int_Tables_number       1
_space_group_crystal_system       triclinic
_cell_length_a                    11.504147
_cell_length_b                    10.698266
_cell_length_c                    9.978598
_cell_angle_alpha                 91.446663
_cell_angle_beta                  90.432031
_cell_angle_gamma                 93.87032
_cell_volume                      1224.86618378

loop_
_atom_site_label
_atom_site_type_symbol
_atom_type_description
_atom_site_fract_x
_atom_site_fract_y
_atom_site_fract_z
_atom_type_partial_charge
Br1   Br    Br    0.568968 0.128627 0.200966 -0.500444
Br2   Br    Br    0.703489 0.666145 0.858071 -0.461815
Br3   Br    Br    0.795716 0.788385 0.564731 -0.476497
C1    C     C_R   0.513057 0.261840 0.498780 0.934688
C2    C     C_R   0.538156 0.875341 0.496118 -0.148894
C3    C     C_R   0.339219 0.339219 0.132423 -0.031256
C4    C     C_R   0.282314 0.500867 0.499429 0.944424
C5    C     C_R   0.325907 0.215434 0.080843 -0.087174
C6    C     C_R   0.348614 0.196027 0.944368 -0.268865
C7    C     C_R   0.372370 0.300796 0.864291 -0.025745
C8    C     C_R   0.429029 0.410915 0.926118 0.042043
C9    C     C_R   0.423833 0.418387 0.069476 0.116327
C10   C     C_R   0.574919 0.575940 0.075520 -0.096954
C11   C     C_R   0.575655 0.575429 0.933798 0.317516
C12   C     C_R   0.719344 0.083236 0.804148 -0.159480
C13   C     C_R   0.511817 0.740594 0.500494 0.931325
C14   C     C_R   0.717297 0.494804 0.500144 0.915087
C15   C     C_1   0.161614 0.499227 0.497936 -0.090968
C16   C     C_1   0.059081 0.495987 0.497907 0.026526
C17   C     C_1   0.940125 0.491909 0.499177 0.055696
C18   C     C_1   0.837724 0.491106 0.500208 -0.076971
C19   C     C_R   0.644898 0.141722 0.718692 -0.156829
C20   C     C_2   0.279009 0.308024 0.764758 0.985510
C21   C     C_2   0.227826 0.395497 0.167838 0.954897
C22   C     C_2   0.276110 0.110787 0.162352 1.034718
C23   C     C_R   0.752299 0.964081 0.770619 -0.086458
C24   C     C_R   0.699641 0.897761 0.661368 0.312711
C25   C     C_R   0.603762 0.944804 0.595911 0.032827
C26   C     C_R   0.591059 0.074547 0.607398 0.030729
C27   C     C_R   0.541900 0.132295 0.495284 -0.152073
C28   C     C_R   0.528380 0.063091 0.373555 0.289148
C29   C     C_R   0.510897 0.935379 0.378611 -0.187800
H1    H     H_    0.321217 0.106430 0.896934 0.224694
H2    H     H_    0.641205 0.240842 0.736630 0.187990
H3    H     H_    0.762630 0.135995 0.886392 0.189316
H4    H     H_    0.825883 0.928328 0.821916 0.201945
H5    H     H_    0.483977 0.883332 0.287808 0.203479
H6    H     H_    0.637699 0.636399 0.132143 0.181090
H7    H     H_    0.120052 0.369639 0.729962 0.341379
H8    H     H_    0.061928 0.369621 0.231527 0.350012
H9    H     H_    0.213447 0.930232 0.167961 0.361657
N1    N     N_R   0.498930 0.498800 0.142780 -0.122083
N2    N     N_R   0.498900 0.498720 0.857170 -0.141734
O1    O     O_R   0.500000 0.316780 0.614690 -0.648984
O2    O     O_R   0.189148 0.386181 0.792866 -0.778987
O3    O     O_2   0.216711 0.506869 0.149585 -0.586022
O4    O     O_R   0.133520 0.321007 0.216321 -0.777840
O5    O     O_2   0.265630 0.125371 0.283562 -0.572999
O6    O     O_R   0.244358 0.994164 0.101478 -0.786907
O7    O     O_R   0.499990 0.316750 0.385360 -0.578732
O8    O     O_R   0.334450 0.500030 0.614670 -0.600218
O9    O     O_R   0.334440 0.500000 0.385330 -0.607493
O10   O     O_R   0.500010 0.683250 0.614640 -0.577370
O11   O     O_R   0.500000 0.683220 0.385310 -0.621501
O12   O     O_R   0.665560 0.500000 0.614670 -0.581496
O13   O     O_R   0.665550 0.499970 0.385330 -0.610080
O14   O     O_2   0.271694 0.235274 0.668020 -0.609758
Zn1   Zn    Zn3+2 0.500010 0.500020 0.653130 1.023233
Zn2   Zn    Zn3+2 0.499990 0.499980 0.346870 1.021464

loop_
_geom_bond_atom_site_label_1
_geom_bond_atom_site_label_2
_ccdc_geom_bond_type
N1    Zn2   S    
C5    C6    A    
H8    O4    S    
C3    C5    A    
C8    C9    A    
C8    N2    A    
C26   C27   A    
C20   O2    S    
C19   C26   A    
C7    C20   S    
C2    C25   A    
C6    C7    A    
C14   O12   A    
O1    Zn1   S    
C28   C29   A    
C14   O13   A    
O13   Zn2   S    
O10   Zn1   S    
H7    O2    S    
C2    C29   A    
C21   O3    D    
C4    C15   S    
Br3   C24   S    
C23   C24   A    
C3    C21   S    
O8    Zn1   S    
C10   C11   A    
C6    H1    S    
C5    C22   S    
C22   O5    D    
C10   H6    S    
Br2   C11   S    
O7    Zn2   S    
C23   H4    S    
C10   N1    A    
O9    Zn2   S    
C4    O9    A    
C22   O6    S    
O11   Zn2   S    
C3    C9    A    
C27   C28   A    
C19   H2    S    
C13   O11   A    
C7    C8    A    
C4    O8    A    
Br1   C28   S    
C17   C18   T    
C15   C16   T    
O12   Zn1   S    
C12   H3    S    
C24   C25   A    
C20   O14   D    
C13   O10   A    
C25   C26   A    
C2    C13   S    
C9    N1    A    
C1    O1    A    
N2    Zn1   S    
C29   H5    S    
C21   O4    S    
H9    O6    S    
C12   C19   A    
C1    C27   S    
C16   C17   S    
C1    O7    A    
C11   N2    A    
C12   C23   A    
C14   C18   S    
