data_mof_unit_3709.cif
_audit_creation_date              2012-12-10T16:36:39-0500
_audit_creation_method            fapswitch 2.2
_symmetry_space_group_name_H-M    P1
_symmetry_Int_Tables_number       1
_space_group_crystal_system       triclinic
_cell_length_a                    14.176725
_cell_length_b                    16.544195
_cell_length_c                    15.235121
_cell_angle_alpha                 90.002485
_cell_angle_beta                  92.432193
_cell_angle_gamma                 89.965877
_cell_volume                      3570.06376162

loop_
_atom_site_label
_atom_site_type_symbol
_atom_type_description
_atom_site_fract_x
_atom_site_fract_y
_atom_site_fract_z
_atom_type_partial_charge
C1    C     C_R   0.679827 0.845551 0.520547 0.492463
C2    C     C_R   0.945891 0.493837 0.105895 0.060646
C3    C     C_R   0.405139 0.640004 0.552771 -0.099851
C4    C     C_R   0.820015 0.794970 0.602798 0.042746
C5    C     C_R   0.904482 0.836840 0.589831 -0.077782
C6    C     C_R   0.973144 0.842785 0.658179 -0.104357
C7    C     C_R   0.957610 0.807410 0.739694 -0.090336
C8    C     C_R   0.873203 0.766348 0.753150 -0.104427
C9    C     C_R   0.804314 0.760229 0.684988 -0.083591
C10   C     C_R   0.832114 0.197343 0.591941 0.048230
C11   C     C_R   0.837823 0.235636 0.674365 -0.055530
C12   C     C_R   0.921975 0.232754 0.725764 -0.090687
C13   C     C_R   0.619339 0.988735 0.126432 -0.004400
C14   C     C_R   0.999122 0.188834 0.697107 -0.091502
C15   C     C_R   0.992360 0.147672 0.616963 -0.108113
C16   C     C_R   0.909367 0.152213 0.564163 -0.080879
C17   C     C_R   0.117986 0.491001 0.125885 -0.011289
C18   C     C_R   0.627745 0.978719 0.036222 0.076421
C19   C     C_R   0.125800 0.478563 0.035945 0.078523
C20   C     C_2   0.248887 0.220232 0.471977 -0.052175
C21   C     C_2   0.246289 0.781601 0.475389 -0.051995
C22   C     C_2   0.750237 0.721376 0.470209 -0.047141
C23   C     C_2   0.748006 0.280006 0.473660 -0.050618
C24   C     C_2   0.750392 0.783837 0.528522 -0.024748
C25   C     C_R   0.680480 0.153919 0.521306 0.504870
C26   C     C_2   0.752047 0.215062 0.528848 -0.026724
C27   C     C_2   0.250855 0.284217 0.528184 -0.025600
C28   C     C_2   0.252656 0.714357 0.527095 -0.025862
C29   C     C_R   0.319881 0.156044 0.480611 0.487646
C30   C     C_R   0.319872 0.843921 0.480787 0.486561
C31   C     C_R   0.820769 0.656746 0.479598 0.493354
C32   C     C_R   0.820440 0.343386 0.479993 0.495040
C33   C     C_R   0.520358 0.000106 0.260097 0.509059
C34   C     C_R   0.020222 0.500131 0.260107 0.494391
C35   C     C_R   0.477730 0.999896 0.737573 0.505236
C36   C     C_R   0.179537 0.345275 0.520083 0.500209
C37   C     C_R   0.976393 0.499834 0.737463 0.504932
C38   C     C_R   0.529022 0.997111 0.162896 -0.008376
C39   C     C_R   0.027977 0.496340 0.162970 -0.017652
C40   C     C_R   0.471325 0.998815 0.831982 0.038162
C41   C     C_R   0.969287 0.498310 0.831993 0.037231
C42   C     C_R   0.375543 0.998987 0.958141 -0.068461
C43   C     C_R   0.873418 0.494310 0.958304 -0.070714
C44   C     C_R   0.382096 0.998570 0.867908 0.053414
C45   C     C_R   0.880037 0.495849 0.867920 0.052439
C46   C     C_R   0.554357 0.997063 0.885931 -0.043960
C47   C     C_R   0.180054 0.654286 0.520431 0.503251
C48   C     C_R   0.052087 0.496391 0.886002 -0.043484
C49   C     C_R   0.707313 0.992449 0.182168 0.090910
C50   C     C_R   0.743248 0.921804 0.222048 -0.055758
C51   C     C_R   0.805257 0.927235 0.295549 -0.090337
C52   C     C_R   0.833041 0.003005 0.327948 -0.068968
C53   C     C_R   0.803822 0.073273 0.283801 -0.091709
C54   C     C_R   0.741409 0.068176 0.210604 -0.077750
C55   C     C_R   0.206883 0.507770 0.176921 0.101857
C56   C     C_R   0.265843 0.444890 0.207637 -0.047268
C57   C     C_R   0.349924 0.462676 0.254950 -0.107022
C58   C     C_R   0.547655 0.990376 0.978298 -0.004448
C59   C     C_R   0.376633 0.542989 0.269713 -0.095999
C60   C     C_R   0.319483 0.605644 0.236410 -0.119509
C61   C     C_R   0.234909 0.588172 0.190255 -0.086701
C62   C     C_R   0.645325 0.015212 0.845694 0.034456
C63   C     C_R   0.687642 0.959020 0.790495 -0.096844
C64   C     C_R   0.774927 0.976287 0.755841 -0.120705
C65   C     C_R   0.821344 0.048315 0.777592 -0.102232
C66   C     C_R   0.778856 0.104926 0.831427 -0.119350
C67   C     C_R   0.690069 0.089404 0.863672 -0.094363
C68   C     C_R   0.142891 0.513960 0.845525 0.034701
C69   C     C_R   0.045512 0.488546 0.978233 -0.004563
C70   C     C_R   0.185782 0.455919 0.793138 -0.096733
C71   C     C_R   0.273098 0.472115 0.758347 -0.120852
C72   C     C_R   0.318656 0.545233 0.776506 -0.102577
C73   C     C_R   0.275210 0.604083 0.826825 -0.118686
C74   C     C_R   0.186616 0.589189 0.859954 -0.092104
C75   C     C_R   0.681353 0.717627 0.393255 0.029894
C76   C     C_R   0.713884 0.712610 0.307490 -0.077851
C77   C     C_R   0.649713 0.711349 0.235164 -0.119739
C78   C     C_R   0.552864 0.716880 0.247692 -0.106028
C79   C     C_R   0.520007 0.721299 0.332708 -0.124951
C80   C     C_R   0.456973 0.996118 0.014209 0.016877
C81   C     C_R   0.583633 0.719619 0.404975 -0.093889
C82   C     C_R   0.672705 0.286742 0.402778 0.032367
C83   C     C_R   0.696143 0.281040 0.314346 -0.072340
C84   C     C_R   0.625046 0.280183 0.247850 -0.112145
C85   C     C_R   0.530276 0.284835 0.269194 -0.109382
C86   C     C_R   0.506528 0.292051 0.356964 -0.120077
C87   C     C_R   0.577479 0.294187 0.423408 -0.084244
C88   C     C_R   0.175761 0.213084 0.399144 0.032447
C89   C     C_R   0.114229 0.146618 0.395657 -0.065679
C90   C     C_R   0.046977 0.139052 0.326493 -0.116595
C91   C     C_R   0.954927 0.492149 0.014387 0.016468
C92   C     C_R   0.039515 0.198022 0.260965 -0.107368
C93   C     C_R   0.100964 0.263986 0.263471 -0.114378
C94   C     C_R   0.169759 0.270907 0.331587 -0.088457
C95   C     C_R   0.165750 0.795110 0.410708 0.030919
C96   C     C_R   0.114080 0.867441 0.412797 -0.066078
C97   C     C_R   0.045424 0.884339 0.347089 -0.115583
C98   C     C_R   0.024883 0.828252 0.280495 -0.110123
C99   C     C_R   0.074588 0.755530 0.278615 -0.122096
C100  C     C_R   0.145957 0.739665 0.342376 -0.096508
C101  C     C_R   0.319686 0.295045 0.603174 0.044657
C102  C     C_R   0.447492 0.998922 0.105482 0.060059
C103  C     C_R   0.400668 0.342371 0.593229 -0.096009
C104  C     C_R   0.469319 0.347672 0.661701 -0.117542
C105  C     C_R   0.456967 0.306397 0.740513 -0.089695
C106  C     C_R   0.375610 0.260263 0.751272 -0.099532
C107  C     C_R   0.306822 0.254749 0.682961 -0.075840
C108  C     C_R   0.336220 0.692221 0.584416 0.051030
C109  C     C_R   0.350719 0.727993 0.667622 -0.045855
C110  C     C_R   0.436370 0.716672 0.715144 -0.091551
C111  C     C_R   0.505661 0.666173 0.682250 -0.104809
C112  C     C_R   0.489207 0.626541 0.602035 -0.135030
H1    H     H_    0.305458 0.001270 0.983705 0.180187
H2    H     H_    0.826131 0.131737 0.308754 0.096673
H3    H     H_    0.713668 0.123127 0.180750 0.088239
H4    H     H_    0.247011 0.382633 0.194321 0.097433
H5    H     H_    0.394708 0.414346 0.279544 0.102594
H6    H     H_    0.441946 0.556510 0.306068 0.119597
H7    H     H_    0.340024 0.667907 0.246004 0.094491
H8    H     H_    0.191482 0.637207 0.164338 0.086220
H9    H     H_    0.757926 0.993605 0.984162 0.250064
H10   H     H_    0.704186 0.901384 0.961324 0.238538
H11   H     H_    0.255288 0.495219 0.982778 0.253277
H12   H     H_    0.803348 0.495009 0.983985 0.178071
H13   H     H_    0.203984 0.401369 0.962449 0.238381
H14   H     H_    0.295908 0.949394 0.772935 0.229778
H15   H     H_    0.297652 0.051908 0.774194 0.229434
H16   H     H_    0.795158 0.446706 0.771980 0.229651
H17   H     H_    0.794628 0.549166 0.775048 0.230164
H18   H     H_    0.653971 0.901600 0.775680 0.123832
H19   H     H_    0.807326 0.933482 0.713165 0.128591
H20   H     H_    0.890363 0.059769 0.752945 0.127283
H21   H     H_    0.814832 0.160469 0.849254 0.104582
H22   H     H_    0.657896 0.133546 0.905594 0.105489
H23   H     H_    0.338092 0.955033 0.174733 0.265157
H24   H     H_    0.152596 0.397821 0.780879 0.122255
H25   H     H_    0.306103 0.427611 0.718409 0.133220
H26   H     H_    0.387790 0.555618 0.751845 0.131918
H27   H     H_    0.310394 0.660800 0.841228 0.104483
H28   H     H_    0.153694 0.634781 0.899510 0.106744
H29   H     H_    0.788865 0.710793 0.296560 0.103232
H30   H     H_    0.675224 0.707729 0.169317 0.106604
H31   H     H_    0.503404 0.717604 0.191604 0.111911
H32   H     H_    0.445315 0.726019 0.343284 0.099823
H33   H     H_    0.556478 0.720813 0.469964 0.143971
H34   H     H_    0.348096 0.059426 0.173671 0.262497
H35   H     H_    0.769210 0.275640 0.297098 0.096220
H36   H     H_    0.643376 0.274938 0.179844 0.100115
H37   H     H_    0.475275 0.283149 0.217730 0.107901
H38   H     H_    0.433158 0.295739 0.373605 0.099523
H39   H     H_    0.558380 0.300004 0.491035 0.127063
H40   H     H_    0.118745 0.100472 0.446067 0.094127
H41   H     H_    0.001134 0.087172 0.323460 0.095245
H42   H     H_    0.986776 0.192155 0.207862 0.107324
H43   H     H_    0.095757 0.309277 0.212237 0.109631
H44   H     H_    0.218756 0.320901 0.331669 0.121111
H45   H     H_    0.842020 0.549364 0.173127 0.258364
H46   H     H_    0.128702 0.911706 0.463984 0.097370
H47   H     H_    0.009551 0.941602 0.347253 0.093553
H48   H     H_    0.971396 0.841527 0.229749 0.112250
H49   H     H_    0.059153 0.712275 0.226699 0.100139
H50   H     H_    0.186931 0.685068 0.337290 0.136556
H51   H     H_    0.411031 0.374068 0.532191 0.098411
H52   H     H_    0.532132 0.383602 0.653586 0.100740
H53   H     H_    0.510281 0.310360 0.793323 0.109140
H54   H     H_    0.366148 0.228367 0.812301 0.109555
H55   H     H_    0.244725 0.217894 0.691319 0.092466
H56   H     H_    0.841097 0.444706 0.177136 0.261450
H57   H     H_    0.298024 0.768106 0.693113 0.097878
H58   H     H_    0.448860 0.746812 0.777611 0.101912
H59   H     H_    0.571575 0.657014 0.719383 0.102374
H60   H     H_    0.542635 0.587018 0.576916 0.105112
H61   H     H_    0.395016 0.611778 0.488904 0.114288
H62   H     H_    0.917589 0.863500 0.526544 0.099640
H63   H     H_    0.038531 0.874459 0.647821 0.097926
H64   H     H_    0.010949 0.811841 0.792436 0.108573
H65   H     H_    0.861371 0.738931 0.816238 0.108521
H66   H     H_    0.739679 0.727454 0.695587 0.096746
H67   H     H_    0.717175 0.863397 0.200678 0.110667
H68   H     H_    0.779370 0.271622 0.696082 0.096482
H69   H     H_    0.927473 0.264846 0.787686 0.102279
H70   H     H_    0.063992 0.186484 0.737123 0.097968
H71   H     H_    0.052144 0.113645 0.595020 0.088985
H72   H     H_    0.906554 0.123362 0.500294 0.096068
H73   H     H_    0.828341 0.872920 0.329739 0.105464
H74   H     H_    0.876409 0.007421 0.387881 0.083310
N1    N     N_3   0.353875 0.006021 0.137604 -0.650835
N2    N     N_3   0.852166 0.495742 0.138472 -0.653848
N3    N     N_3   0.715931 0.947336 0.007547 -0.648145
N4    N     N_3   0.214663 0.448568 0.007328 -0.644674
N5    N     N_3   0.296857 0.000244 0.813739 -0.654064
N6    N     N_3   0.794861 0.496904 0.813679 -0.654379
O1    O     O_3   0.500000 0.000000 0.500000 -0.438191
O2    O     O_R   0.885830 0.337110 0.539910 -0.531426
O3    O     O_R   0.692160 0.095230 0.468550 -0.544501
O4    O     O_R   0.692160 0.904770 0.468550 -0.544071
O5    O     O_R   0.192160 0.595230 0.468550 -0.558019
O6    O     O_R   0.192160 0.404770 0.468550 -0.554863
O7    O     O_R   0.316720 0.904790 0.427870 -0.540860
O8    O     O_R   0.316720 0.095210 0.427870 -0.541552
O9    O     O_R   0.816720 0.404790 0.427870 -0.538509
O10   O     O_R   0.816720 0.595210 0.427870 -0.541478
O11   O     O_R   0.594900 0.000000 0.310900 -0.525441
O12   O     O_3   0.000000 0.500000 0.500000 -0.439672
O13   O     O_R   0.094900 0.500000 0.310900 -0.541552
O14   O     O_R   0.483090 0.932320 0.697550 -0.559331
O15   O     O_R   0.483090 0.067680 0.697550 -0.535141
O16   O     O_R   0.983090 0.432320 0.697550 -0.558427
O17   O     O_R   0.983090 0.567680 0.697550 -0.534161
O18   O     O_R   0.438930 1.000000 0.294000 -0.551906
O19   O     O_R   0.938930 0.500000 0.294000 -0.553986
O20   O     O_R   0.605310 0.837110 0.563680 -0.552057
O21   O     O_R   0.605310 0.162890 0.563680 -0.542076
O22   O     O_R   0.105310 0.337110 0.563680 -0.535627
O23   O     O_R   0.105310 0.662890 0.563680 -0.529003
O24   O     O_R   0.385830 0.162890 0.539910 -0.534198
O25   O     O_R   0.385830 0.837110 0.539910 -0.540497
O26   O     O_R   0.885830 0.662890 0.539910 -0.530281
Zn1   Zn    Zn3+2 0.493670 0.096680 0.574000 0.938520
Zn2   Zn    Zn3+2 0.493670 0.903320 0.574000 0.915545
Zn3   Zn    Zn3+2 0.993670 0.596680 0.574000 0.946932
Zn4   Zn    Zn3+2 0.993670 0.403320 0.574000 0.930600
Zn5   Zn    Zn3+2 0.617760 1.000000 0.438070 0.940815
Zn6   Zn    Zn3+2 0.117760 0.500000 0.438070 0.925693
Zn7   Zn    Zn3+2 0.394920 1.000000 0.413930 0.925777
Zn8   Zn    Zn3+2 0.894920 0.500000 0.413930 0.924696

loop_
_geom_bond_atom_site_label_1
_geom_bond_atom_site_label_2
_ccdc_geom_bond_type
C101  C107  A    
O1    Zn2   S    
C96   H46   S    
C55   C56   A    
C28   C47   S    
C42   C80   A    
C93   C94   A    
H56   N2    S    
C23   C82   S    
O12   Zn3   S    
O17   Zn3   S    
C5    H62   S    
C111  C112  A    
C73   H27   S    
H45   N2    S    
C48   C69   A    
O5    Zn6   S    
C49   C50   A    
C97   C98   A    
O21   Zn1   S    
C7    C8    A    
C71   H25   S    
C85   C86   A    
C108  C109  A    
O25   Zn2   S    
C40   C46   A    
C52   H74   S    
C13   C18   A    
C46   C62   S    
C83   C84   A    
C97   H47   S    
O10   Zn8   S    
C36   O6    A    
C86   H38   S    
C44   N5    S    
H9    N3    S    
C5    C6    A    
C4    C24   S    
C57   C59   A    
C6    H63   S    
C68   C74   A    
C49   C54   A    
H17   N6    S    
C55   C61   A    
C56   C57   A    
C60   H7    S    
C17   C39   A    
C63   H18   S    
C50   H67   S    
C32   O9    A    
C23   C26   D    
C110  C111  A    
C31   O10   A    
O22   Zn4   S    
C36   O22   A    
C77   H30   S    
C2    C39   A    
C3    H61   S    
C89   H40   S    
C95   C96   A    
C109  H57   S    
C8    C9    A    
O19   Zn8   S    
C47   O23   A    
O24   Zn1   S    
H13   N4    S    
C17   C55   S    
C111  H59   S    
C25   O3    A    
C58   C80   A    
O2    Zn4   S    
C31   O26   A    
C15   C16   A    
C76   H29   S    
C10   C26   S    
C72   H26   S    
C66   C67   A    
C69   C91   A    
C59   C60   A    
C101  C103  A    
C7    H64   S    
C87   H39   S    
O12   Zn6   S    
C1    O20   A    
C70   H24   S    
C2    C91   A    
C42   C44   A    
C22   C75   S    
O23   Zn3   S    
H23   N1    S    
C104  C105  A    
C14   H70   S    
C18   C58   A    
C107  H55   S    
C20   C29   S    
C84   H36   S    
C34   O13   A    
O9    Zn8   S    
C45   N6    S    
C88   C94   A    
C22   C31   S    
C51   C52   A    
H34   N1    S    
C93   H43   S    
C67   H22   S    
C84   C85   A    
C32   O2    A    
C34   O19   A    
C79   C81   A    
C95   C100  A    
C75   C81   A    
C29   O24   A    
C21   C95   S    
O14   Zn2   S    
C25   C26   S    
C77   C78   A    
C74   H28   S    
C33   O11   A    
C54   H3    S    
H15   N5    S    
C53   H2    S    
C34   C39   S    
C15   H71   S    
C60   C61   A    
H16   N6    S    
C2    N2    S    
O6    Zn6   S    
C75   C76   A    
C62   C63   A    
C51   H73   S    
C66   H21   S    
O7    Zn7   S    
C33   O18   A    
C42   H1    S    
C90   C92   A    
C12   H69   S    
C64   H19   S    
O1    Zn5   S    
C3    C112  A    
C29   O8    A    
C96   C97   A    
C1    O4    A    
C50   C51   A    
C56   H4    S    
O11   Zn5   S    
H11   N4    S    
C76   C77   A    
C90   H41   S    
C43   C45   A    
C37   O17   A    
C13   C38   A    
C70   C71   A    
C30   O25   A    
C83   H35   S    
C79   H32   S    
C62   C67   A    
C35   O15   A    
C21   C28   D    
C12   C14   A    
C65   C66   A    
C59   H6    S    
C81   H33   S    
C8    H65   S    
C3    C108  A    
O18   Zn7   S    
C13   C49   S    
C19   C69   A    
O12   Zn8   S    
H10   N3    S    
C73   C74   A    
C106  H54   S    
C65   H20   S    
C52   C53   A    
O26   Zn3   S    
C57   H5    S    
C105  C106  A    
O1    Zn1   S    
C99   H49   S    
C41   C45   A    
O12   Zn4   S    
C86   C87   A    
O15   Zn1   S    
C33   C38   S    
C35   O14   A    
C98   H48   S    
C72   C73   A    
C48   C68   S    
C104  H52   S    
C92   H42   S    
C11   C12   A    
C16   H72   S    
C53   C54   A    
C6    C7    A    
C20   C27   D    
C27   C36   S    
C85   H37   S    
O20   Zn2   S    
C21   C30   S    
O13   Zn6   S    
C103  H51   S    
C102  N1    S    
C99   C100  A    
C64   C65   A    
C25   O21   A    
C35   C40   S    
C89   C90   A    
O1    Zn7   S    
C71   C72   A    
C38   C102  A    
C10   C16   A    
C78   H31   S    
C23   C32   S    
O3    Zn5   S    
C78   C79   A    
C112  H60   S    
C28   C108  S    
C4    C5    A    
C20   C88   S    
C92   C93   A    
C37   O16   A    
C41   C48   A    
C27   C101  S    
C30   O7    A    
C22   C24   D    
O8    Zn7   S    
C37   C41   S    
H14   N5    S    
C43   C91   A    
O4    Zn5   S    
C10   C11   A    
C19   N4    S    
C63   C64   A    
C17   C19   A    
C40   C44   A    
C88   C89   A    
C110  H58   S    
C1    C24   S    
C94   H44   S    
C98   C99   A    
C106  C107  A    
C80   C102  A    
C103  C104  A    
C68   C70   A    
C105  H53   S    
C14   C15   A    
C47   O5    A    
C18   N3    S    
C100  H50   S    
C11   H68   S    
C82   C83   A    
C4    C9    A    
C109  C110  A    
O16   Zn4   S    
C43   H12   S    
C46   C58   A    
C9    H66   S    
C82   C87   A    
C61   H8    S    
