data_mof_unit_4652.cif
_audit_creation_date              2012-12-11T15:18:33-0500
_audit_creation_method            fapswitch 2.2
_symmetry_space_group_name_H-M    P1
_symmetry_Int_Tables_number       1
_space_group_crystal_system       triclinic
_cell_length_a                    6.935783
_cell_length_b                    19.878809
_cell_length_c                    23.891838
_cell_angle_alpha                 93.652414
_cell_angle_beta                  91.250802
_cell_angle_gamma                 88.773007
_cell_volume                      3285.95375296

loop_
_atom_site_label
_atom_site_type_symbol
_atom_type_description
_atom_site_fract_x
_atom_site_fract_y
_atom_site_fract_z
_atom_type_partial_charge
O1    O     O_R   0.620100 0.812200 0.810870 -0.533207
O2    O     O_R   0.379900 0.187800 0.189130 -0.533208
O3    O     O_R   0.296960 0.671650 0.794750 -0.537906
O4    O     O_R   0.703040 0.328350 0.205250 -0.537906
O5    O     O_R   0.120160 0.687800 0.689130 -0.539592
O6    O     O_R   0.879840 0.312200 0.310870 -0.539592
C1    C     C_R   0.468596 0.647236 0.804965 0.699594
C2    C     C_R   0.531404 0.352764 0.195035 0.699595
O7    O     O_R   0.290810 0.810670 0.817290 -0.546391
O8    O     O_R   0.709190 0.189330 0.182710 -0.546387
O9    O     O_R   0.113980 0.827820 0.711840 -0.537291
O10   O     O_R   0.886020 0.172180 0.288160 -0.537289
C3    C     C_R   0.459129 0.834404 0.832352 0.718264
C4    C     C_R   0.540872 0.165594 0.167649 0.718260
O11   O     O_R   0.626290 0.672180 0.788160 -0.535104
O12   O     O_R   0.373710 0.327820 0.211840 -0.535104
O13   O     O_3   0.451520 0.755460 0.715370 -0.371033
O14   O     O_3   0.548480 0.244540 0.284630 -0.371035
V1    V     V_3+5 0.179200 0.748980 0.756420 1.411005
V2    V     V_3+5 0.820800 0.251020 0.243580 1.411017
O15   O     O_R   0.783880 0.828350 0.705250 -0.543046
O16   O     O_R   0.216120 0.171650 0.294750 -0.543050
C5    C     C_R   0.950530 0.852408 0.694700 0.714277
C6    C     C_R   0.049470 0.147592 0.305300 0.714273
O17   O     O_R   0.790030 0.689320 0.682700 -0.543749
O18   O     O_R   0.209970 0.310680 0.317300 -0.543749
C7    C     C_R   0.958873 0.668279 0.665555 0.710082
C8    C     C_R   0.041127 0.331721 0.334445 0.710080
V3    V     V_3+5 0.678400 0.751010 0.743570 1.407692
V4    V     V_3+5 0.321600 0.248990 0.256430 1.407697
O19   O     O_3   0.955950 0.744540 0.784620 -0.365107
O20   O     O_3   0.044050 0.255460 0.215380 -0.365102
C9    C     C_R   0.181898 0.425918 0.396710 -0.221589
C10   C     C_R   0.818102 0.574082 0.603290 -0.221590
C11   C     C_R   0.031205 0.380649 0.384144 -0.081772
C12   C     C_R   0.968795 0.619351 0.615856 -0.081772
C13   C     C_R   0.868599 0.383307 0.418632 -0.221612
C14   C     C_R   0.131401 0.616693 0.581368 -0.221612
C15   C     C_R   0.856294 0.430082 0.465187 0.090033
C16   C     C_R   0.143706 0.569918 0.534813 0.090032
C17   C     C_R   0.006462 0.476005 0.476875 0.052969
C18   C     C_R   0.993538 0.523995 0.523125 0.052969
C19   C     C_R   0.169369 0.474100 0.442339 0.091034
C20   C     C_R   0.830631 0.525900 0.557661 0.091034
C21   C     C_R   0.696235 0.431863 0.500273 -0.191794
C22   C     C_R   0.303765 0.568137 0.499727 -0.191794
C23   C     C_R   0.683696 0.479229 0.546104 -0.183591
C24   C     C_R   0.316304 0.520771 0.453896 -0.183591
H1    H     H_    0.307075 0.424631 0.370226 0.121053
H2    H     H_    0.692925 0.575369 0.629774 0.121054
H3    H     H_    0.752225 0.348457 0.409540 0.126028
H4    H     H_    0.247776 0.651543 0.590460 0.126028
H5    H     H_    0.579817 0.396863 0.492055 0.134021
H6    H     H_    0.420183 0.603137 0.507945 0.134021
H7    H     H_    0.558111 0.479629 0.572329 0.134816
H8    H     H_    0.441889 0.520371 0.427671 0.134816
C25   C     C_R   0.954049 0.912733 0.661736 -0.040616
C26   C     C_R   0.045951 0.087267 0.338264 -0.040616
C27   C     C_R   0.938316 0.034161 0.662412 -0.161790
C28   C     C_R   0.061680 0.965839 0.337587 -0.161790
C29   C     C_R   0.957072 0.975619 0.690933 -0.230695
C30   C     C_R   0.042924 0.024381 0.309067 -0.230698
C31   C     C_R   0.945730 0.908405 0.602214 0.109903
C32   C     C_R   0.054272 0.091595 0.397786 0.109904
C33   C     C_R   0.965999 0.968691 0.572639 0.051454
C34   C     C_R   0.034003 0.031309 0.427361 0.051455
C35   C     C_R   0.936963 0.031704 0.603366 0.095672
C36   C     C_R   0.063036 0.968295 0.396634 0.095673
C37   C     C_R   0.010817 0.969566 0.514173 0.012447
C38   C     C_R   0.989186 0.030434 0.485827 0.012446
C39   C     C_R   0.911772 0.087373 0.515906 -0.185449
C40   C     C_R   0.088231 0.912627 0.484094 -0.185448
C41   C     C_R   0.900195 0.090517 0.574310 0.149066
C42   C     C_R   0.099806 0.909482 0.425690 0.149066
H9    H     H_    0.037619 0.020638 0.263647 0.121679
H10   H     H_    0.962374 0.979361 0.736353 0.121677
H11   H     H_    0.926374 0.081399 0.687287 0.135032
H12   H     H_    0.073619 0.918601 0.312713 0.135032
H13   H     H_    0.861176 0.130550 0.494248 0.150279
H14   H     H_    0.138829 0.869451 0.505751 0.150279
C43   C     C_R   0.489041 0.585807 0.836344 -0.045727
C44   C     C_R   0.510959 0.414193 0.163656 -0.045727
C45   C     C_R   0.599689 0.469819 0.838458 -0.161859
C46   C     C_R   0.400313 0.530181 0.161542 -0.161859
C47   C     C_R   0.561570 0.526842 0.808904 -0.165537
C48   C     C_R   0.438432 0.473158 0.191096 -0.165538
C49   C     C_R   0.455590 0.587463 0.894316 -0.215125
C50   C     C_R   0.544409 0.412536 0.105684 -0.215124
C51   C     C_R   0.498194 0.530237 0.925950 0.085752
C52   C     C_R   0.501806 0.469763 0.074050 0.085752
C53   C     C_R   0.570566 0.471099 0.896458 0.139253
C54   C     C_R   0.429435 0.528901 0.103542 0.139253
C55   C     C_R   0.475172 0.529787 0.985615 0.057716
C56   C     C_R   0.524829 0.470213 0.014384 0.057715
C57   C     C_R   0.594957 0.413051 0.982494 -0.187354
C58   C     C_R   0.405044 0.586949 0.017506 -0.187355
C59   C     C_R   0.616650 0.413647 0.924926 -0.201173
C60   C     C_R   0.383352 0.586353 0.075074 -0.201173
H15   H     H_    0.671963 0.368473 0.902401 0.123253
H16   H     H_    0.328040 0.631527 0.097600 0.123253
H17   H     H_    0.597123 0.365358 0.086564 0.096175
H18   H     H_    0.402874 0.634642 0.913436 0.096174
H19   H     H_    0.409558 0.474806 0.235565 0.105401
H20   H     H_    0.590444 0.525194 0.764435 0.105401
H21   H     H_    0.655892 0.424772 0.815987 0.113659
H22   H     H_    0.344111 0.575228 0.184013 0.113659
H23   H     H_    0.635559 0.366593 0.000786 0.123199
H24   H     H_    0.364443 0.633407 0.999214 0.123199
C61   C     C_R   0.380212 0.064700 0.115600 0.118532
C62   C     C_R   0.619794 0.935296 0.884402 0.118513
C63   C     C_R   0.529773 0.113036 0.120405 -0.094724
C64   C     C_R   0.470231 0.886960 0.879597 -0.094732
C65   C     C_R   0.670779 0.111859 0.079076 -0.274614
C66   C     C_R   0.329226 0.888138 0.920926 -0.274605
C67   C     C_R   0.661669 0.066369 0.032009 0.094759
C68   C     C_R   0.338337 0.933628 0.967993 0.094762
C69   C     C_R   0.505752 0.022193 0.024441 0.023669
C70   C     C_R   0.494253 0.977804 0.975561 0.023667
C71   C     C_R   0.362257 0.021939 0.065733 0.082839
C72   C     C_R   0.637750 0.978057 0.934269 0.082846
C73   C     C_R   0.805987 0.065130 0.991943 -0.178412
C74   C     C_R   0.194024 0.934864 0.008061 -0.178411
C75   C     C_R   0.795186 0.021456 0.944005 -0.185800
C76   C     C_R   0.204828 0.978538 0.056000 -0.185804
H25   H     H_    0.787765 0.147297 0.083192 0.138164
H26   H     H_    0.212240 0.852699 0.916810 0.138158
H27   H     H_    0.928476 0.098006 0.997736 0.130215
H28   H     H_    0.071538 0.901987 0.002269 0.130214
H29   H     H_    0.913256 0.021671 0.915201 0.143218
H30   H     H_    0.086769 0.978318 0.084806 0.143221
C77   C     C_3   0.250227 0.054689 0.164541 -0.775692
H31   H     H_    0.315172 0.073076 0.205286 0.209195
H32   H     H_    0.108210 0.080132 0.157908 0.208878
H33   H     H_    0.229359 0.000181 0.169373 0.188678
C78   C     C_3   0.749779 0.945299 0.835460 -0.775643
H34   H     H_    0.684759 0.926947 0.794715 0.209165
H35   H     H_    0.770767 0.999803 0.830642 0.188662
H36   H     H_    0.891741 0.919812 0.842075 0.208901
C79   C     C_3   0.840875 0.156673 0.604320 -0.801873
H37   H     H_    0.809084 0.196496 0.574669 0.210045
H38   H     H_    0.708792 0.149923 0.628635 0.212409
H39   H     H_    0.959217 0.174871 0.633055 0.206777
C80   C     C_3   0.159125 0.843327 0.395680 -0.801874
H40   H     H_    0.190919 0.803504 0.425330 0.210045
H41   H     H_    0.040781 0.825129 0.366946 0.206777
H42   H     H_    0.291206 0.850077 0.371364 0.212409
C81   C     C_3   0.117490 0.157791 0.426860 -0.819329
H43   H     H_    0.996629 0.195365 0.427259 0.193920
H44   H     H_    0.175013 0.151666 0.469914 0.223104
H45   H     H_    0.239531 0.178280 0.404436 0.213333
C82   C     C_3   0.882515 0.842209 0.573140 -0.819329
H46   H     H_    0.824992 0.848334 0.530086 0.223104
H47   H     H_    0.003377 0.804635 0.572741 0.193920
H48   H     H_    0.760475 0.821719 0.595564 0.213332

loop_
_geom_bond_atom_site_label_1
_geom_bond_atom_site_label_2
_ccdc_geom_bond_type
C26   C30   A    
C78   H36   S    
C34   C36   A    
C42   C80   S    
C31   C33   A    
C55   C56   A    
C67   C73   A    
O11   V3    S    
C80   H42   S    
O13   V3    S    
C17   C18   A    
C81   H43   S    
C24   H8    S    
O4    C2    A    
C77   H33   S    
V1    O19   S    
C27   H11   S    
C39   H13   S    
C50   H17   S    
C54   C60   A    
C78   H34   S    
C15   C17   A    
C71   C76   A    
C16   C22   A    
C28   H12   S    
C68   C74   A    
C2    C44   S    
C11   C13   A    
C46   C48   A    
C73   H27   S    
C3    C64   S    
O3    C1    A    
C69   C71   A    
C13   H3    S    
C79   H39   S    
C33   C37   A    
C14   H4    S    
C36   C42   A    
C80   H40   S    
C80   H41   S    
C40   H14   S    
C28   C30   A    
C82   H48   S    
O7    C3    A    
C27   C35   A    
O5    C7    A    
O15   C5    A    
O7    V1    S    
O6    C8    A    
C8    C11   S    
O8    V2    S    
C33   C35   A    
C58   C60   A    
C61   C77   S    
C46   H22   S    
C82   H46   S    
O3    V1    S    
C38   C39   A    
C35   C41   A    
C51   C53   A    
C19   C24   A    
C10   C12   A    
C20   C23   A    
C15   C21   A    
C16   C18   A    
C58   H24   S    
C21   H5    S    
C2    O12   A    
C75   H29   S    
C26   C32   A    
C17   C19   A    
O10   V2    S    
C62   C78   S    
C56   C57   A    
C18   C20   A    
C48   H19   S    
C64   C66   A    
C59   H15   S    
C52   C56   A    
C70   C72   A    
C21   C23   A    
C29   H10   S    
O17   V3    S    
C4    C63   S    
C22   C24   A    
C10   H2    S    
C27   C29   A    
C9    C19   A    
C81   H45   S    
C10   C20   A    
C40   C42   A    
O8    C4    A    
C62   C72   A    
C39   C41   A    
C81   H44   S    
O13   V1    S    
C1    O11   A    
C41   C79   S    
C67   C69   A    
C44   C48   A    
O15   V3    S    
C45   H21   S    
C32   C34   A    
C37   C40   A    
V4    O20   S    
C49   H18   S    
C52   C54   A    
V3    O19   S    
O9    V1    S    
C22   H6    S    
O1    V3    S    
C76   H30   S    
C63   C65   A    
C53   C59   A    
C31   C82   S    
C43   C49   A    
C47   H20   S    
C57   H23   S    
C5    C25   S    
C45   C47   A    
C50   C52   A    
O18   V4    S    
C55   C58   A    
C60   H16   S    
C49   C51   A    
C32   C81   S    
O14   V4    S    
O16   C6    A    
C30   H9    S    
O1    C3    A    
O12   V4    S    
C74   C76   A    
C77   H31   S    
C45   C53   A    
C61   C71   A    
C23   H7    S    
V2    O20   S    
C78   H35   S    
C57   C59   A    
O16   V4    S    
C1    C43   S    
C25   C31   A    
C77   H32   S    
C66   C68   A    
C79   H37   S    
C72   C75   A    
C74   H28   S    
C25   C29   A    
O5    V1    S    
C7    C12   S    
O17   C7    A    
O6    V2    S    
O10   C6    A    
O18   C8    A    
O2    V4    S    
C61   C63   A    
C13   C15   A    
C69   C70   A    
C12   C14   A    
C14   C16   A    
C79   H38   S    
C34   C38   A    
C44   C50   A    
O9    C5    A    
C9    C11   A    
C68   C70   A    
O14   V2    S    
C82   H47   S    
C51   C55   A    
C37   C38   A    
O2    C4    A    
C62   C64   A    
C73   C75   A    
O4    V2    S    
C65   H25   S    
C28   C36   A    
C6    C26   S    
C66   H26   S    
C46   C54   A    
C9    H1    S    
C43   C47   A    
C65   C67   A    
