data_mof_unit_2714.cif
_audit_creation_date              2012-12-11T14:33:05-0500
_audit_creation_method            fapswitch 2.2
_symmetry_space_group_name_H-M    P1
_symmetry_Int_Tables_number       1
_space_group_crystal_system       triclinic
_cell_length_a                    6.953713
_cell_length_b                    13.743903
_cell_length_c                    17.962593
_cell_angle_alpha                 112.424846
_cell_angle_beta                  95.476258
_cell_angle_gamma                 90.371884
_cell_volume                      1577.929496

loop_
_atom_site_label
_atom_site_type_symbol
_atom_type_description
_atom_site_fract_x
_atom_site_fract_y
_atom_site_fract_z
_atom_type_partial_charge
O1    O     O_R   0.484560 0.544530 0.414330 -0.536710
O2    O     O_R   0.197040 0.638810 0.585080 -0.539427
O3    O     O_R   0.026800 0.455470 0.585670 -0.537136
C1    C     C_R   0.374106 0.678943 0.610320 0.686829
O4    O     O_R   0.155000 0.556150 0.414940 -0.542690
O5    O     O_R   0.984450 0.372220 0.414320 -0.541348
C2    C     C_R   0.317798 0.565242 0.386712 0.756329
O6    O     O_R   0.526900 0.627780 0.585680 -0.539922
O7    O     O_3   0.339170 0.439750 0.499990 -0.373219
V1    V     V_3+5 0.064350 0.511180 0.500000 1.377098
O8    O     O_R   0.654880 0.361190 0.414920 -0.542088
C3    C     C_R   0.816352 0.323667 0.386899 0.721331
O9    O     O_R   0.696930 0.443850 0.585060 -0.545800
C4    C     C_R   0.872978 0.433656 0.612249 0.700138
V2    V     V_3+5 0.564340 0.488820 0.500000 1.371114
O10   O     O_3   0.839390 0.560250 0.500010 -0.374420
C5    C     C_R   0.041052 0.857916 0.821454 -0.052290
C6    C     C_R   0.906534 0.396229 0.678727 -0.064802
C7    C     C_R   0.917773 0.814911 0.681980 -0.114022
C8    C     C_R   0.969314 0.783682 0.745805 -0.146173
C9    C     C_R   0.054834 0.964940 0.833507 -0.203236
C10   C     C_R   0.000174 0.999365 0.769170 0.100216
C11   C     C_R   0.933904 0.921321 0.692849 0.088436
C12   C     C_R   0.008018 0.107655 0.778007 0.059315
C13   C     C_R   0.954769 0.136478 0.709476 -0.016038
C14   C     C_R   0.905030 0.052179 0.632151 0.003177
C15   C     C_R   0.887868 0.948318 0.626628 -0.260555
C16   C     C_R   0.068824 0.187827 0.853869 -0.163774
C17   C     C_R   0.081025 0.292390 0.864224 -0.214981
C18   C     C_R   0.026354 0.323263 0.800572 0.128597
C19   C     C_R   0.955223 0.247608 0.722887 0.096048
C20   C     C_R   0.041339 0.430953 0.815313 -0.128743
C21   C     C_R   0.987817 0.466560 0.754160 -0.146697
C22   C     C_R   0.883290 0.288710 0.664291 -0.174358
H1    H     H_    0.845466 0.885791 0.568048 0.144461
H2    H     H_    0.802453 0.241510 0.607951 0.119301
H3    H     H_    0.009547 0.549343 0.765900 0.093165
H4    H     H_    0.132842 0.350351 0.923596 0.115052
H5    H     H_    0.864332 0.755440 0.623669 0.142490
H6    H     H_    0.951764 0.701344 0.736173 0.089080
H7    H     H_    0.106324 0.018229 0.893871 0.090088
H8    H     H_    0.111171 0.172892 0.907495 0.119989
H9    H     H_    0.098800 0.487822 0.874199 0.134980
H10   H     H_    0.100599 0.229090 0.300688 0.136905
H11   H     H_    0.860470 0.014073 0.211606 0.160769
C23   C     C_2   0.133939 0.039649 0.181100 -0.360009
C24   C     C_2   0.980235 0.070513 0.223327 -0.135613
C25   C     C_2   0.808912 0.216041 0.322172 -0.087780
C26   C     C_2   0.970175 0.178382 0.285224 -0.162783
H12   H     H_    0.258794 0.093132 0.193213 0.129385
C27   C     C_R   0.409970 0.785140 0.677235 -0.058248
C28   C     C_R   0.541177 0.472920 0.825913 -0.058390
C29   C     C_R   0.529921 0.886504 0.817354 -0.127432
C30   C     C_R   0.476248 0.790179 0.754539 -0.141842
C31   C     C_R   0.403773 0.880048 0.663242 -0.207595
C32   C     C_R   0.460644 0.980383 0.726954 0.098910
C33   C     C_R   0.521195 0.981005 0.804732 0.121543
C34   C     C_R   0.460331 0.079830 0.716939 0.030291
C35   C     C_R   0.512223 0.177351 0.785318 0.068783
C36   C     C_R   0.568360 0.171731 0.860893 -0.174868
C37   C     C_R   0.573963 0.075762 0.869995 -0.218089
C38   C     C_R   0.413010 0.085002 0.640678 -0.141952
C39   C     C_R   0.408110 0.180861 0.631516 -0.157543
C40   C     C_R   0.446302 0.276051 0.697706 0.082018
C41   C     C_R   0.505584 0.277074 0.775679 0.097371
C42   C     C_R   0.428479 0.370451 0.685353 -0.122693
C43   C     C_R   0.474476 0.467320 0.748537 -0.141788
C44   C     C_R   0.554743 0.378047 0.839793 -0.208377
H13   H     H_    0.620065 0.075794 0.929389 0.117204
H14   H     H_    0.601114 0.385747 0.900828 0.090522
H15   H     H_    0.457173 0.538437 0.736771 0.091094
H16   H     H_    0.374843 0.180621 0.571284 0.164353
H17   H     H_    0.579880 0.887107 0.876484 0.143984
H18   H     H_    0.488179 0.718934 0.766436 0.091712
H19   H     H_    0.355726 0.872892 0.602472 0.099265
H20   H     H_    0.610343 0.240728 0.914582 0.120443
H21   H     H_    0.380395 0.015655 0.586247 0.153447
H22   H     H_    0.378449 0.369246 0.626036 0.146946
H23   H     H_    0.334843 0.669239 0.195600 0.153422
H24   H     H_    0.615120 0.592134 0.308682 0.154061
C45   C     C_2   0.314585 0.602995 0.319323 -0.346463
C46   C     C_2   0.476837 0.612213 0.285999 -0.122272
H25   H     H_    0.772744 0.636649 0.207078 0.126326
C47   C     C_2   0.634890 0.656815 0.184112 -0.344802
C48   C     C_2   0.473000 0.648729 0.218049 -0.126716
H26   H     H_    0.176643 0.622806 0.296148 0.127149
O11   O     O_R   0.421600 0.630430 0.917010 -0.540086
O12   O     O_R   0.793840 0.702190 0.087630 -0.543090
O13   O     O_R   0.964010 0.886170 0.088190 -0.534942
C49   C     C_R   0.631279 0.693603 0.116210 0.754856
O14   O     O_R   0.751460 0.619510 0.917500 -0.537420
O15   O     O_R   0.921330 0.802900 0.916840 -0.541218
C50   C     C_R   0.574758 0.579229 0.892591 0.684100
O16   O     O_R   0.464290 0.713700 0.088350 -0.537901
O17   O     O_3   0.609200 0.818520 0.002630 -0.374101
V3    V     V_3+5 0.884140 0.747190 0.002530 1.374094
O18   O     O_R   0.251150 0.814630 0.917340 -0.542849
C51   C     C_R   0.074813 0.824133 0.889863 0.692046
O19   O     O_R   0.293530 0.897310 0.087470 -0.543685
C52   C     C_R   0.131635 0.934048 0.115726 0.761314
V4    V     V_3+5 0.384070 0.769710 0.002370 1.368064
O20   O     O_3   0.109180 0.698190 0.002460 -0.373799
C53   C     C_3   0.620973 0.149622 0.302474 -0.384777
C54   C     C_3   0.620473 0.084117 0.354981 -0.268560
C55   C     C_3   0.434804 0.015609 0.336228 -0.719607
H27   H     H_    0.307459 0.065578 0.347955 0.227482
H28   H     H_    0.419731 0.959288 0.272076 0.219106
H29   H     H_    0.439367 0.969924 0.375671 0.246856
H30   H     H_    0.745640 0.032403 0.344685 0.206798
H31   H     H_    0.633854 0.138098 0.419876 0.206876
H32   H     H_    0.495564 0.201077 0.313860 0.178974
H33   H     H_    0.596795 0.098662 0.237145 0.174053
C56   C     C_2   0.883394 0.062241 0.552667 0.699289
O21   O     O_2   0.742058 0.020612 0.504475 -0.584346
O22   O     O_R   0.027771 0.114105 0.530842 -0.682125
H34   H     H_    0.997078 0.114170 0.474549 0.275145

loop_
_geom_bond_atom_site_label_1
_geom_bond_atom_site_label_2
_ccdc_geom_bond_type
H10   C26   S    
C34   C38   A    
C18   C20   A    
C31   C32   A    
O12   V3    S    
C13   C19   A    
V4    O20   S    
V3    O20   S    
C4    C6    S    
C38   H21   S    
O2    C1    A    
O17   V3    S    
C1    O6    A    
C45   C46   D    
O15   C51   A    
C24   C26   S    
C29   C30   A    
C55   H28   S    
C14   C15   A    
C38   C39   A    
C16   C17   A    
O5    C3    A    
C54   H30   S    
C8    H6    S    
V2    O10   S    
O18   C51   A    
O15   V3    S    
C5    C8    A    
C32   C33   A    
C53   H32   S    
O14   V3    S    
O11   V4    S    
O8    V2    S    
C7    C8    A    
O16   V4    S    
C17   H4    S    
O1    V2    S    
C11   C15   A    
O7    V1    S    
C43   H15   S    
C45   H26   S    
C28   C44   A    
C3    C25   S    
C31   H19   S    
C42   C43   A    
C35   C36   A    
C30   H18   S    
O9    C4    A    
C47   C49   S    
C54   C55   S    
C49   O16   A    
H11   C24   S    
C42   H22   S    
C55   H29   S    
C1    C27   S    
C12   C13   A    
H24   C46   S    
O4    C2    A    
C29   C33   A    
O13   C52   A    
C15   H1    S    
C13   C14   A    
C25   C53   S    
C36   H20   S    
C21   H3    S    
C36   C37   A    
C40   C42   A    
C7    C11   A    
C17   C18   A    
O14   C50   A    
H25   C47   S    
C41   C44   A    
C19   C22   A    
C28   C50   S    
C47   C48   D    
C6    C22   A    
C28   C43   A    
C7    H5    S    
C9    H7    S    
C25   C26   D    
O19   V4    S    
O12   C49   A    
O6    V2    S    
O9    V2    S    
C10   C12   A    
O2    V1    S    
H23   C48   S    
C56   O21   D    
C5    C51   S    
C37   H13   S    
C23   C52   S    
C23   C24   D    
C2    C45   S    
O1    C2    A    
C29   H17   S    
C12   C16   A    
O5    V1    S    
O8    C3    A    
C33   C37   A    
O3    C4    A    
C46   C48   S    
C55   H27   S    
C23   H12   S    
O19   C52   A    
C27   C30   A    
C20   C21   A    
O13   V3    S    
C34   C35   A    
C14   C56   S    
O4    V1    S    
O3    V1    S    
V1    O10   S    
C35   C41   A    
C54   H31   S    
C18   C19   A    
O11   C50   A    
C40   C41   A    
C16   H8    S    
C20   H9    S    
C32   C34   A    
C27   C31   A    
O7    V2    S    
C6    C21   A    
C5    C9    A    
C39   C40   A    
O17   V4    S    
C39   H16   S    
C22   H2    S    
C44   H14   S    
C53   C54   S    
C10   C11   A    
C53   H33   S    
C9    C10   A    
O18   V4    S    
O22   H34   S    
C56   O22   S    
