data_mof_unit_958.cif
_audit_creation_date              2012-12-11T17:08:34-0500
_audit_creation_method            fapswitch 2.2
_symmetry_space_group_name_H-M    P1
_symmetry_Int_Tables_number       1
_space_group_crystal_system       triclinic
_cell_length_a                    6.978296
_cell_length_b                    14.503714
_cell_length_c                    16.107805
_cell_angle_alpha                 90.067171
_cell_angle_beta                  89.970448
_cell_angle_gamma                 90.060612
_cell_volume                      1630.2881763

loop_
_atom_site_label
_atom_site_type_symbol
_atom_type_description
_atom_site_fract_x
_atom_site_fract_y
_atom_site_fract_z
_atom_type_partial_charge
O1    O     O_R   0.505700 0.583890 0.413310 -0.540308
O2    O     O_R   0.175960 0.594920 0.586080 -0.548194
O3    O     O_R   0.005660 0.416110 0.586690 -0.541717
C1    C     C_R   0.344738 0.616911 0.614768 0.677284
O4    O     O_R   0.175980 0.594920 0.413930 -0.544737
O5    O     O_R   0.005680 0.416110 0.413310 -0.542288
C2    C     C_R   0.344768 0.616876 0.385186 0.684837
O6    O     O_R   0.505680 0.583890 0.586690 -0.537704
O7    O     O_3   0.339200 0.441330 0.500000 -0.343325
V1    V     V_3+5 0.064350 0.510880 0.500000 1.402006
O8    O     O_R   0.675960 0.405080 0.413920 -0.533931
C3    C     C_R   0.845386 0.381455 0.386548 0.698528
O9    O     O_R   0.675940 0.405080 0.586070 -0.516411
C4    C     C_R   0.845030 0.382306 0.614283 0.706198
V2    V     V_3+5 0.564340 0.489120 0.500000 1.453596
O10   O     O_3   0.839360 0.558670 0.500000 -0.377584
C5    C     C_R   0.016224 0.311229 0.736055 -0.001190
C6    C     C_R   0.855355 0.315557 0.684227 -0.117947
C7    C     C_R   0.707304 0.252580 0.699809 -0.089275
H1    H     H_    0.590570 0.247695 0.657220 0.173907
C8    C     C_R   0.715865 0.190257 0.766407 -0.171925
H2    H     H_    0.600751 0.141005 0.774093 0.123238
C9    C     C_R   0.877420 0.186739 0.818501 -0.077238
C10   C     C_R   0.026194 0.249402 0.802966 0.049548
C11   C     C_3   0.231230 0.226708 0.786673 -0.429200
C12   C     C_3   0.217858 0.289352 0.711004 0.159988
H3    H     H_    0.253079 0.152387 0.772480 0.170230
H4    H     H_    0.325618 0.253218 0.836942 0.169720
C13   C     C_R   0.749723 0.257418 0.183200 0.092609
C14   C     C_R   0.883554 0.185740 0.182398 -0.158014
C15   C     C_R   0.017940 0.183109 0.247585 -0.151181
H5    H     H_    0.126218 0.129599 0.248351 0.136654
C16   C     C_R   0.004829 0.244149 0.315843 0.172359
C17   C     C_R   0.859477 0.313144 0.318006 -0.147101
C18   C     C_R   0.739491 0.319981 0.248522 0.059727
C19   C     C_3   0.526226 0.324692 0.243025 -0.401875
C20   C     C_3   0.537824 0.256223 0.171586 -0.376889
H6    H     H_    0.475202 0.394023 0.223751 0.160441
H7    H     H_    0.455776 0.295902 0.298927 0.194208
H8    H     H_    0.494389 0.286242 0.111008 0.162333
H9    H     H_    0.472714 0.188170 0.186365 0.182040
C21   C     C_R   0.507197 0.682856 0.741075 0.103821
C22   C     C_R   0.352670 0.682272 0.685538 -0.108192
C23   C     C_R   0.200972 0.743729 0.701685 -0.176704
H10   H     H_    0.078280 0.745647 0.660867 0.136185
C24   C     C_R   0.212212 0.807949 0.767218 -0.171863
H11   H     H_    0.097198 0.857095 0.775054 0.132847
C25   C     C_R   0.375810 0.812891 0.818416 -0.111068
C26   C     C_R   0.518775 0.746674 0.805688 0.099343
C27   C     C_3   0.728745 0.759521 0.793462 -0.410395
C28   C     C_3   0.716257 0.689588 0.723379 -0.396861
H12   H     H_    0.813313 0.734695 0.847441 0.174067
H13   H     H_    0.764127 0.830261 0.771817 0.170391
H14   H     H_    0.792843 0.624153 0.736997 0.168029
H15   H     H_    0.745204 0.719551 0.661121 0.171570
C29   C     C_R   0.509600 0.747067 0.309926 0.107548
C30   C     C_R   0.352881 0.687399 0.318560 -0.110239
C31   C     C_R   0.200173 0.698359 0.262266 -0.179023
H16   H     H_    0.076644 0.653678 0.266203 0.131692
C32   C     C_R   0.211675 0.762298 0.196515 -0.180579
H17   H     H_    0.095584 0.765745 0.152229 0.130849
C33   C     C_R   0.376890 0.816722 0.184690 -0.110904
C34   C     C_R   0.521396 0.810015 0.244678 0.107849
C35   C     C_3   0.730252 0.793114 0.233487 -0.416256
C36   C     C_3   0.717465 0.724899 0.304789 -0.400832
H18   H     H_    0.817689 0.855069 0.248376 0.176128
H19   H     H_    0.762268 0.759952 0.172810 0.169403
H20   H     H_    0.796972 0.747560 0.361019 0.176420
H21   H     H_    0.742741 0.652259 0.285587 0.165297
O11   O     O_R   0.229000 0.916070 0.913330 -0.540079
O12   O     O_R   0.558770 0.905070 0.086080 -0.539497
O13   O     O_R   0.729000 0.083900 0.086690 -0.535836
C37   C     C_R   0.389701 0.882866 0.114632 0.694364
O14   O     O_R   0.558720 0.905070 0.913930 -0.539832
O15   O     O_R   0.728960 0.083900 0.913310 -0.541744
C38   C     C_R   0.389684 0.883181 0.885121 0.695094
O16   O     O_R   0.229050 0.916070 0.086710 -0.540251
O17   O     O_3   0.395460 0.058650 0.000020 -0.370232
V3    V     V_3+5 0.670340 0.989120 0.000000 1.395584
O18   O     O_R   0.058670 0.094960 0.913900 -0.539326
C39   C     C_R   0.889852 0.116945 0.885348 0.696631
O19   O     O_R   0.058720 0.094960 0.086050 -0.543202
C40   C     C_R   0.890130 0.116868 0.114660 0.709192
V4    V     V_3+5 0.170330 0.010930 0.999970 1.394530
O20   O     O_3   0.895340 0.941350 0.999980 -0.371667
C41   C     C_2   0.228019 0.237522 0.628793 0.740479
O21   O     O_2   0.312897 0.270500 0.569497 -0.550806
O22   O     O_R   0.135116 0.152455 0.620448 -0.679362
H22   H     H_    0.151868 0.124551 0.563185 0.290185
N1    N     N_3   0.345357 0.369836 0.716411 -0.663721
H23   H     H_    0.326388 0.403246 0.773458 0.212535
H24   H     H_    0.307215 0.417374 0.670759 0.258494
N2    N     N_3   0.128291 0.228086 0.385378 -0.660825
H25   H     H_    0.215741 0.285549 0.394429 0.264364
H26   H     H_    0.043152 0.219238 0.438199 0.234989

loop_
_geom_bond_atom_site_label_1
_geom_bond_atom_site_label_2
_ccdc_geom_bond_type
N2    H25   S    
C4    C6    S    
C7    H1    S    
O18   V4    S    
O12   V3    S    
C30   C31   A    
C11   H4    S    
C33   C34   A    
O14   C38   A    
C5    C12   S    
C19   C20   S    
C7    C8    A    
C6    C7    A    
C20   H8    S    
O5    C3    A    
C14   C15   A    
C41   O22   S    
C31   C32   A    
V2    O10   S    
C29   C30   A    
C32   C33   A    
C17   C18   A    
C14   C40   S    
C25   C38   S    
O8    V2    S    
C18   C19   S    
C27   H12   S    
C9    C10   A    
C15   C16   A    
C33   C37   S    
O1    V2    S    
O11   V4    S    
O7    V1    S    
C1    O6    A    
C21   C28   S    
N2    H26   S    
O9    C4    A    
C20   H9    S    
C23   C24   A    
C16   C17   A    
C24   C25   A    
C5    C10   A    
C27   H13   S    
C35   H19   S    
C10   C11   S    
O4    C2    A    
O17   V3    S    
O15   C39   A    
O16   V4    S    
C27   C28   S    
C31   H16   S    
C32   H17   S    
C35   H18   S    
O2    C1    A    
C22   C23   A    
C13   C14   A    
N1    H24   S    
C15   H5    S    
C12   C41   S    
C36   H20   S    
C5    C6    A    
C29   C34   A    
V4    O20   S    
O3    C4    A    
C25   C26   A    
O19   C40   A    
O6    V2    S    
O19   V4    S    
O14   V3    S    
O9    V2    S    
O11   C38   A    
C12   N1    S    
C21   C22   A    
C3    C17   S    
O2    V1    S    
V3    O20   S    
C23   H10   S    
C41   O21   D    
O12   C37   A    
C24   H11   S    
C9    C39   S    
O1    C2    A    
C19   H7    S    
O18   C39   A    
C16   N2    S    
O5    V1    S    
O13   V3    S    
C1    C22   S    
C11   H3    S    
C13   C18   A    
C28   H14   S    
C35   C36   S    
C8    C9    A    
C11   C12   S    
O4    V1    S    
O3    V1    S    
V1    O10   S    
N1    H23   S    
C36   H21   S    
C19   H6    S    
C28   H15   S    
O7    V2    S    
O13   C40   A    
C21   C26   A    
C34   C35   S    
O17   V4    S    
O22   H22   S    
C26   C27   S    
C13   C20   S    
C37   O16   A    
C8    H2    S    
O15   V3    S    
C2    C30   S    
C29   C36   S    
O8    C3    A    
