data_mof_unit_3966.cif
_audit_creation_date              2012-12-10T20:31:02-0500
_audit_creation_method            fapswitch 2.2
_symmetry_space_group_name_H-M    P1
_symmetry_Int_Tables_number       1
_space_group_crystal_system       triclinic
_cell_length_a                    14.924096
_cell_length_b                    10.672715
_cell_length_c                    9.898701
_cell_angle_alpha                 89.327686
_cell_angle_beta                  90.83568
_cell_angle_gamma                 90.676589
_cell_volume                      1576.28824629

loop_
_atom_site_label
_atom_site_type_symbol
_atom_type_description
_atom_site_fract_x
_atom_site_fract_y
_atom_site_fract_z
_atom_type_partial_charge
C1    C     C_R   0.505644 0.260363 0.500897 0.889739
C2    C     C_R   0.910452 0.618211 0.526897 0.012599
C3    C     C_R   0.944192 0.305617 0.363003 -0.099534
C4    C     C_R   0.038128 0.296402 0.369987 -0.094880
C5    C     C_R   0.090364 0.397021 0.424520 0.018656
C6    C     C_R   0.046874 0.504776 0.475634 -0.027732
C7    C     C_R   0.096994 0.605254 0.532423 0.073248
C8    C     C_R   0.055616 0.719428 0.565013 -0.063533
C9    C     C_R   0.961764 0.728432 0.553174 -0.103927
C10   C     C_R   0.184945 0.395207 0.427345 0.389950
C11   C     C_R   0.231649 0.490660 0.496272 -0.180077
C12   C     C_R   0.327203 0.496176 0.499132 0.872899
C13   C     C_R   0.188404 0.590615 0.552254 -0.246973
C14   C     C_R   0.500939 0.061225 0.620025 0.010193
C15   C     C_R   0.523945 0.129421 0.504848 -0.252231
C16   C     C_R   0.566471 0.067812 0.397080 0.341287
C17   C     C_R   0.562042 0.935881 0.393399 0.412316
C18   C     C_R   0.520431 0.871376 0.501148 -0.192589
C19   C     C_R   0.500530 0.933999 0.618518 -0.046429
C20   C     C_3   0.422162 0.919788 0.710109 -0.444155
C21   C     C_3   0.421252 0.062640 0.712163 0.377286
C22   C     C_R   0.421396 0.495114 0.069359 0.184697
C23   C     C_R   0.504350 0.739814 0.499403 0.943935
C24   C     C_R   0.576508 0.521710 0.074150 -0.090307
C25   C     C_R   0.576145 0.526887 0.931002 0.446288
C26   C     C_R   0.421328 0.495574 0.927454 0.133880
C27   C     C_3   0.349207 0.398411 0.920988 -0.480867
C28   C     C_3   0.350315 0.396104 0.074767 -0.407939
C29   C     C_R   0.672912 0.503642 0.500414 0.840322
C30   C     C_R   0.817086 0.611456 0.549361 -0.089754
C31   C     C_R   0.768718 0.509135 0.497749 -0.082340
C32   C     C_R   0.809942 0.413110 0.430877 -0.219353
C33   C     C_R   0.902488 0.410092 0.420469 0.063008
C34   C     C_R   0.953424 0.511118 0.473852 0.069895
H1    H     H_    0.363201 0.874962 0.659293 0.213528
H2    H     H_    0.441482 0.875441 0.808334 0.205726
H3    H     H_    0.638164 0.540049 0.129500 0.188968
H4    H     H_    0.285992 0.435869 0.876568 0.205668
H5    H     H_    0.372260 0.310779 0.875839 0.261965
H6    H     H_    0.287313 0.431137 0.118504 0.224920
H7    H     H_    0.768109 0.337149 0.393698 0.125771
H8    H     H_    0.374978 0.306568 0.119349 0.244967
H9    H     H_    0.228388 0.660655 0.604740 0.178144
N1    N     N_R   0.499390 0.499140 0.142800 -0.140733
N2    N     N_R   0.499390 0.499180 0.857150 -0.157257
O1    O     O_R   0.500010 0.316790 0.614690 -0.601686
O2    O     O_R   0.500000 0.316760 0.385350 -0.599471
O3    O     O_R   0.367850 0.499990 0.614680 -0.626879
O4    O     O_R   0.367840 0.499950 0.385340 -0.607099
O5    O     O_R   0.500000 0.683240 0.614650 -0.655532
O6    O     O_R   0.499990 0.683210 0.385310 -0.551146
O7    O     O_R   0.632160 0.500050 0.614660 -0.595460
O8    O     O_R   0.632150 0.500010 0.385320 -0.633406
Zn1   Zn    Zn3+2 0.500010 0.500020 0.653130 0.969702
Zn2   Zn    Zn3+2 0.499990 0.499980 0.346870 0.996203
C35   C     C_2   0.769679 0.703866 0.633170 0.421521
H10   H     H_    0.703388 0.735630 0.603433 0.034544
O9    O     O_2   0.803075 0.741474 0.738748 -0.507964
O10   O     O_3   0.596532 0.868599 0.287779 -0.745473
H11   H     H_    0.622509 0.926456 0.219610 0.388496
C36   C     C_2   0.337496 0.118859 0.650672 0.442678
H12   H     H_    0.301010 0.189274 0.704784 0.074972
O11   O     O_2   0.309676 0.085641 0.539944 -0.521614
O12   O     O_3   0.441764 0.111139 0.840744 -0.793971
H13   H     H_    0.500835 0.078610 0.871520 0.363420
O13   O     O_3   0.652290 0.569217 0.869579 -0.707846
H14   H     H_    0.631623 0.632348 0.802442 0.357776
C37   C     C_2   0.888875 0.205493 0.296590 0.370892
H15   H     H_    0.834572 0.230919 0.227884 0.093335
O14   O     O_2   0.901878 0.094657 0.320496 -0.550065
C38   C     C_2   0.078940 0.178704 0.323300 0.697790
H16   H     H_    0.069397 0.149492 0.219391 0.031268
O15   O     O_2   0.119083 0.110677 0.402897 -0.441230
O16   O     O_3   0.230046 0.303485 0.358757 -0.752867
H17   H     H_    0.291347 0.293476 0.396089 0.359334
C39   C     C_2   0.110394 0.831502 0.602536 0.485257
H18   H     H_    0.094660 0.884063 0.692065 0.117523
O17   O     O_2   0.172324 0.867040 0.531936 -0.500719
C40   C     C_2   0.918376 0.853834 0.542373 0.550835
H19   H     H_    0.860786 0.865793 0.475401 0.078282
O18   O     O_2   0.944151 0.943278 0.608707 -0.532381
O19   O     O_3   0.609091 0.132260 0.294220 -0.757098
H20   H     H_    0.634796 0.210711 0.331529 0.338830

loop_
_geom_bond_atom_site_label_1
_geom_bond_atom_site_label_2
_ccdc_geom_bond_type
C11   C13   A    
C19   C20   S    
C12   O3    A    
C12   O4    A    
C7    C8    A    
O3    Zn1   S    
C26   C27   S    
O5    Zn1   S    
C14   C21   S    
C39   O17   D    
C30   C31   A    
C1    O1    A    
C16   C17   A    
C3    C33   A    
C27   H4    S    
C15   C16   A    
C8    C39   S    
C35   H10   S    
C18   C19   A    
C9    C40   S    
C36   O11   D    
C21   O12   S    
C26   N2    A    
C37   H15   S    
C20   H1    S    
C22   N1    A    
C3    C37   S    
C27   H5    S    
C8    C9    A    
C32   H7    S    
C1    C15   S    
C21   C36   S    
C2    C34   A    
O13   H14   S    
O10   H11   S    
C22   C28   S    
O7    Zn1   S    
C17   C18   A    
O8    Zn2   S    
O16   H17   S    
C18   C23   S    
C24   C25   A    
C24   H3    S    
C40   O18   D    
C1    O2    A    
C23   O5    A    
O4    Zn2   S    
C30   C35   S    
C6    C34   A    
C23   O6    A    
C31   C32   A    
O1    Zn1   S    
C16   O19   S    
C33   C34   A    
C39   H18   S    
C17   O10   S    
N2    Zn1   S    
C24   N1    A    
C3    C4    A    
C25   N2    A    
C13   H9    S    
O2    Zn2   S    
C14   C19   A    
C25   O13   S    
C4    C5    A    
C11   C12   S    
C6    C7    A    
C2    C30   A    
C32   C33   A    
C5    C10   A    
C29   C31   S    
O12   H13   S    
C10   O16   S    
N1    Zn2   S    
C5    C6    A    
C29   O8    A    
C28   H8    S    
C35   O9    D    
O6    Zn2   S    
C36   H12   S    
C10   C11   A    
C40   H19   S    
C20   H2    S    
C7    C13   A    
C38   H16   S    
C20   C21   S    
C37   O14   D    
O19   H20   S    
C22   C26   A    
C38   O15   D    
C27   C28   S    
C28   H6    S    
C14   C15   A    
C2    C9    A    
C4    C38   S    
C29   O7    A    
