data_mof_unit_2473.cif
_audit_creation_date              2012-12-10T17:12:40-0500
_audit_creation_method            fapswitch 2.2
_symmetry_space_group_name_H-M    P1
_symmetry_Int_Tables_number       1
_space_group_crystal_system       triclinic
_cell_length_a                    23.289296
_cell_length_b                    10.888546
_cell_length_c                    9.980106
_cell_angle_alpha                 90.987623
_cell_angle_beta                  90.179619
_cell_angle_gamma                 89.891261
_cell_volume                      2530.42814576

loop_
_atom_site_label
_atom_site_type_symbol
_atom_type_description
_atom_site_fract_x
_atom_site_fract_y
_atom_site_fract_z
_atom_type_partial_charge
C1    C     C_R   0.499564 0.262714 0.498466 0.939706
C2    C     C_R   0.976447 0.286115 0.641395 0.358780
C3    C     C_R   0.034842 0.283930 0.605906 0.347772
C4    C     C_R   0.063189 0.397330 0.582075 -0.195281
C5    C     C_R   0.030241 0.506627 0.582585 -0.052912
C6    C     C_R   0.056766 0.621978 0.572942 -0.051877
C7    C     C_R   0.024072 0.728952 0.590491 -0.157982
C8    C     C_R   0.964560 0.722236 0.606243 0.306871
C9    C     C_R   0.123017 0.408787 0.565601 0.666231
C10   C     C_R   0.115734 0.627217 0.551092 0.628120
C11   C     C_R   0.241995 0.563435 0.626290 -0.102991
C12   C     C_R   0.388976 0.497349 0.499603 0.990007
C13   C     C_R   0.300724 0.554725 0.615552 -0.199185
C14   C     C_R   0.326013 0.501991 0.500925 -0.216989
C15   C     C_R   0.290992 0.459275 0.392403 0.266513
C16   C     C_R   0.231058 0.483497 0.397882 0.372548
C17   C     C_R   0.207178 0.527374 0.519556 0.106687
C18   C     C_R   0.757099 0.441251 0.636746 -0.101253
C19   C     C_R   0.698472 0.446974 0.621144 -0.201752
C20   C     C_R   0.674077 0.495182 0.504463 -0.206102
C21   C     C_R   0.710067 0.533886 0.398253 0.313464
C22   C     C_R   0.769854 0.509919 0.407666 0.378360
C23   C     C_R   0.503126 0.736904 0.501343 0.967570
C24   C     C_R   0.792871 0.473614 0.532112 0.095027
C25   C     C_2   0.514457 0.931872 0.395736 -0.118895
C26   C     C_2   0.515162 0.865712 0.506146 -0.229306
C27   C     C_2   0.523877 0.062713 0.407744 0.297889
C28   C     C_2   0.491178 0.132482 0.492271 0.074699
C29   C     C_2   0.520866 0.589291 0.926631 -0.070134
C30   C     C_2   0.516244 0.593492 0.076718 -0.037737
C31   C     C_R   0.611077 0.501553 0.500333 1.003380
C32   C     C_R   0.877461 0.596684 0.565593 0.632095
C33   C     C_R   0.883896 0.379079 0.584450 0.660544
C34   C     C_R   0.943294 0.386966 0.603741 -0.171151
C35   C     C_R   0.970116 0.500588 0.588879 -0.065727
C36   C     C_R   0.936835 0.608426 0.586786 -0.103633
H1    H     H_    0.672124 0.416953 0.703607 0.215176
H2    H     H_    0.527948 0.678486 0.127690 0.154151
H3    H     H_    0.775044 0.412390 0.731446 0.211683
N1    N     N_R   0.852970 0.482740 0.559194 -0.342645
N2    N     N_R   0.146851 0.521204 0.542583 -0.343052
N3    N     N_2   0.500610 0.501330 0.852150 -0.193322
N4    N     N_2   0.500630 0.501360 0.147810 -0.159116
O1    O     O_R   0.499990 0.319060 0.613040 -0.619094
O2    O     O_2   0.857738 0.268729 0.582595 -0.435446
O3    O     O_2   0.157927 0.310810 0.577548 -0.427510
O4    O     O_2   0.141874 0.736728 0.536705 -0.492061
O5    O     O_R   0.500010 0.319100 0.386900 -0.551124
O6    O     O_R   0.416150 0.499940 0.613100 -0.630026
O7    O     O_R   0.416160 0.499980 0.386960 -0.544562
O8    O     O_R   0.499990 0.680900 0.613100 -0.618469
O9    O     O_R   0.500010 0.680940 0.386960 -0.634147
O10   O     O_R   0.583840 0.500020 0.613040 -0.636900
O11   O     O_R   0.583850 0.500060 0.386900 -0.534753
O12   O     O_2   0.844656 0.696830 0.544999 -0.437301
Zn1   Zn    Zn3+2 0.499990 0.499970 0.650990 1.010944
Zn2   Zn    Zn3+2 0.500010 0.500030 0.349010 1.113616
S1    S     S_3+6 0.955615 0.214477 0.791880 0.145565
O13   O     O_2   0.907132 0.126534 0.766472 -0.120497
O14   O     O_2   0.005433 0.148625 0.854457 -0.195664
O15   O     O_3   0.932688 0.324500 0.899483 -0.540134
H4    H     H_    0.920229 0.280000 0.980073 0.413719
S2    S     S_3+6 0.681823 0.626096 0.267087 0.114341
O16   O     O_2   0.727217 0.705992 0.207312 -0.163807
O17   O     O_2   0.657034 0.543552 0.159450 -0.261303
O18   O     O_3   0.630043 0.719056 0.328096 -0.553440
H5    H     H_    0.612432 0.756603 0.248197 0.387389
S3    S     S_3+6 0.816203 0.515804 0.266049 0.115012
O19   O     O_2   0.864925 0.426377 0.281672 -0.295495
O20   O     O_2   0.783845 0.482885 0.139955 -0.205652
O21   O     O_3   0.843380 0.658099 0.253444 -0.466240
H6    H     H_    0.870063 0.653178 0.176439 0.399714
H7    H     H_    0.508577 0.890554 0.296771 0.181503
H8    H     H_    0.525630 0.907630 0.602683 0.187042
S4    S     S_3+6 0.582761 0.120205 0.314744 0.058424
O22   O     O_2   0.560577 0.184926 0.193185 -0.266128
O23   O     O_2   0.617290 0.208413 0.399800 -0.310508
O24   O     O_3   0.625211 0.003127 0.264860 -0.507955
H9    H     H_    0.656408 0.041819 0.213299 0.414265
S5    S     S_3+6 0.429158 0.079153 0.578745 0.041096
O25   O     O_2   0.398063 0.983241 0.496425 -0.249507
O26   O     O_2   0.446557 0.025007 0.710392 -0.289476
O27   O     O_3   0.383761 0.196868 0.609101 -0.517447
H10   H     H_    0.395918 0.232689 0.696549 0.385500
H11   H     H_    0.541163 0.666393 0.878455 0.177845
H12   H     H_    0.477604 0.432926 0.896633 0.189528
S6    S     S_3+6 0.065786 0.138260 0.568630 0.142547
O28   O     O_2   0.104467 0.100317 0.681509 -0.173647
O29   O     O_2   0.019016 0.045036 0.549807 -0.278858
O30   O     O_3   0.103586 0.143773 0.425557 -0.455323
H13   H     H_    0.120636 0.060812 0.414535 0.410802
H14   H     H_    0.493548 0.418338 0.100449 0.210781
H15   H     H_    0.045165 0.817223 0.598541 0.248169
S7    S     S_3+6 0.929602 0.849859 0.680799 0.176514
O31   O     O_2   0.881789 0.808529 0.770183 -0.184775
O32   O     O_2   0.972635 0.918623 0.765224 -0.169129
O33   O     O_3   0.902702 0.941867 0.562045 -0.382351
H16   H     H_    0.920176 0.913097 0.476761 0.366477
H17   H     H_    0.223150 0.597402 0.718898 0.200365
H18   H     H_    0.326468 0.587475 0.699390 0.212844
S8    S     S_3+6 0.320891 0.366308 0.260177 0.127334
O34   O     O_2   0.276904 0.282077 0.197803 -0.181760
O35   O     O_2   0.344054 0.448500 0.153750 -0.233983
O36   O     O_3   0.374758 0.278361 0.317599 -0.523756
H19   H     H_    0.356135 0.201978 0.347588 0.409539
S9    S     S_3+6 0.185281 0.466340 0.255108 0.117423
O37   O     O_2   0.135097 0.552932 0.265321 -0.285748
O38   O     O_2   0.217489 0.493706 0.128833 -0.208596
O39   O     O_3   0.160435 0.321550 0.247362 -0.447043
H20   H     H_    0.133746 0.319647 0.169889 0.405086

loop_
_geom_bond_atom_site_label_1
_geom_bond_atom_site_label_2
_ccdc_geom_bond_type
S6    O28   D    
S2    O17   D    
S8    O34   D    
C29   N3    D    
C33   O2    S    
C19   C20   A    
C18   H3    S    
C12   O6    A    
C23   O9    A    
C7    C8    A    
C18   C24   A    
C32   C36   A    
O8    Zn1   S    
C5    C6    A    
S9    O37   D    
S1    O14   D    
C15   C16   A    
C30   H2    S    
C11   H17   S    
C34   C35   A    
C8    C36   A    
C23   C26   S    
C19   H1    S    
N3    Zn1   S    
S3    O19   D    
C35   C36   A    
C16   C17   A    
C1    C28   S    
N3    H12   S    
C32   O12   S    
C29   H11   S    
C16   S9    S    
C2    C34   A    
S1    O15   S    
O18   H5    S    
S2    O18   S    
C9    O3    S    
S8    O35   D    
C21   C22   A    
C10   N2    A    
S7    O31   D    
S5    O27   S    
C27   S4    S    
O36   H19   S    
O33   H16   S    
C7    H15   S    
C33   N1    A    
C21   S2    S    
C3    S6    S    
O5    Zn2   S    
C8    S7    S    
S5    O26   D    
O24   H9    S    
C18   C19   A    
S7    O33   S    
S1    O13   D    
C15   S8    S    
S4    O22   D    
C29   C30   S    
O1    Zn1   S    
C1    O1    A    
C23   O8    A    
O27   H10   S    
C33   C34   A    
C31   O10   A    
S7    O32   D    
S4    O23   D    
C22   S3    S    
C12   C14   S    
S8    O36   S    
S6    O29   D    
C22   C24   A    
C30   N4    D    
C3    C4    A    
C10   O4    S    
O10   Zn1   S    
C11   C17   A    
O7    Zn2   S    
S5    O25   D    
C6    C10   A    
C12   O7    A    
C2    S1    S    
C1    O5    A    
C6    C7    A    
C25   C27   S    
O6    Zn1   S    
C9    N2    A    
N4    H14   S    
C13   H18   S    
C2    C3    A    
C25   C26   D    
O21   H6    S    
O39   H20   S    
O11   Zn2   S    
C11   C13   A    
O30   H13   S    
S9    O38   D    
S3    O21   S    
C5    C35   A    
C26   H8    S    
C25   H7    S    
C32   N1    A    
C31   O11   A    
O15   H4    S    
C28   S5    S    
S4    O24   S    
C17   N2    S    
C24   N1    S    
O9    Zn2   S    
N4    Zn2   S    
S2    O16   D    
C4    C5    A    
C20   C21   A    
S3    O20   D    
S6    O30   S    
C27   C28   D    
C14   C15   A    
C4    C9    A    
C13   C14   A    
S9    O39   S    
C20   C31   S    
