data_mof_unit_961.cif
_audit_creation_date              2013-03-05T15:55:41-0500
_audit_creation_method            fapswitch 2.2
_symmetry_space_group_name_H-M    P1
_symmetry_Int_Tables_number       1
_space_group_crystal_system       triclinic
_cell_length_a                    6.912911
_cell_length_b                    17.758933
_cell_length_c                    19.38089
_cell_angle_alpha                 108.567559
_cell_angle_beta                  89.590701
_cell_angle_gamma                 90.343528
_cell_volume                      2255.39196704

loop_
_atom_site_label
_atom_site_type_symbol
_atom_site_description
_atom_site_fract_x
_atom_site_fract_y
_atom_site_fract_z
_atom_type_partial_charge
O1    O     O_R   0.494330 0.415710 0.413720 -0.587999
O2    O     O_R   0.819360 0.430070 0.560210 -0.586805
O3    O     O_R   0.994320 0.584290 0.586280 -0.597617
C1    C     C_R   0.650243 0.414458 0.581187 1.013209
O4    O     O_R   0.823740 0.406290 0.412670 -0.592562
O5    O     O_R   0.998730 0.560340 0.437690 -0.564420
C2    C     C_R   0.654907 0.381093 0.386048 1.002718
O6    O     O_R   0.489920 0.439660 0.562310 -0.573522
O7    O     O_3   0.662330 0.550570 0.508380 -0.239073
V1    V     V_3+5 0.935370 0.490620 0.498440 1.299660
O8    O     O_R   0.328720 0.569930 0.439790 -0.567617
C3    C     C_R   0.160452 0.585753 0.418756 1.041270
O9    O     O_R   0.324340 0.593710 0.587330 -0.598079
C4    C     C_R   0.154748 0.618357 0.613783 1.029893
V2    V     V_3+5 0.435940 0.509380 0.501560 1.305453
O10   O     O_3   0.159110 0.449430 0.491620 -0.246372
C5    C     C_R   0.281303 0.749928 0.695840 0.193948
C6    C     C_R   0.283070 0.809303 0.764736 0.211143
C7    C     C_R   0.129359 0.813545 0.815866 -0.403292
C8    C     C_R   0.990576 0.751176 0.799484 0.376107
C9    C     C_R   0.999776 0.689855 0.732659 -0.197039
H1    H     H_    0.896871 0.641261 0.722029 0.176481
C10   C     C_R   0.144147 0.687895 0.681038 -0.271771
C11   C     C_R   0.275508 0.619704 0.309331 0.226578
C12   C     C_R   0.154801 0.637288 0.371082 -0.368497
C13   C     C_R   0.028002 0.702915 0.387074 0.372084
C14   C     C_R   0.019928 0.751417 0.340587 -0.082215
C15   C     C_R   0.149278 0.734153 0.279808 -0.020538
C16   C     C_R   0.288487 0.672610 0.268170 -0.045171
C17   C     C_R   0.888964 0.816537 0.351918 0.144022
C18   C     C_R   0.872492 0.855635 0.299213 0.245807
C19   C     C_R   0.997096 0.836799 0.238392 -0.027924
C20   C     C_R   0.139304 0.777912 0.229749 0.074400
C21   C     C_R   0.270030 0.761798 0.170077 0.076445
C22   C     C_R   0.418230 0.706969 0.164801 -0.253228
C23   C     C_R   0.433318 0.664617 0.213995 0.354072
C24   C     C_R   0.984805 0.877629 0.186910 -0.144460
C25   C     C_R   0.114435 0.862778 0.128290 -0.234913
C26   C     C_R   0.255289 0.803011 0.118492 0.175574
H2    H     H_    0.876671 0.923133 0.192851 0.171620
H3    H     H_    0.531396 0.699180 0.124519 0.201285
C27   C     C_R   0.768681 0.182266 0.866881 -0.150036
C28   C     C_R   0.614645 0.129632 0.864200 -0.231581
C29   C     C_R   0.461517 0.124472 0.813879 0.166635
C30   C     C_R   0.473771 0.168406 0.764474 0.126199
C31   C     C_R   0.627906 0.222893 0.769567 0.027745
C32   C     C_R   0.774893 0.230981 0.821930 0.013478
C33   C     C_R   0.333806 0.159559 0.709948 -0.169403
C34   C     C_R   0.342070 0.204010 0.662784 -0.121266
C35   C     C_R   0.488234 0.260592 0.668870 0.072963
C36   C     C_R   0.632881 0.270089 0.722629 0.029144
C37   C     C_R   0.781197 0.326955 0.729603 -0.059542
C38   C     C_R   0.923509 0.337246 0.783917 0.278201
C39   C     C_R   0.922566 0.288606 0.829066 0.094944
C40   C     C_R   0.492961 0.307235 0.621861 0.309343
C41   C     C_R   0.641562 0.363721 0.628797 -0.309795
C42   C     C_R   0.784471 0.372517 0.681922 -0.071017
H4    H     H_    0.880646 0.186319 0.906470 0.176603
H5    H     H_    0.216271 0.117523 0.701533 0.175844
H6    H     H_    0.231213 0.193600 0.621641 0.183506
H7    H     H_    0.898285 0.415810 0.685863 0.181496
C43   C     C_R   0.795684 0.254115 0.296498 0.222049
C44   C     C_R   0.783579 0.192411 0.230022 -0.147893
H8    H     H_    0.900749 0.150017 0.214268 0.145501
C45   C     C_R   0.620213 0.183141 0.185332 -0.161186
C46   C     C_R   0.466473 0.236526 0.208960 -0.099485
H9    H     H_    0.337018 0.230383 0.176438 0.139228
C47   C     C_R   0.478967 0.299352 0.274396 -0.067893
H10   H     H_    0.357716 0.339487 0.290289 0.156212
C48   C     C_R   0.644649 0.310679 0.318549 -0.205912
O11   O     O_R   0.774940 0.060470 0.937800 -0.589943
O12   O     O_R   0.440880 0.093730 0.087350 -0.604335
O13   O     O_R   0.266130 0.939630 0.062280 -0.591797
C49   C     C_R   0.609489 0.116436 0.115694 0.944889
O14   O     O_R   0.445480 0.069960 0.939820 -0.576380
O15   O     O_R   0.270770 0.915690 0.913690 -0.570258
C50   C     C_R   0.612779 0.083080 0.916259 1.015583
O16   O     O_R   0.770300 0.084410 0.086380 -0.610742
O17   O     O_3   0.602600 0.949510 0.991670 -0.236664
V3    V     V_3+5 0.329470 0.009370 0.001550 1.242838
O18   O     O_R   0.940760 0.906160 0.912560 -0.560930
C51   C     C_R   0.111821 0.882609 0.884644 1.084065
O19   O     O_R   0.936150 0.929930 0.060100 -0.584590
C52   C     C_R   0.104934 0.912969 0.079968 0.998932
V4    V     V_3+5 0.828930 0.990450 0.998310 1.261577
O20   O     O_3   0.105670 0.050490 0.008320 -0.279913
I1    I     I_    0.471205 0.759841 0.610442 -0.127419
I2    I     I_    0.428951 0.769049 0.020906 -0.143158
N1    N     N_R   0.609015 0.621476 0.213070 0.244271
O21   O     O_R   0.700408 0.629981 0.273498 -0.383634
O22   O     O_R   0.694338 0.584473 0.151629 -0.337226
I3    I     I_    0.203319 0.054479 0.812265 -0.358456
N2    N     N_R   0.352303 0.294938 0.565160 0.232585
O23   O     O_R   0.406683 0.269953 0.497273 -0.369982
O24   O     O_R   0.172396 0.314063 0.581336 -0.391960
N3    N     N_R   0.064222 0.399742 0.795725 0.252989
O25   O     O_R   0.009633 0.473597 0.818848 -0.332451
O26   O     O_R   0.246774 0.383201 0.783711 -0.371381
I4    I     I_    0.536023 0.884230 0.789112 -0.238709
I5    I     I_    0.138535 0.309580 0.912063 -0.231082
I6    I     I_    0.037809 0.249520 0.362082 -0.205455
N4    N     N_R   0.849769 0.744947 0.852444 0.255203
O27   O     O_R   0.902121 0.755597 0.919273 -0.362902
O28   O     O_R   0.680586 0.713922 0.831364 -0.354889
I7    I     I_    0.379454 0.499895 0.265605 -0.267244
N5    N     N_R   0.897035 0.714309 0.446968 0.241482
O29   O     O_R   0.963418 0.737336 0.513150 -0.393079
O30   O     O_R   0.722795 0.684945 0.434886 -0.319779
I8    I     I_    0.726574 0.870845 0.450488 -0.081531
N6    N     N_R   0.730158 0.916648 0.308827 0.243136
O31   O     O_R   0.782841 0.990849 0.326896 -0.351547
O32   O     O_R   0.547319 0.898084 0.300843 -0.382847

loop_
_geom_bond_atom_site_label_1
_geom_bond_atom_site_label_2
_geom_bond_distance
_ccdc_geom_bond_type
C23   N1    1.436867 S    
C46   C47   1.399977 A    
C40   C41   1.408321 A    
C44   C45   1.404857 A    
N2    O23   1.300941 A    
C7    C8    1.419753 A    
O11   C50   1.308051 A    
C40   N2    1.435504 S    
C13   N5    1.430276 S    
C2    C48   1.496190 S    
O18   C51   1.310990 A    
C38   C39   1.411764 A    
C29   C30   1.416524 A    
C16   C23   1.420130 A    
C13   C14   1.432566 A    
C43   C44   1.403206 A    
C34   H6    1.081862 S    
C15   C16   1.422675 A    
C21   C22   1.398278 A    
C24   H2    1.082509 S    
O5    C3    1.296822 A    
C17   C18   1.411647 A    
C8    N4    1.438735 S    
N5    O29   1.301982 A    
V2    O10   2.164038 S    
C41   C42   1.403836 A    
C43   C48   1.419378 A    
C6    C7    1.433571 A    
N6    O31   1.301486 A    
V3    O20   1.701075 S    
C27   H4    1.079633 S    
O1    C2    1.299032 A    
C11   C16   1.415072 A    
O8    V2    1.995218 S    
C18   N6    1.434750 S    
C22   C23   1.394502 A    
C47   H10   1.081271 S    
N3    O26   1.299904 A    
O1    V2    2.005753 S    
N1    O22   1.301522 A    
C7    C51   1.501378 S    
O14   V3    2.007001 S    
O13   C52   1.294221 A    
C29   I3    2.163635 S    
C1    O6    1.295569 A    
C43   I6    2.126488 S    
C46   H9    1.083126 S    
N2    O24   1.300793 A    
O11   V4    2.000344 S    
O9    C4    1.297513 A    
C1    C41   1.481521 S    
C38   N3    1.434864 S    
C39   I5    2.145040 S    
C26   I2    2.152168 S    
C35   C36   1.419436 A    
C17   I8    2.156122 S    
C21   C26   1.419134 A    
C11   C12   1.406050 A    
O12   C49   1.298220 A    
O15   C51   1.288362 A    
O4    C2    1.297659 A    
C12   C13   1.414579 A    
V4    O20   2.164140 S    
C31   C36   1.419874 A    
C45   C49   1.487463 S    
C36   C37   1.411372 A    
C4    C10   1.484598 S    
O2    C1    1.292300 A    
C28   C29   1.427152 A    
C24   C25   1.400271 A    
O19   C52   1.298030 A    
N3    O25   1.301037 A    
C5    C6    1.413645 A    
C5    C10   1.408896 A    
C19   C24   1.411121 A    
N4    O28   1.301565 A    
O14   C50   1.287372 A    
O3    C4    1.294261 A    
C32   C39   1.417007 A    
O16   V4    2.011572 S    
C33   C34   1.385727 A    
O19   V4    1.995128 S    
C15   C20   1.425363 A    
C45   C46   1.402387 A    
O6    V2    1.999679 S    
O9    V2    2.002842 S    
C49   O16   1.294155 A    
O17   V3    2.149655 S    
C27   C28   1.402927 A    
O2    V1    2.007082 S    
O17   V4    1.709615 S    
C37   C38   1.414024 A    
C33   H5    1.077566 S    
O7    V1    2.149775 S    
C30   C33   1.408781 A    
C31   C32   1.415341 A    
C25   C52   1.486313 S    
C5    I1    2.155318 S    
C18   C19   1.407547 A    
O15   V3    2.007394 S    
O5    V1    2.006395 S    
O8    C3    1.296871 A    
C42   H7    1.082680 S    
C28   C50   1.494165 S    
C35   C40   1.413190 A    
C3    C12   1.494100 S    
C19   C20   1.409449 A    
C9    C10   1.400763 A    
O7    V2    1.711569 S    
O4    V1    2.005152 S    
O12   V3    2.005165 S    
O3    V1    2.007421 S    
V1    O10   1.701142 S    
C25   C26   1.411425 A    
N5    O30   1.302434 A    
O13   V3    2.006350 S    
C20   C21   1.418956 A    
C27   C32   1.410050 A    
N4    O27   1.301607 A    
C22   H3    1.079083 S    
N6    O32   1.302113 A    
C37   C42   1.408833 A    
C44   H8    1.083284 S    
C30   C31   1.417633 A    
C8    C9    1.403126 A    
C47   C48   1.409308 A    
C34   C35   1.399499 A    
C6    I4    2.152915 S    
C14   C15   1.428071 A    
C11   I7    2.150091 S    
N1    O21   1.300135 A    
C9    H1    1.083857 S    
O18   V4    2.002880 S    
C14   C17   1.432925 A    
