data_mof_unit_2822.cif
_audit_creation_date              2012-12-11T15:57:56-0500
_audit_creation_method            fapswitch 2.2
_symmetry_space_group_name_H-M    P1
_symmetry_Int_Tables_number       1
_space_group_crystal_system       triclinic
_cell_length_a                    10.803765
_cell_length_b                    10.734794
_cell_length_c                    16.999268
_cell_angle_alpha                 99.933395
_cell_angle_beta                  100.068251
_cell_angle_gamma                 61.000446
_cell_volume                      1688.9378622

loop_
_atom_site_label
_atom_site_type_symbol
_atom_type_description
_atom_site_fract_x
_atom_site_fract_y
_atom_site_fract_z
_atom_type_partial_charge
C1    C     C_R   0.352934 0.777971 0.403162 0.573499
C2    C     C_2   0.328970 0.334228 0.822376 0.310639
C3    C     C_2   0.462144 0.306475 0.813051 0.319865
C4    C     C_R   0.405897 0.374975 0.356132 0.525243
C5    C     C_2   0.499166 0.296653 0.731816 0.218169
C6    C     C_1   0.819036 0.341384 0.708388 0.007913
C7    C     C_1   0.845912 0.312888 0.776037 -0.006439
C8    C     C_1   0.338260 0.813856 0.708636 0.004319
C9    C     C_1   0.311497 0.840853 0.776576 0.023415
C10   C     C_R   0.896852 0.307860 0.087561 0.577886
C11   C     C_R   0.321511 0.303119 0.118812 0.628409
C12   C     C_2   0.849419 0.326762 0.165350 0.242487
C13   C     C_R   0.293139 0.894685 0.085159 0.616932
C14   C     C_R   0.886601 0.296702 0.858319 0.538067
C15   C     C_R   0.306672 0.293182 0.893641 0.581223
C16   C     C_R   0.697826 0.420295 0.394277 0.611147
C17   C     C_R   0.277769 0.885594 0.856445 0.557554
C18   C     C_R   0.357747 0.771644 0.626688 0.544184
C19   C     C_R   0.415859 0.383650 0.596905 0.578830
C20   C     C_R   0.774118 0.380439 0.629433 0.554230
C21   C     C_1   0.374109 0.363809 0.271652 0.016813
C22   C     C_1   0.348848 0.345249 0.200670 0.076324
C23   C     C_2   0.745693 0.296166 0.173013 0.243882
C24   C     C_2   0.688104 0.420498 0.307285 0.245044
C25   C     C_2   0.710839 0.302569 0.253738 0.208170
C26   C     C_2   0.320270 0.862756 0.337616 -0.057405
C27   C     C_2   0.342094 0.839229 0.162945 0.220951
C28   C     C_2   0.389025 0.911561 0.224029 0.238796
C29   C     C_2   0.420031 0.873109 0.306327 0.230206
C30   C     C_2   0.413459 0.402295 0.684832 0.236848
Cl1   Cl    Cl    0.657346 0.238608 0.089255 -0.492270
Cl2   Cl    Cl    0.643618 0.133060 0.699318 -0.560249
Cl3   Cl    Cl    0.734745 0.138124 0.278209 -0.468011
Cl4   Cl    Cl    0.582859 0.854656 0.360423 -0.416735
Cl5   Cl    Cl    0.325113 0.687317 0.173787 -0.650769
Cr1   Cr    Cr6+3 0.608020 0.610770 0.522990 1.134936
Cr2   Cr    Cr6+3 0.289390 0.599570 0.488050 1.097821
Cr3   Cr    Cr6+3 0.602610 0.289690 0.489020 1.148032
Cr4   Cr    Cr6+3 0.053780 0.052210 0.965970 1.135656
Cr5   Cr    Cr6+3 0.060060 0.372530 0.992430 1.097566
Cr6   Cr    Cr6+3 0.372600 0.061970 0.991430 1.155349
H1    H     H_    0.215388 0.895861 0.304331 0.140712
H2    H     H_    0.137018 0.373977 0.774153 0.330511
H3    H     H_    0.250356 0.594719 0.682041 0.364299
H4    H     H_    0.002095 0.370741 0.217165 0.344568
H5    H     H_    0.621602 0.553755 0.225323 0.347318
H6    H     H_    0.428709 0.071678 0.261407 0.369071
H7    H     H_    0.655963 0.252290 0.859305 0.349223
O1    O     O_R   0.749250 0.499990 0.439200 -0.409876
O2    O     O_R   0.411120 0.181190 0.091480 -0.403877
O3    O     O_R   0.364220 0.944920 0.062310 -0.460512
O4    O     O_R   0.477870 0.725740 0.440280 -0.451023
O5    O     O_R   0.158740 0.906940 0.874970 -0.478473
O6    O     O_R   0.930920 0.176940 0.885610 -0.478860
O7    O     O_R   0.910730 0.394510 0.895320 -0.505387
O8    O     O_R   0.185840 0.361180 0.920280 -0.518505
O9    O     O_R   0.399210 0.173040 0.915160 -0.451921
O10   O     O_R   0.353170 0.937370 0.898860 -0.510385
O11   O     O_3   0.162150 0.162240 0.983280 -0.316034
O12   O     O_R   0.299400 0.468710 0.556310 -0.486323
O13   O     O_R   0.260770 0.742210 0.412610 -0.491188
O14   O     O_R   0.297990 0.466320 0.394220 -0.463377
O15   O     O_R   0.487720 0.253870 0.385870 -0.446674
O16   O     O_R   0.721940 0.304340 0.422320 -0.481691
O17   O     O_R   0.750770 0.502570 0.614050 -0.488992
O18   O     O_R   0.479280 0.728140 0.602370 -0.482515
O19   O     O_R   0.262290 0.744790 0.587460 -0.521775
O20   O     O_3   0.222937 0.370349 0.758401 -0.687882
O21   O     O_3   0.320229 0.532517 0.722396 -0.706482
O22   O     O_3   0.922361 0.362935 0.233215 -0.667987
O23   O     O_R   0.489240 0.256450 0.560730 -0.427154
O24   O     O_3   0.659216 0.549414 0.282770 -0.618211
O25   O     O_3   0.401520 0.027784 0.209727 -0.670596
O26   O     O_3   0.566771 0.268194 0.877353 -0.649397
O27   O     O_R   0.723350 0.306730 0.584410 -0.490492
O28   O     O_3   0.500010 0.500010 0.500020 -0.394642
O29   O     O_R   0.170650 0.915100 0.051290 -0.470747
O30   O     O_R   0.941960 0.184500 0.049060 -0.462250
O31   O     O_R   0.922640 0.402670 0.071640 -0.504060
O32   O     O_R   0.196880 0.368740 0.083740 -0.496942

loop_
_geom_bond_atom_site_label_1
_geom_bond_atom_site_label_2
_ccdc_geom_bond_type
C19   O23   A    
Cr2   O14   S    
C10   O30   A    
Cr3   O28   S    
C12   C23   D    
C26   H1    S    
Cr4   O29   S    
C28   C29   S    
Cr6   O10   S    
C5    C30   D    
C2    O20   S    
Cr1   O18   S    
Cr4   O6    S    
C4    O14   A    
C3    O26   S    
Cr1   O28   S    
C13   O3    A    
C7    C14   S    
H2    O20   S    
Cr5   O8    S    
Cr5   O32   S    
H5    O24   S    
Cr1   O4    S    
C17   O10   A    
C5    Cl2   S    
C14   O7    A    
C16   C24   S    
Cr5   O11   S    
C21   C22   T    
C15   O9    A    
C28   O25   S    
Cr3   O16   S    
Cr3   O27   S    
C13   O29   A    
Cr4   O30   S    
H7    O26   S    
C20   O17   A    
C24   C25   D    
H6    O25   S    
Cr1   O17   S    
C8    C9    T    
C27   Cl5   S    
C18   O19   A    
C29   Cl4   S    
C8    C18   S    
C20   O27   A    
C23   Cl1   S    
C4    O15   A    
Cr5   O7    S    
Cr4   O11   S    
Cr5   O31   S    
H3    O21   S    
C16   O1    A    
C2    C15   S    
Cr6   O11   S    
C10   C12   S    
C9    C17   S    
C14   O6    A    
Cr2   O28   S    
C1    C26   S    
C17   O5    A    
Cr6   O2    S    
C30   O21   S    
C24   O24   S    
Cr3   O15   S    
C12   O22   S    
Cr3   O23   S    
H4    O22   S    
C3    C5    S    
C1    O13   A    
Cr2   O13   S    
C10   O31   A    
C6    C7    T    
C19   O12   A    
C18   O18   A    
C6    C20   S    
C11   C22   S    
C15   O8    A    
C2    C3    D    
Cr6   O9    S    
C11   O2    A    
C4    C21   S    
Cr4   O5    S    
Cr2   O19   S    
C23   C25   S    
C1    O4    A    
Cr2   O12   S    
C11   O32   A    
C26   C29   D    
C27   C28   D    
C13   C27   S    
C16   O16   A    
C19   C30   S    
Cr6   O3    S    
Cr1   O1    S    
C25   Cl3   S    
