data_mof_unit_3095.cif
_audit_creation_date              2012-12-10T17:04:36-0500
_audit_creation_method            fapswitch 2.2
_symmetry_space_group_name_H-M    P1
_symmetry_Int_Tables_number       1
_space_group_crystal_system       triclinic
_cell_length_a                    15.004222
_cell_length_b                    10.633925
_cell_length_c                    10.041063
_cell_angle_alpha                 93.030659
_cell_angle_beta                  90.788522
_cell_angle_gamma                 89.575631
_cell_volume                      1599.66147581

loop_
_atom_site_label
_atom_site_type_symbol
_atom_type_description
_atom_site_fract_x
_atom_site_fract_y
_atom_site_fract_z
_atom_type_partial_charge
C1    C     C_R   0.501704 0.262293 0.495760 0.791820
C2    C     C_R   0.183591 0.448182 0.386232 0.496577
C3    C     C_R   0.229983 0.506932 0.494909 -0.242582
C4    C     C_R   0.326593 0.501741 0.498558 0.913158
C5    C     C_R   0.184676 0.570959 0.599888 0.090230
C6    C     C_2   0.446435 0.928716 0.405230 -0.128175
C7    C     C_2   0.459086 0.865982 0.516146 0.058429
C8    C     C_2   0.442243 0.064891 0.413154 0.045370
C9    C     C_2   0.508531 0.127666 0.480511 0.390312
C10   C     C_2   0.518406 0.597916 0.930760 -0.141446
C11   C     C_2   0.501841 0.600573 0.077801 -0.007584
C12   C     C_R   0.906870 0.539227 0.615624 0.121437
C13   C     C_R   0.490309 0.737222 0.503850 0.901880
C14   C     C_R   0.672974 0.497937 0.500935 0.874259
C15   C     C_R   0.814759 0.542111 0.614259 -0.241224
C16   C     C_R   0.768288 0.491568 0.503610 -0.086602
C17   C     C_R   0.812443 0.432500 0.396557 -0.217624
C18   C     C_R   0.905073 0.432312 0.393288 -0.040345
C19   C     C_R   0.952771 0.487007 0.503977 0.032715
C20   C     C_3   0.438577 0.922400 0.655266 -0.805991
C21   C     C_3   0.363146 0.127674 0.348300 -0.839981
C22   C     C_3   0.660151 0.134240 0.538388 -0.308507
C23   C     C_R   0.950189 0.374704 0.283875 0.403016
C24   C     C_3   0.612689 0.363014 0.119567 -0.099791
C25   C     C_3   0.875675 0.403267 0.088190 -0.400888
C26   C     C_3   0.080297 0.291125 0.073341 -0.153743
C27   C     C_3   0.226632 0.508424 0.182988 -0.234803
C28   C     C_3   0.230807 0.680228 0.675284 -0.849851
C29   C     C_3   0.090285 0.615281 0.865357 -0.961171
C30   C     C_R   0.043937 0.367238 0.288031 0.443839
C31   C     C_R   0.091093 0.435157 0.391757 -0.179954
C32   C     C_R   0.045682 0.490812 0.502925 -0.171752
C33   C     C_R   0.092701 0.551154 0.612713 0.125868
C34   C     C_R   0.045599 0.588198 0.731033 0.236632
C35   C     C_R   0.952928 0.585605 0.728579 -0.250617
H1    H     H_    0.779172 0.585005 0.698590 0.155135
H2    H     H_    0.403398 0.014470 0.654236 0.235790
H3    H     H_    0.328234 0.190840 0.422542 0.238276
H4    H     H_    0.385220 0.182530 0.263870 0.283870
H5    H     H_    0.314590 0.056444 0.308201 0.246758
H6    H     H_    0.657325 0.206443 0.622372 0.181527
H7    H     H_    0.673052 0.178628 0.442572 0.140791
H8    H     H_    0.717381 0.070998 0.558210 0.199376
H9    H     H_    0.615917 0.315331 0.214829 0.175974
H10   H     H_    0.655849 0.447927 0.123982 0.128402
H11   H     H_    0.640259 0.296416 0.041682 0.134224
H12   H     H_    0.543143 0.682515 0.888558 0.148645
H13   H     H_    0.931866 0.460983 0.055398 0.149603
H14   H     H_    0.823152 0.467510 0.129370 0.166755
H15   H     H_    0.847312 0.352312 0.998306 0.201778
H16   H     H_    0.141462 0.253960 0.023999 0.171569
H17   H     H_    0.073748 0.391051 0.048048 0.107879
H18   H     H_    0.023842 0.234721 0.030858 0.197885
H19   H     H_    0.266444 0.590258 0.222230 0.159253
H20   H     H_    0.157653 0.541604 0.162046 0.120264
H21   H     H_    0.256094 0.474023 0.086978 0.177459
H22   H     H_    0.283913 0.719567 0.614266 0.219903
H23   H     H_    0.460985 0.433035 0.887803 0.240913
H24   H     H_    0.183872 0.760084 0.693845 0.237529
H25   H     H_    0.261325 0.650126 0.769779 0.251530
H26   H     H_    0.147814 0.550709 0.878466 0.241139
H27   H     H_    0.111035 0.715022 0.877659 0.253122
H28   H     H_    0.044129 0.598943 0.948126 0.221057
H29   H     H_    0.496104 0.692357 0.129293 0.094238
H30   H     H_    0.773730 0.385597 0.317173 0.173227
H31   H     H_    0.916308 0.617743 0.816587 0.145215
H32   H     H_    0.450916 0.882537 0.306382 0.131813
H33   H     H_    0.394348 0.858564 0.707491 0.215569
H34   H     H_    0.501280 0.933787 0.714519 0.265941
N1    N     N_2   0.500970 0.501330 0.852150 -0.176494
N2    N     N_2   0.500990 0.501360 0.147810 0.101561
O1    O     O_R   0.499990 0.319060 0.613040 -0.612017
O2    O     O_3   0.523801 0.390851 0.084598 -0.553668
O3    O     O_3   0.902976 0.313765 0.180268 -0.596276
O4    O     O_3   0.089355 0.274997 0.211493 -0.553651
O5    O     O_3   0.228626 0.409024 0.271570 -0.546793
O6    O     O_R   0.500010 0.319100 0.386900 -0.615555
O7    O     O_R   0.367830 0.499950 0.613080 -0.618524
O8    O     O_R   0.367860 0.499990 0.386940 -0.581768
O9    O     O_R   0.499990 0.680900 0.613100 -0.613253
O10   O     O_R   0.500010 0.680940 0.386960 -0.653756
O11   O     O_R   0.632140 0.500010 0.613060 -0.612000
O12   O     O_R   0.632170 0.500050 0.386920 -0.641067
O13   O     O_3   0.581590 0.061664 0.531163 -0.620956
Zn1   Zn    Zn3+2 0.499980 0.499970 0.650990 0.941834
Zn2   Zn    Zn3+2 0.500020 0.500030 0.349010 0.977061

loop_
_geom_bond_atom_site_label_1
_geom_bond_atom_site_label_2
_ccdc_geom_bond_type
C8    C9    D    
C29   H28   S    
C30   O4    S    
C1    O6    A    
O1    Zn1   S    
C27   H19   S    
C28   H22   S    
C24   H10   S    
C34   C35   A    
C30   C31   A    
C27   H20   S    
C24   O2    S    
C22   H6    S    
C15   C16   A    
N2    Zn2   S    
C13   O10   A    
C17   C18   A    
C25   O3    S    
C25   H15   S    
C21   H3    S    
C31   C32   A    
C16   C17   A    
C5    C33   A    
O10   Zn2   S    
C13   O9    A    
C14   O12   A    
C19   C32   A    
C33   C34   A    
C28   H25   S    
C29   H26   S    
C1    O1    A    
C18   C23   A    
C23   C30   A    
C1    C9    S    
C4    O8    A    
C11   H29   S    
N2    O2    S    
C27   H21   S    
C18   C19   A    
C6    C8    S    
C35   H31   S    
C29   C34   S    
C2    C31   A    
C22   O13   S    
C4    O7    A    
O9    Zn1   S    
C26   H17   S    
C5    C28   S    
C22   H8    S    
C21   H4    S    
C12   C15   A    
C8    C21   S    
C12   C35   A    
C25   H13   S    
C10   N1    D    
O7    Zn1   S    
C6    H32   S    
O6    Zn2   S    
C24   H9    S    
C14   C16   S    
C20   H34   S    
C14   O11   A    
C23   O3    S    
C3    C4    S    
C26   H18   S    
C15   H1    S    
C2    O5    S    
C28   H24   S    
C29   H27   S    
C20   H33   S    
H23   N1    S    
C3    C5    A    
C6    C7    D    
O11   Zn1   S    
C17   H30   S    
C24   H11   S    
C32   C33   A    
C2    C3    A    
C26   H16   S    
C20   H2    S    
C22   H7    S    
C21   H5    S    
C12   C19   A    
C11   N2    D    
C25   H14   S    
C10   C11   S    
C9    O13   S    
C7    C13   S    
O12   Zn2   S    
C26   O4    S    
C7    C20   S    
C10   H12   S    
N1    Zn1   S    
O8    Zn2   S    
C27   O5    S    
