data_mof_unit_2447.cif
_audit_creation_date              2013-03-05T16:02:02-0500
_audit_creation_method            fapswitch 2.2
_symmetry_space_group_name_H-M    P1
_symmetry_Int_Tables_number       1
_space_group_crystal_system       triclinic
_cell_length_a                    6.932826
_cell_length_b                    17.543943
_cell_length_c                    19.451373
_cell_angle_alpha                 108.653389
_cell_angle_beta                  89.557052
_cell_angle_gamma                 90.553477
_cell_volume                      2241.44519371

loop_
_atom_site_label
_atom_site_type_symbol
_atom_site_description
_atom_site_fract_x
_atom_site_fract_y
_atom_site_fract_z
_atom_type_partial_charge
O1    O     O_R   0.494330 0.415720 0.413720 -0.592305
O2    O     O_R   0.819330 0.430070 0.560210 -0.603357
O3    O     O_R   0.994320 0.584280 0.586280 -0.588167
C1    C     C_R   0.650134 0.415345 0.582155 0.944757
O4    O     O_R   0.823730 0.406300 0.412670 -0.598649
O5    O     O_R   0.998760 0.560340 0.437690 -0.583836
C2    C     C_R   0.654884 0.383575 0.384926 0.942260
O6    O     O_R   0.489890 0.439660 0.562310 -0.601741
O7    O     O_3   0.662340 0.550560 0.508380 -0.260186
V1    V     V_3+5 0.935370 0.490620 0.498450 1.163951
O8    O     O_R   0.328750 0.569930 0.439790 -0.602918
C3    C     C_R   0.161024 0.582031 0.415677 0.954225
O9    O     O_R   0.324340 0.593700 0.587330 -0.587456
C4    C     C_R   0.155448 0.616473 0.615019 0.945534
V2    V     V_3+5 0.435940 0.509380 0.501550 1.168235
O10   O     O_3   0.159100 0.449440 0.491620 -0.280305
C5    C     C_R   0.276985 0.600087 0.751514 -0.196327
C6    C     C_R   0.334695 0.589741 0.816384 -0.159917
C7    C     C_R   0.322001 0.653312 0.881578 0.104230
C8    C     C_R   0.251773 0.727549 0.881113 -0.182900
C9    C     C_R   0.193526 0.739868 0.815891 0.094098
C10   C     C_R   0.206293 0.674840 0.749770 0.116531
C11   C     C_R   0.120054 0.815118 0.816056 -0.291186
C12   C     C_R   0.059264 0.825260 0.750038 0.135347
C13   C     C_R   0.072156 0.760307 0.683914 0.076074
C14   C     C_R   0.145523 0.684996 0.683763 -0.278105
C15   C     C_R   0.988509 0.899937 0.748310 -0.234077
C16   C     C_R   0.930639 0.910337 0.683497 -0.231202
C17   C     C_R   0.942964 0.847040 0.618032 0.420946
C18   C     C_R   0.014235 0.772673 0.618652 -0.291887
H1    H     H_    0.287605 0.548532 0.702916 0.122282
H2    H     H_    0.388357 0.531705 0.815661 0.117780
H3    H     H_    0.242201 0.775078 0.932692 0.108817
H4    H     H_    0.977886 0.951475 0.796930 0.138335
H5    H     H_    0.876845 0.968488 0.684699 0.169680
H6    H     H_    0.025410 0.724770 0.567455 0.158397
C19   C     C_R   0.001060 0.614071 0.310656 -0.003280
C20   C     C_R   0.153073 0.626740 0.362228 -0.175687
C21   C     C_R   0.299750 0.682909 0.362805 -0.223025
C22   C     C_R   0.294129 0.729042 0.315882 0.134380
C23   C     C_R   0.135123 0.721902 0.269387 0.013266
C24   C     C_R   0.985510 0.665992 0.267943 0.129261
C25   C     C_R   0.444168 0.783280 0.315508 -0.155557
C26   C     C_R   0.437994 0.829695 0.268977 -0.212485
C27   C     C_R   0.280143 0.823690 0.222793 0.139831
C28   C     C_R   0.126903 0.770357 0.223581 0.041994
C29   C     C_R   0.965873 0.765242 0.178383 0.159112
C30   C     C_R   0.814894 0.711992 0.179158 -0.220950
C31   C     C_R   0.824334 0.662986 0.223196 -0.215512
C32   C     C_R   0.272845 0.870082 0.175882 -0.238594
C33   C     C_R   0.112029 0.865443 0.130869 -0.150301
C34   C     C_R   0.958263 0.813401 0.133109 -0.273585
H7    H     H_    0.418727 0.691226 0.400436 0.164838
H8    H     H_    0.567488 0.789306 0.350819 0.175412
H9    H     H_    0.556772 0.870400 0.269194 0.143075
H10   H     H_    0.391291 0.910662 0.175174 0.136366
H11   H     H_    0.833876 0.809251 0.098605 0.146044
H12   H     H_    0.688919 0.708077 0.145501 0.140340
H13   H     H_    0.702325 0.623853 0.222648 0.138730
C35   C     C_R   0.778500 0.184894 0.868734 -0.280156
C36   C     C_R   0.622703 0.132820 0.867640 -0.150529
C37   C     C_R   0.471125 0.126902 0.818464 -0.230241
C38   C     C_R   0.471972 0.172889 0.770834 0.111692
C39   C     C_R   0.628066 0.226265 0.773393 0.003169
C40   C     C_R   0.781668 0.232011 0.822337 0.165383
C41   C     C_R   0.321199 0.166419 0.720476 0.034161
C42   C     C_R   0.324966 0.215273 0.675381 -0.245243
C43   C     C_R   0.478574 0.268696 0.678066 0.136495
C44   C     C_R   0.632071 0.273464 0.726513 0.023722
C45   C     C_R   0.790445 0.325145 0.727828 0.157747
C46   C     C_R   0.941887 0.330197 0.776583 -0.214026
C47   C     C_R   0.936988 0.284421 0.823682 -0.228904
C48   C     C_R   0.482739 0.316430 0.632081 -0.246808
C49   C     C_R   0.641617 0.366969 0.632249 -0.149433
C50   C     C_R   0.795156 0.370706 0.680208 -0.248874
H14   H     H_    0.895970 0.189542 0.906390 0.140404
H15   H     H_    0.353323 0.085498 0.817262 0.141476
H16   H     H_    0.208459 0.210876 0.637407 0.141049
H17   H     H_    0.364693 0.312768 0.594870 0.140438
H18   H     H_    0.917593 0.409988 0.681107 0.135216
H19   H     H_    0.064577 0.369506 0.778207 0.136333
H20   H     H_    0.056162 0.289265 0.860623 0.136384
H21   H     H_    0.861632 0.134056 0.424617 0.131282
C51   C     C_R   0.518151 0.405609 0.252315 -0.218750
C52   C     C_R   0.454585 0.418722 0.189329 -0.157350
C53   C     C_R   0.447177 0.355641 0.124042 0.108397
C54   C     C_R   0.502155 0.278363 0.122377 -0.204682
C55   C     C_R   0.564584 0.263126 0.185890 0.106855
C56   C     C_R   0.574609 0.328206 0.252066 0.126220
C57   C     C_R   0.620268 0.184824 0.183898 -0.308263
C58   C     C_R   0.686876 0.171728 0.247992 0.122268
C59   C     C_R   0.699037 0.237039 0.314008 0.118863
C60   C     C_R   0.643623 0.315353 0.316012 -0.314746
C61   C     C_R   0.738217 0.093790 0.248130 -0.182203
C62   C     C_R   0.801712 0.080807 0.311208 -0.106863
C63   C     C_R   0.813651 0.144551 0.375597 -0.091759
C64   C     C_R   0.762139 0.221745 0.377396 -0.169816
H22   H     H_    0.523760 0.457261 0.300926 0.134719
H23   H     H_    0.412367 0.478681 0.191270 0.119611
H24   H     H_    0.497194 0.230781 0.070780 0.106805
H25   H     H_    0.728268 0.041806 0.199874 0.117194
H26   H     H_    0.840441 0.020803 0.310191 0.129302
H27   H     H_    0.770613 0.268852 0.429211 0.111895
O11   O     O_R   0.775200 0.060470 0.937800 -0.598908
O12   O     O_R   0.441110 0.093720 0.087350 -0.590996
O13   O     O_R   0.266330 0.939630 0.062280 -0.599283
C65   C     C_R   0.609820 0.116606 0.115019 0.945721
O14   O     O_R   0.445750 0.069950 0.939820 -0.604607
O15   O     O_R   0.271000 0.915700 0.913700 -0.587878
C66   C     C_R   0.614890 0.084700 0.917916 0.947888
O16   O     O_R   0.770530 0.084400 0.086380 -0.590601
O17   O     O_3   0.602830 0.949510 0.991680 -0.272208
V3    V     V_3+5 0.329710 0.009370 0.001550 1.155329
O18   O     O_R   0.940990 0.906170 0.912570 -0.590761
C67   C     C_R   0.109941 0.883541 0.884861 0.940811
O19   O     O_R   0.936350 0.929940 0.060100 -0.603841
C68   C     C_R   0.104366 0.915051 0.081879 0.950249
V4    V     V_3+5 0.829160 0.990450 0.998310 1.155147
O20   O     O_3   0.105910 0.050480 0.008320 -0.273818
N1    N     N_R   0.884360 0.858281 0.551022 0.236459
O21   O     O_R   0.819095 0.927387 0.550435 -0.408721
O22   O     O_R   0.895449 0.799583 0.489953 -0.419854
N2    N     N_3   0.167842 0.108639 0.713640 -0.203435
H28   H     H_    0.087738 0.126085 0.761759 0.109074
H29   H     H_    0.073109 0.109406 0.672264 0.136635
N3    N     N_3   0.382652 0.371006 0.059799 -0.217802
H30   H     H_    0.484660 0.408817 0.047156 0.098520
H31   H     H_    0.379988 0.317763 0.015799 0.100407
N4    N     N_3   0.380630 0.643834 0.948974 -0.215569
H32   H     H_    0.433078 0.585800 0.940311 0.095802
H33   H     H_    0.257621 0.649589 0.981643 0.103387
N5    N     N_3   0.868549 0.547065 0.298940 -0.201022
H34   H     H_    0.935364 0.500281 0.311701 0.111348
H35   H     H_    0.849553 0.520673 0.243054 0.093461

loop_
_geom_bond_atom_site_label_1
_geom_bond_atom_site_label_2
_geom_bond_distance
_ccdc_geom_bond_type
C7    N4    1.435416 S    
O11   C66   1.298633 A    
C54   C55   1.416609 A    
N3    H30   1.045590 S    
C53   N3    1.435540 S    
C23   C24   1.414907 A    
C37   H15   1.083125 S    
C7    C8    1.397583 A    
C12   C15   1.413877 A    
C1    O6    1.298576 A    
O18   C67   1.297084 A    
N2    H28   1.044094 S    
C52   C53   1.393192 A    
C26   C27   1.402906 A    
N4    H33   1.045718 S    
O12   C65   1.296668 A    
C19   C20   1.426734 A    
O16   V4    2.003140 S    
O12   V3    1.997423 S    
C16   C17   1.399126 A    
C57   C65   1.485516 S    
N4    H32   1.045794 S    
O5    C3    1.296994 A    
C20   C21   1.406762 A    
N2    H29   1.046199 S    
V2    O10   2.159535 S    
O19   C68   1.299545 A    
C6    C7    1.398284 A    
C48   C49   1.406682 A    
C19   C24   1.420916 A    
V4    O20   2.159603 S    
V3    O20   1.703697 S    
O8    V2    1.992294 S    
C22   C25   1.404526 A    
C62   C63   1.389229 A    
C61   H25   1.081550 S    
O14   C66   1.296324 A    
C43   C44   1.410984 A    
C23   C28   1.416325 A    
C45   C46   1.403341 A    
O1    V2    1.997241 S    
C50   H18   1.084880 S    
C1    C49   1.483358 S    
C36   C37   1.407110 A    
C62   H26   1.082926 S    
O15   V3    1.996936 S    
C55   C56   1.423047 A    
C41   C42   1.408835 A    
C38   C41   1.416823 A    
O9    C4    1.297054 A    
C3    C20   1.490810 S    
C44   C45   1.412315 A    
C42   H16   1.084229 S    
C36   C66   1.482717 S    
O17   V3    2.151483 S    
N1    O22   1.301927 A    
C59   C64   1.416281 A    
C5    C6    1.393168 A    
O11   V4    1.993714 S    
C15   H4    1.081921 S    
C2    C60   1.486270 S    
C17   N1    1.441221 S    
C49   C50   1.408013 A    
O13   V3    1.997903 S    
C42   C43   1.401973 A    
C12   C13   1.422475 A    
C16   H5    1.082785 S    
C21   C22   1.401199 A    
O4    C2    1.297519 A    
C53   C54   1.402191 A    
N5    H34   1.043698 S    
C43   C48   1.407309 A    
C27   C28   1.412131 A    
C35   H14   1.084490 S    
C32   H10   1.084505 S    
C33   C34   1.406367 A    
C35   C36   1.403775 A    
O14   V3    2.000853 S    
O2    C1    1.296856 A    
C25   C26   1.398869 A    
C17   C18   1.403255 A    
C52   H23   1.083512 S    
C25   H8    1.083862 S    
C29   C30   1.399452 A    
C11   C12   1.419254 A    
C63   C64   1.393445 A    
C4    C14   1.486549 S    
C37   C38   1.409701 A    
C32   C33   1.408546 A    
C48   H17   1.084520 S    
C64   H27   1.081403 S    
C39   C44   1.414258 A    
C51   C52   1.392380 A    
O18   V4    1.998377 S    
O3    C4    1.294155 A    
C8    H3    1.082205 S    
C30   C31   1.396518 A    
C55   C57   1.419018 A    
C35   C40   1.405287 A    
O6    V2    1.993299 S    
C9    C11   1.418664 A    
O13   C68   1.296647 A    
C5    H1    1.081842 S    
C6    H2    1.083234 S    
C51   C56   1.415390 A    
O2    V1    2.000919 S    
C58   C59   1.423914 A    
N1    O21   1.301658 A    
C54   H24   1.081370 S    
O7    V1    2.151502 S    
C13   C18   1.416181 A    
C28   C29   1.410706 A    
C22   C23   1.410349 A    
N3    H31   1.045889 S    
O1    C2    1.292730 A    
C65   O16   1.293131 A    
O5    V1    1.998096 S    
O8    C3    1.301579 A    
C30   H12   1.083968 S    
C29   C34   1.403463 A    
C40   C47   1.404121 A    
C5    C10   1.415065 A    
C31   H13   1.082222 S    
C19   N5    1.445288 S    
C18   H6    1.081056 S    
C51   H22   1.080971 S    
C39   C40   1.415183 A    
O9    V2    1.998553 S    
C13   C14   1.419474 A    
O4    V1    1.997583 S    
O3    V1    1.996946 S    
V1    O10   1.703677 S    
C58   C61   1.417069 A    
O17   V4    1.707838 S    
C26   H9    1.083915 S    
C57   C58   1.419328 A    
C21   H7    1.084494 S    
C27   C32   1.405068 A    
H21   C63   1.082647 S    
C59   C60   1.418629 A    
C33   C68   1.483414 S    
O19   V4    1.992236 S    
C56   C60   1.420430 A    
C61   C62   1.392891 A    
C34   H11   1.084380 S    
O15   C67   1.294155 A    
C24   C31   1.411914 A    
C11   C67   1.486448 S    
C38   C39   1.414888 A    
C46   C47   1.398233 A    
C8    C9    1.415716 A    
N5    H35   1.045221 S    
C10   C14   1.419089 A    
C45   C50   1.403805 A    
C41   N2    1.439017 S    
C46   H19   1.084097 S    
C9    C10   1.423069 A    
C47   H20   1.083939 S    
O7    V2    1.709718 S    
C15   C16   1.392832 A    
