data_mof_unit_775.cif
_audit_creation_date              2012-12-11T17:23:08-0500
_audit_creation_method            fapswitch 2.2
_symmetry_space_group_name_H-M    P1
_symmetry_Int_Tables_number       1
_space_group_crystal_system       triclinic
_cell_length_a                    22.410952
_cell_length_b                    7.09595
_cell_length_c                    19.421679
_cell_angle_alpha                 89.960338
_cell_angle_beta                  99.653974
_cell_angle_gamma                 89.947109
_cell_volume                      3044.83002153

loop_
_atom_site_label
_atom_site_type_symbol
_atom_type_description
_atom_site_fract_x
_atom_site_fract_y
_atom_site_fract_z
_atom_type_partial_charge
O1    O     O_R   0.443980 0.494320 0.557430 -0.532930
O2    O     O_R   0.556020 0.994320 0.442570 -0.532960
O3    O     O_R   0.441210 0.822520 0.414610 -0.537170
O4    O     O_R   0.558790 0.322520 0.585390 -0.537200
C1    C     C_R   0.426636 0.655522 0.388793 0.693731
C2    C     C_R   0.573342 0.155202 0.611197 0.693743
O5    O     O_R   0.436920 0.823940 0.555180 -0.537354
O6    O     O_R   0.563080 0.323940 0.444820 -0.537324
O7    O     O_R   0.551700 0.995760 0.584140 -0.534898
O8    O     O_R   0.448300 0.495760 0.415860 -0.535029
C3    C     C_R   0.421630 0.655474 0.574812 0.716673
C4    C     C_R   0.578366 0.155438 0.425190 0.716420
O9    O     O_3   0.537660 0.661290 0.509340 -0.369984
O10   O     O_3   0.462340 0.161290 0.490660 -0.370079
V1    V     V_3+5 0.493010 0.935560 0.498270 1.438348
V2    V     V_3+5 0.506990 0.435560 0.501730 1.438152
H1    H     H_    0.683035 0.846834 0.264596 0.179079
H2    H     H_    0.316974 0.346581 0.735319 0.179094
C5    C     C_R   0.754988 0.946552 0.213777 0.388749
C6    C     C_R   0.245039 0.446379 0.786197 0.388114
C7    C     C_R   0.794347 0.099169 0.205613 -0.172922
C8    C     C_R   0.205689 0.599165 0.794430 -0.173119
C9    C     C_R   0.789555 0.268497 0.243846 0.373372
C10   C     C_R   0.210490 0.768726 0.756268 0.374042
C11   C     C_R   0.746243 0.284267 0.288637 0.395407
C12   C     C_R   0.253783 0.784524 0.711458 0.394972
C13   C     C_R   0.707407 0.130654 0.296443 -0.145126
C14   C     C_R   0.292608 0.630740 0.703581 -0.145116
C15   C     C_R   0.712569 0.964770 0.258917 -0.162325
C16   C     C_R   0.287447 0.464647 0.741049 -0.162105
C17   C     C_1   0.839049 0.082872 0.158822 -0.028768
C18   C     C_1   0.160977 0.582790 0.841205 -0.028673
C19   C     C_1   0.661953 0.139164 0.342268 0.000870
C20   C     C_1   0.338052 0.639281 0.657745 0.000872
C21   C     C_1   0.624000 0.146580 0.380241 -0.179602
C22   C     C_1   0.375999 0.646690 0.619765 -0.179551
C23   C     C_1   0.876526 0.071797 0.120348 -0.157022
C24   C     C_1   0.123493 0.571696 0.879667 -0.156596
C25   C     C_R   0.632856 0.154874 0.804226 -0.161825
C26   C     C_R   0.366046 0.682022 0.196273 -0.162178
H3    H     H_    0.545429 0.178504 0.740213 0.110268
H4    H     H_    0.453428 0.705930 0.260283 0.110486
H5    H     H_    0.715018 0.138606 0.919214 0.125321
H6    H     H_    0.283341 0.679955 0.081606 0.125344
H7    H     H_    0.614193 0.166667 0.852046 0.119914
H8    H     H_    0.384189 0.706754 0.148723 0.119912
C27   C     C_R   0.615889 0.146564 0.677957 -0.041435
C28   C     C_R   0.384023 0.648879 0.322025 -0.042133
C29   C     C_R   0.912053 0.058829 0.759648 0.240889
C30   C     C_R   0.088815 0.537035 0.240086 0.242815
C31   C     C_R   0.874319 0.055313 0.693394 0.332017
C32   C     C_R   0.126153 0.544733 0.306529 0.331351
C33   C     C_R   0.811885 0.078495 0.688471 -0.196641
C34   C     C_R   0.188523 0.569002 0.311420 -0.196452
C35   C     C_R   0.784158 0.096934 0.748242 0.001413
C36   C     C_R   0.215882 0.595802 0.251770 0.001501
C37   C     C_R   0.822141 0.091382 0.815204 -0.007580
C38   C     C_R   0.177528 0.599280 0.185010 -0.007343
C39   C     C_R   0.719821 0.118231 0.743672 0.111554
C40   C     C_R   0.280036 0.621759 0.256377 0.111524
C41   C     C_R   0.695447 0.133427 0.806458 0.137512
C42   C     C_R   0.303763 0.653120 0.193911 0.137820
C43   C     C_R   0.733524 0.127204 0.871269 -0.187866
C44   C     C_R   0.265313 0.656391 0.129315 -0.188357
C45   C     C_R   0.795701 0.106500 0.875687 -0.150601
C46   C     C_R   0.203380 0.629485 0.124805 -0.151859
C47   C     C_R   0.678516 0.125246 0.679297 -0.212590
C48   C     C_R   0.321753 0.618535 0.320503 -0.212982
C49   C     C_R   0.593541 0.161592 0.740604 -0.166560
C50   C     C_R   0.405651 0.681135 0.259731 -0.165940
C51   C     C_R   0.885945 0.071359 0.820424 -0.156249
C52   C     C_R   0.114074 0.570075 0.179642 -0.157196
H9    H     H_    0.693274 0.115590 0.629408 0.098876
H10   H     H_    0.307543 0.594575 0.370092 0.099586
H11   H     H_    0.786073 0.076781 0.636455 0.157131
H12   H     H_    0.214243 0.570842 0.363487 0.157177
H13   H     H_    0.822989 0.102736 0.927255 0.094434
H14   H     H_    0.175821 0.632868 0.073390 0.096390
O11   O     O_R   0.051730 0.724670 0.084120 -0.537431
O12   O     O_R   0.948270 0.224670 0.915880 -0.535272
O13   O     O_R   0.063080 0.393540 0.944820 -0.535812
O14   O     O_R   0.936920 0.893540 0.055180 -0.536343
C53   C     C_R   0.078141 0.562083 0.924922 0.714492
C54   C     C_R   0.921867 0.062117 0.075083 0.714227
O15   O     O_R   0.058800 0.395030 0.085390 -0.534881
O16   O     O_R   0.941200 0.895030 0.914610 -0.537274
O17   O     O_R   0.943980 0.223310 0.057440 -0.531391
O18   O     O_R   0.056020 0.723310 0.942560 -0.532298
C55   C     C_R   0.072928 0.563388 0.111307 0.776531
C56   C     C_R   0.927090 0.063651 0.888712 0.777480
O19   O     O_3   0.962360 0.556290 0.990650 -0.375119
O20   O     O_3   0.037640 0.056290 0.009350 -0.375298
V3    V     V_3+5 0.006980 0.281990 0.001730 1.482298
V4    V     V_3+5 0.993020 0.781990 0.998270 1.480131
O21   O     O_3   0.896357 0.025755 0.632049 -0.626493
H15   H     H_    0.934310 0.951928 0.642438 0.310186
O22   O     O_3   0.103515 0.532130 0.368223 -0.626709
H16   H     H_    0.061077 0.577072 0.360092 0.311874
O23   O     O_3   0.755794 0.776748 0.179038 -0.607625
H17   H     H_    0.787337 0.777843 0.149067 0.311410
O24   O     O_3   0.244233 0.276357 0.820874 -0.607681
H18   H     H_    0.212702 0.277451 0.850862 0.311174
O25   O     O_3   0.826171 0.423699 0.239551 -0.585978
H19   H     H_    0.854701 0.399579 0.206906 0.308213
O26   O     O_3   0.173895 0.924130 0.760645 -0.586549
H20   H     H_    0.145481 0.900150 0.793431 0.308439
O27   O     O_3   0.743890 0.453380 0.323563 -0.597018
H21   H     H_    0.711661 0.449740 0.352612 0.294257
O28   O     O_3   0.256136 0.953847 0.676592 -0.597096
H22   H     H_    0.288351 0.950196 0.647524 0.294289
O29   O     O_3   0.974451 0.052317 0.766926 -0.647661
H23   H     H_    0.986942 0.108559 0.724898 0.307887
O30   O     O_3   0.027766 0.495856 0.232244 -0.646564
H24   H     H_    0.020571 0.415376 0.271701 0.304369

loop_
_geom_bond_atom_site_label_1
_geom_bond_atom_site_label_2
_ccdc_geom_bond_type
C43   C45   A    
O24   H18   S    
O14   V4    S    
C35   C39   A    
C24   C53   S    
C13   C15   A    
H1    C15   S    
O21   H15   S    
O1    C3    A    
C54   O17   A    
O2    C4    A    
C2    O7    A    
O22   H16   S    
H5    C43   S    
C13   C19   S    
C6    C16   A    
H6    C44   S    
O5    C3    A    
C7    C17   S    
C26   C50   A    
C3    C22   S    
C5    C7    A    
C10   C12   A    
C48   H10   S    
C32   O22   S    
H4    C50   S    
C26   C42   A    
C40   C42   A    
C41   C43   A    
C30   C52   A    
C27   C49   A    
C42   C44   A    
O16   V4    S    
C39   C47   A    
O15   V3    S    
C38   C46   A    
C9    O25   S    
O29   H23   S    
C29   C31   A    
C30   C32   A    
O27   H21   S    
C23   C54   S    
C47   H9    S    
C18   C24   T    
C29   O29   S    
O5    V1    S    
C53   O18   A    
C14   C20   S    
O6    V2    S    
C33   H11   S    
C25   C41   A    
C27   C47   A    
O13   C53   A    
C32   C34   A    
O18   V4    S    
C33   C35   A    
C46   H14   S    
C1    C28   S    
C34   C36   A    
C39   C41   A    
C45   H13   S    
C2    C27   S    
O11   V4    S    
O4    C2    A    
O16   C56   A    
C37   C45   A    
O15   C55   A    
C6    O24   S    
C37   C51   A    
C17   C23   T    
C31   C33   A    
C44   C46   A    
O4    V2    S    
C26   H8    S    
O19   V3    S    
O13   V3    S    
O23   H17   S    
O6    C4    A    
O20   V4    S    
C25   C49   A    
O1    V2    S    
C28   C48   A    
C4    C21   S    
O2    V1    S    
C12   O28   S    
C8    C18   S    
H2    C16   S    
C6    C8    A    
O14   C54   A    
C7    C9    A    
C8    C10   A    
C5    C15   A    
O3    V1    S    
C11   O27   S    
H3    C49   S    
O30   H24   S    
C5    O23   S    
C34   H12   S    
C28   C50   A    
O3    C1    A    
C11   C13   A    
O26   H20   S    
C12   C14   A    
C25   H7    S    
C30   O30   S    
C35   C37   A    
O7    V1    S    
C1    O8    A    
O8    V2    S    
O28   H22   S    
O19   V4    S    
C52   C55   S    
C38   C52   A    
C51   C56   S    
O17   V3    S    
C14   C16   A    
O20   V3    S    
C19   C21   T    
C36   C38   A    
C20   C22   T    
C9    C11   A    
O12   C56   A    
O11   C55   A    
C36   C40   A    
C40   C48   A    
C29   C51   A    
O9    V2    S    
O25   H19   S    
O10   V1    S    
C10   O26   S    
O12   V3    S    
C31   O21   S    
