data_mof_unit_4079.cif
_audit_creation_date              2012-12-10T19:03:36-0500
_audit_creation_method            fapswitch 2.2
_symmetry_space_group_name_H-M    P1
_symmetry_Int_Tables_number       1
_space_group_crystal_system       triclinic
_cell_length_a                    15.891218
_cell_length_b                    10.837955
_cell_length_c                    9.546701
_cell_angle_alpha                 90.250258
_cell_angle_beta                  89.986585
_cell_angle_gamma                 90.129018
_cell_volume                      1644.19224321

loop_
_atom_site_label
_atom_site_type_symbol
_atom_type_description
_atom_site_fract_x
_atom_site_fract_y
_atom_site_fract_z
_atom_type_partial_charge
C1    C     C_R   0.503679 0.262579 0.499380 0.862624
C2    C     C_3   0.950650 0.503255 0.656493 -0.246864
C3    C     C_3   0.916883 0.500841 0.501570 0.062571
C4    C     C_3   0.951737 0.617728 0.423828 -0.174022
C5    C     C_3   0.049567 0.619143 0.430378 -0.421936
C6    C     C_1   0.824437 0.500625 0.500347 -0.017570
C7    C     C_1   0.175296 0.500246 0.501006 -0.040227
C8    C     C_1   0.250749 0.499920 0.500210 -0.136260
C9    C     C_R   0.466235 0.065429 0.605719 0.157371
C10   C     C_R   0.505266 0.129002 0.496433 -0.206896
C11   C     C_R   0.536252 0.061624 0.379148 -0.035627
C12   C     C_R   0.340275 0.499815 0.500064 0.840187
C13   C     C_R   0.530141 0.932832 0.379748 -0.243202
C14   C     C_R   0.499066 0.870606 0.497513 -0.106623
C15   C     C_R   0.464363 0.938381 0.607216 0.093021
C16   C     C_3   0.480619 0.932389 0.761144 -0.507434
C17   C     C_3   0.482368 0.072736 0.760394 -0.180083
C18   C     C_R   0.572965 0.519358 0.073674 0.294074
C19   C     C_R   0.430049 0.467961 0.074120 -0.082749
C20   C     C_R   0.430020 0.468104 0.925591 -0.057142
C21   C     C_R   0.572817 0.519264 0.926203 0.265718
C22   C     C_3   0.628294 0.629999 0.918776 -0.487119
C23   C     C_R   0.500269 0.737491 0.500049 0.807157
C24   C     C_3   0.628130 0.631574 0.078343 -0.293893
C25   C     C_R   0.659665 0.500087 0.499937 0.835841
C26   C     C_3   0.048783 0.491631 0.656460 -0.197663
C27   C     C_3   0.049583 0.387879 0.419673 -0.457984
C28   C     C_3   0.951716 0.383075 0.424789 -0.179641
C29   C     C_1   0.749056 0.500355 0.499966 -0.090209
C30   C     C_3   0.083060 0.501033 0.503071 0.182066
Cu1   Cu    Cu3+1 0.500000 0.499980 0.640670 0.980779
Cu2   Cu    Cu3+1 0.500000 0.500020 0.359330 0.974449
H1    H     H_    0.933022 0.594143 0.702049 0.145419
H2    H     H_    0.933169 0.611562 0.311685 0.173897
H3    H     H_    0.556028 0.880815 0.292670 0.174382
H4    H     H_    0.426815 0.890857 0.818891 0.204222
H5    H     H_    0.543020 0.892092 0.785525 0.201220
H6    H     H_    0.545095 0.112347 0.786605 0.166524
H7    H     H_    0.372972 0.443206 0.128740 0.161049
H8    H     H_    0.066548 0.398261 0.694683 0.181070
H9    H     H_    0.372880 0.443654 0.870795 0.191346
H10   H     H_    0.690137 0.608176 0.870078 0.237134
H11   H     H_    0.595797 0.710425 0.872422 0.189695
H12   H     H_    0.595868 0.713369 0.123820 0.145675
H13   H     H_    0.072910 0.392678 0.309728 0.179698
H14   H     H_    0.075340 0.301144 0.464552 0.199335
H15   H     H_    0.933141 0.300328 0.485568 0.232433
H16   H     H_    0.073721 0.702856 0.484774 0.209363
H17   H     H_    0.074824 0.623871 0.321696 0.174979
N1    N     N_R   0.500530 0.500930 0.147930 -0.210143
N2    N     N_R   0.500530 0.500890 0.852020 -0.203284
O1    O     O_R   0.500000 0.319640 0.618810 -0.564560
O2    O     O_R   0.500010 0.319680 0.381230 -0.565017
O3    O     O_R   0.379430 0.499990 0.618840 -0.566885
O4    O     O_R   0.379440 0.500030 0.381260 -0.593353
O5    O     O_R   0.499990 0.680320 0.618770 -0.582171
O6    O     O_R   0.500000 0.680360 0.381190 -0.594031
O7    O     O_R   0.620560 0.499970 0.618740 -0.582784
O8    O     O_R   0.620570 0.500010 0.381160 -0.564421
C31   C     C_2   0.910099 0.407980 0.751795 0.849679
O9    O     O_2   0.861264 0.441828 0.843201 -0.552532
O10   O     O_R   0.929100 0.282635 0.737663 -0.764401
H18   H     H_    0.898050 0.229566 0.808053 0.358373
C32   C     C_2   0.089235 0.582328 0.757725 0.840302
O11   O     O_2   0.078182 0.693359 0.745261 -0.605325
O12   O     O_R   0.139248 0.537661 0.866685 -0.757178
H19   H     H_    0.163023 0.606144 0.927695 0.334565
C33   C     C_2   0.582867 0.119728 0.261631 0.880399
O13   O     O_2   0.572373 0.082261 0.141829 -0.628245
O14   O     O_R   0.641354 0.213590 0.288326 -0.719234
H20   H     H_    0.669044 0.245379 0.199807 0.367871
C34   C     C_2   0.411595 0.129597 0.843392 0.423546
H21   H     H_    0.411639 0.121555 0.956629 0.093935
O15   O     O_2   0.354685 0.185510 0.785876 -0.538261
C35   C     C_2   0.713470 0.608118 0.141472 0.454956
H22   H     H_    0.741290 0.676936 0.210209 0.094062
O16   O     O_2   0.752305 0.513579 0.115503 -0.501467
C36   C     C_2   0.915809 0.365326 0.279064 0.440752
H23   H     H_    0.932527 0.427859 0.195068 0.106588
O17   O     O_2   0.868354 0.279275 0.253977 -0.481108
C37   C     C_2   0.915887 0.738038 0.478460 0.381353
H24   H     H_    0.933319 0.772926 0.581082 0.121975
O18   O     O_2   0.867755 0.798308 0.406447 -0.534108

loop_
_geom_bond_atom_site_label_1
_geom_bond_atom_site_label_2
_ccdc_geom_bond_type
C28   H15   S    
C18   C21   A    
C19   C20   A    
Cu1   O1    S    
C3    C6    S    
C37   H24   S    
C7    C8    T    
C18   C24   S    
Cu1   O7    S    
C3    C28   S    
C13   H3    S    
C20   N2    A    
C2    C31   S    
C16   C17   S    
C15   C16   S    
C31   O10   S    
C1    O2    A    
C26   C32   S    
C4    C37   S    
Cu1   Cu2   S    
C33   O13   D    
O14   H20   S    
Cu1   O5    S    
C28   C36   S    
C9    C10   A    
Cu2   O4    S    
C16   H5    S    
C27   H13   S    
O12   H19   S    
C7    C30   S    
C13   C14   A    
C27   C30   S    
C5    H17   S    
Cu2   O6    S    
C37   O18   D    
C20   H9    S    
C25   C29   S    
C5    H16   S    
C4    H2    S    
C23   O5    A    
C34   O15   D    
C36   H23   S    
C4    C5    S    
C31   O9    D    
C32   O12   S    
C14   C23   S    
C35   H22   S    
O10   H18   S    
C22   H11   S    
C8    C12   S    
C2    C26   S    
C35   O16   D    
Cu2   N1    S    
C19   H7    S    
C27   H14   S    
C9    C17   S    
C26   C30   S    
C24   H12   S    
C22   C24   S    
C25   O7    A    
C3    C4    S    
Cu2   O2    S    
C21   N2    A    
C11   C33   S    
C18   N1    A    
C5    C30   S    
C23   O6    A    
C1    C10   S    
Cu1   N2    S    
C34   H21   S    
C24   C35   S    
C32   O11   D    
C2    C3    S    
C9    C15   A    
C16   H4    S    
C11   C13   A    
C19   N1    A    
C26   H8    S    
C22   H10   S    
C36   O17   D    
C17   H6    S    
Cu1   O3    S    
C1    O1    A    
C12   O4    A    
C10   C11   A    
C6    C29   T    
C17   C34   S    
C33   O14   S    
C27   C28   S    
C14   C15   A    
C25   O8    A    
Cu2   O8    S    
C21   C22   S    
C12   O3    A    
C2    H1    S    
