data_mof_unit_2541.cif
_audit_creation_date              2013-03-05T15:52:00-0500
_audit_creation_method            fapswitch 2.2
_symmetry_space_group_name_H-M    P1
_symmetry_Int_Tables_number       1
_space_group_crystal_system       triclinic
_cell_length_a                    18.919501
_cell_length_b                    11.062405
_cell_length_c                    18.717336
_cell_angle_alpha                 89.754388
_cell_angle_beta                  91.371068
_cell_angle_gamma                 90.346307
_cell_volume                      3916.22153385

loop_
_atom_site_label
_atom_site_type_symbol
_atom_site_description
_atom_site_fract_x
_atom_site_fract_y
_atom_site_fract_z
_atom_type_partial_charge
O1    O     O_R   0.214300 0.709080 0.827500 -0.517169
O2    O     O_R   0.785700 0.709080 0.172500 -0.526931
O3    O     O_R   0.714300 0.209080 0.827500 -0.518667
O4    O     O_R   0.285700 0.209080 0.172500 -0.527503
O5    O     O_R   0.236190 0.958390 0.823150 -0.501811
O6    O     O_R   0.763810 0.958390 0.176850 -0.506364
O7    O     O_R   0.736190 0.458390 0.823150 -0.500924
O8    O     O_R   0.263810 0.458390 0.176850 -0.505881
C1    C     C_R   0.274010 0.038024 0.855009 0.548076
C2    C     C_R   0.726567 0.040459 0.145554 0.535868
C3    C     C_R   0.774009 0.538027 0.855006 0.549065
C4    C     C_R   0.226572 0.540471 0.145559 0.535486
O9    O     O_R   0.332090 0.075280 0.831290 -0.533115
O10   O     O_R   0.667910 0.075280 0.168710 -0.531787
O11   O     O_R   0.832090 0.575280 0.831290 -0.532570
O12   O     O_R   0.167910 0.575280 0.168710 -0.533463
O13   O     O_R   0.446280 0.918040 0.826620 -0.498729
O14   O     O_R   0.553720 0.918040 0.173380 -0.502688
O15   O     O_R   0.946280 0.418040 0.826620 -0.495942
O16   O     O_R   0.053720 0.418040 0.173380 -0.502350
C5    C     C_R   0.470788 0.822094 0.855056 0.550582
C6    C     C_R   0.530579 0.821361 0.144088 0.542739
C7    C     C_R   0.970799 0.322096 0.855048 0.555569
C8    C     C_R   0.030591 0.321360 0.144081 0.544177
O17   O     O_R   0.457080 0.716270 0.831760 -0.521752
O18   O     O_R   0.542920 0.716270 0.168240 -0.526478
O19   O     O_R   0.957080 0.216270 0.831760 -0.520914
O20   O     O_R   0.042920 0.216270 0.168240 -0.526439
O21   O     O_R   0.320980 0.624440 0.823040 -0.496312
O22   O     O_R   0.679020 0.624440 0.176960 -0.495563
O23   O     O_R   0.820980 0.124440 0.823040 -0.495149
O24   O     O_R   0.179020 0.124440 0.176960 -0.496051
C9    C     C_R   0.260581 0.635287 0.851134 0.558582
C10   C     C_R   0.739975 0.634006 0.149781 0.551878
C11   C     C_R   0.760582 0.135289 0.851134 0.557878
C12   C     C_R   0.239980 0.133992 0.149788 0.550558
O25   O     O_R   0.213880 0.710510 0.665560 -0.444440
O26   O     O_R   0.786120 0.710510 0.334440 -0.513187
O27   O     O_R   0.713880 0.210510 0.665560 -0.445782
O28   O     O_R   0.286120 0.210510 0.334440 -0.513530
O29   O     O_R   0.235800 0.959720 0.673040 -0.521880
O30   O     O_R   0.764200 0.959720 0.326960 -0.533008
O31   O     O_R   0.735800 0.459720 0.673040 -0.522622
O32   O     O_R   0.264200 0.459720 0.326960 -0.536827
C13   C     C_R   0.270279 0.051188 0.648111 0.525466
C14   C     C_R   0.729847 0.047581 0.352237 0.538500
C15   C     C_R   0.770336 0.551200 0.647793 0.522739
C16   C     C_R   0.229550 0.546401 0.352562 0.538171
O33   O     O_R   0.331670 0.076720 0.669350 -0.532251
O34   O     O_R   0.668330 0.076720 0.330650 -0.472369
O35   O     O_R   0.831670 0.576720 0.669350 -0.536423
O36   O     O_R   0.168330 0.576720 0.330650 -0.463039
O37   O     O_R   0.445900 0.919370 0.676500 -0.464840
O38   O     O_R   0.554100 0.919370 0.323500 -0.436079
O39   O     O_R   0.945900 0.419370 0.676500 -0.473904
O40   O     O_R   0.054100 0.419370 0.323500 -0.426104
C17   C     C_R   0.470731 0.823333 0.647599 0.571887
C18   C     C_R   0.530460 0.824551 0.353065 0.553083
C19   C     C_R   0.971420 0.323266 0.648141 0.573549
C20   C     C_R   0.032472 0.323734 0.354629 0.557616
O41   O     O_R   0.456660 0.717710 0.669820 -0.533731
O42   O     O_R   0.543340 0.717710 0.330180 -0.540624
O43   O     O_R   0.956660 0.217710 0.669820 -0.537061
O44   O     O_R   0.043340 0.217710 0.330180 -0.534868
O45   O     O_R   0.320590 0.625770 0.672930 -0.521797
O46   O     O_R   0.679410 0.625770 0.327070 -0.522389
O47   O     O_R   0.820590 0.125770 0.672930 -0.521289
O48   O     O_R   0.179410 0.125770 0.327070 -0.526802
C21   C     C_R   0.273278 0.686038 0.636503 0.558389
C22   C     C_R   0.724686 0.693589 0.362919 0.555007
C23   C     C_R   0.772926 0.185656 0.636390 0.554484
C24   C     C_R   0.225359 0.191178 0.363155 0.553133
Cr1   Cr    Cr6+3 0.229640 0.835880 0.747370 1.038615
Cr2   Cr    Cr6+3 0.770360 0.835880 0.252630 1.013258
Cr3   Cr    Cr6+3 0.729640 0.335880 0.747370 1.035963
Cr4   Cr    Cr6+3 0.270360 0.335880 0.252630 1.009831
Cr5   Cr    Cr6+3 0.387390 0.989720 0.750850 1.025654
Cr6   Cr    Cr6+3 0.612610 0.989720 0.249150 1.072835
Cr7   Cr    Cr6+3 0.887390 0.489720 0.750850 1.017916
Cr8   Cr    Cr6+3 0.112610 0.489720 0.249150 1.076451
Cr9   Cr    Cr6+3 0.385770 0.677220 0.749340 0.999750
Cr10  Cr    Cr6+3 0.614230 0.677220 0.250660 1.002842
Cr11  Cr    Cr6+3 0.885770 0.177220 0.749340 1.000890
Cr12  Cr    Cr6+3 0.114230 0.177220 0.250660 1.002528
O49   O     O_3   0.334270 0.834280 0.749190 -0.284242
O50   O     O_3   0.665730 0.834280 0.250810 -0.284093
O51   O     O_3   0.834270 0.334280 0.749190 -0.283344
O52   O     O_3   0.165730 0.334280 0.250810 -0.284210
C25   C     C_3   0.458793 0.911658 0.029742 -0.131993
C26   C     C_3   0.515557 0.941655 0.973938 -0.119931
C27   C     C_3   0.958811 0.411653 0.029729 -0.131997
C28   C     C_3   0.015574 0.441661 0.973927 -0.119670
C29   C     C_3   0.433885 0.802132 0.984680 -0.100681
C30   C     C_3   0.568653 0.858602 0.014263 -0.112253
C31   C     C_3   0.933910 0.302124 0.984667 -0.101428
C32   C     C_3   0.068675 0.358617 0.014253 -0.112174
H1    H     H_    0.377820 0.781664 0.970630 0.125573
H2    H     H_    0.624611 0.879962 0.028468 0.124516
H3    H     H_    0.877847 0.281646 0.970617 0.125632
H4    H     H_    0.124631 0.379985 0.028459 0.124656
H5    H     H_    0.424858 0.976001 0.057860 0.118339
H6    H     H_    0.527327 0.032394 0.951574 0.108241
H7    H     H_    0.924869 0.475993 0.057842 0.118905
H8    H     H_    0.027338 0.532401 0.951561 0.108822
C33   C     C_3   0.491424 0.831246 0.930261 0.057107
C34   C     C_3   0.511147 0.828310 0.068448 0.053470
C35   C     C_3   0.991447 0.331250 0.930248 0.056577
C36   C     C_3   0.011170 0.328313 0.068436 0.053365
C37   C     C_3   0.543926 0.748948 0.969350 -0.129472
C38   C     C_3   0.486801 0.718843 0.024304 -0.112606
C39   C     C_3   0.043955 0.248960 0.969337 -0.129311
C40   C     C_3   0.986831 0.218843 0.024290 -0.112765
H9    H     H_    0.580480 0.688118 0.942043 0.116619
H10   H     H_    0.474123 0.628215 0.046056 0.114960
H11   H     H_    0.080514 0.188139 0.942028 0.116952
H12   H     H_    0.974157 0.128211 0.046039 0.115022
C41   C     C_R   0.241333 0.577576 0.072749 0.018898
C42   C     C_R   0.762068 0.563184 0.929407 0.020577
C43   C     C_R   0.741327 0.077559 0.072744 0.018974
C44   C     C_R   0.262072 0.063169 0.929413 0.020870
C45   C     C_R   0.305275 0.553751 0.039842 0.002666
C46   C     C_R   0.705216 0.516211 0.966618 0.015277
C47   C     C_R   0.805273 0.053753 0.039841 0.002848
C48   C     C_R   0.205224 0.016183 0.966628 0.015463
C49   C     C_R   0.310596 0.562392 0.966054 0.017528
C50   C     C_R   0.700545 0.526918 0.038497 0.021105
C51   C     C_R   0.810596 0.062400 0.966054 0.017691
C52   C     C_R   0.200558 0.026882 0.038508 0.021023
C53   C     C_R   0.187429 0.615555 0.956002 -0.170155
C54   C     C_R   0.813684 0.623272 0.044347 -0.182614
C55   C     C_R   0.687425 0.115540 0.955998 -0.170644
C56   C     C_R   0.313689 0.123256 0.044354 -0.182672
C57   C     C_R   0.183491 0.615518 0.029625 -0.170150
C58   C     C_R   0.817592 0.615893 0.970461 -0.169660
C59   C     C_R   0.683484 0.115491 0.029620 -0.169786
C60   C     C_R   0.317596 0.115878 0.970467 -0.169446
C61   C     C_3   0.350055 0.443741 0.044033 -0.271087
C62   C     C_3   0.637907 0.446298 0.959503 -0.275029
C63   C     C_3   0.850065 0.943757 0.044033 -0.271162
C64   C     C_3   0.137909 0.946287 0.959513 -0.274892
C65   C     C_3   0.356322 0.452961 0.963645 -0.279643
C66   C     C_3   0.631268 0.462777 0.040838 -0.275857
C67   C     C_3   0.856333 0.952982 0.963644 -0.279680
C68   C     C_3   0.131277 0.962755 0.040850 -0.276136
C69   C     C_R   0.251097 0.589112 0.922979 0.018197
C70   C     C_R   0.752476 0.585020 0.079704 0.017987
C71   C     C_R   0.751097 0.089111 0.922978 0.017709
C72   C     C_R   0.252484 0.084996 0.079714 0.017629
H13   H     H_    0.140746 0.640464 0.924836 0.130458
H14   H     H_    0.857790 0.664841 0.073090 0.134894
H15   H     H_    0.640744 0.140450 0.924831 0.129660
H16   H     H_    0.357793 0.164835 0.073095 0.134709
H17   H     H_    0.132525 0.635325 0.051858 0.141993
H18   H     H_    0.865497 0.648917 0.946310 0.143662
H19   H     H_    0.632515 0.135285 0.051851 0.142125
H20   H     H_    0.365498 0.148911 0.946314 0.143582
H21   H     H_    0.819416 0.863836 0.061346 0.172929
H22   H     H_    0.147320 0.851673 0.943607 0.158611
H23   H     H_    0.319398 0.363829 0.061347 0.173153
H24   H     H_    0.647327 0.351683 0.943603 0.158794
H25   H     H_    0.400716 0.459336 0.073834 0.128570
H26   H     H_    0.596504 0.492602 0.926930 0.127209
H27   H     H_    0.900723 0.959367 0.073834 0.128589
H28   H     H_    0.096508 0.992607 0.926946 0.127212
H29   H     H_    0.410775 0.475437 0.946652 0.143146
H30   H     H_    0.587767 0.523692 0.055933 0.151868
H31   H     H_    0.910784 0.975472 0.946653 0.143104
H32   H     H_    0.087782 0.023679 0.055950 0.151879
H33   H     H_    0.330552 0.376809 0.934261 0.141099
H34   H     H_    0.634709 0.376621 0.071427 0.139461
H35   H     H_    0.830571 0.876822 0.934260 0.141083
H36   H     H_    0.134714 0.876597 0.071437 0.138855
C73   C     C_R   0.500473 0.840446 0.423423 -0.034448
C74   C     C_R   0.492207 0.828619 0.573659 -0.023919
C75   C     C_R   0.015394 0.333474 0.430314 -0.036702
C76   C     C_R   0.008005 0.328848 0.580344 -0.013415
C77   C     C_R   0.469501 0.742382 0.457221 -0.050945
C78   C     C_R   0.465261 0.738228 0.529256 -0.028660
C79   C     C_R   0.015233 0.226168 0.468565 -0.031749
C80   C     C_R   0.012433 0.223069 0.540589 -0.016856
C81   C     C_R   0.518819 0.934148 0.541781 0.159658
C82   C     C_R   0.516652 0.945597 0.465886 0.160528
C83   C     C_R   0.026764 0.439121 0.546912 0.146623
C84   C     C_R   0.023300 0.443912 0.469825 0.167146
C85   C     C_3   0.468439 0.607672 0.450143 -0.257692
C86   C     C_3   0.469300 0.603901 0.531486 -0.249928
C87   C     C_3   0.979203 0.106672 0.458617 -0.269722
C88   C     C_3   0.975008 0.103323 0.539506 -0.264267
H37   H     H_    0.013956 0.035435 0.437472 0.147619
H38   H     H_    0.920506 0.110128 0.558524 0.159937
H39   H     H_    0.515337 0.566697 0.426296 0.157953
H40   H     H_    0.422015 0.564329 0.555279 0.152027
H41   H     H_    0.417896 0.574650 0.425961 0.138141
H42   H     H_    0.519839 0.570953 0.555229 0.135177
H43   H     H_    0.927216 0.111852 0.430609 0.135569
H44   H     H_    0.007327 0.030373 0.564618 0.137035
C89   C     C_R   0.250485 0.587992 0.421185 0.016436
C90   C     C_R   0.746687 0.623693 0.586026 0.014899
C91   C     C_R   0.751776 0.093313 0.420103 0.009044
C92   C     C_R   0.247061 0.121574 0.585912 0.011276
C93   C     C_R   0.216835 0.687335 0.447995 0.133669
C94   C     C_R   0.796589 0.696630 0.550754 0.047375
C95   C     C_R   0.714040 0.188642 0.447800 0.126611
C96   C     C_R   0.297675 0.191387 0.549713 0.032988
C97   C     C_R   0.224745 0.718170 0.517209 0.065561
C98   C     C_R   0.786798 0.720152 0.478971 -0.023168
C99   C     C_R   0.719307 0.215860 0.518578 0.085972
C100  C     C_R   0.289362 0.209253 0.477636 -0.028212
C101  C     C_R   0.289213 0.536755 0.541243 -0.147371
C102  C     C_R   0.669238 0.640954 0.481060 -0.149209
C103  C     C_R   0.792300 0.042335 0.539368 -0.139259
C104  C     C_R   0.172149 0.128309 0.479310 -0.156863
C105  C     C_R   0.285755 0.509778 0.468846 -0.182890
C106  C     C_R   0.679226 0.611069 0.553978 -0.152915
C107  C     C_R   0.790286 0.018128 0.466826 -0.179971
C108  C     C_R   0.180309 0.105384 0.553068 -0.157249
C109  C     C_3   0.203995 0.813380 0.423368 -0.118622
C110  C     C_3   0.875300 0.679637 0.541100 -0.102444
C111  C     C_3   0.708378 0.318492 0.426221 -0.126324
C112  C     C_3   0.376705 0.175209 0.542105 -0.094119
C113  C     C_3   0.215135 0.848696 0.502061 -0.257265
C114  C     C_3   0.861624 0.697237 0.461967 -0.223396
C115  C     C_3   0.712833 0.347751 0.505834 -0.250193
C116  C     C_3   0.364676 0.185303 0.462026 -0.219812
C117  C     C_R   0.264175 0.648429 0.564481 0.039096
C118  C     C_R   0.726263 0.684076 0.441262 0.002804
C119  C     C_R   0.762831 0.148998 0.564105 0.042634
C120  C     C_R   0.228770 0.174071 0.440279 0.000346
H45   H     H_    0.313200 0.473276 0.578260 0.141102
H46   H     H_    0.620134 0.619434 0.454473 0.133211
H47   H     H_    0.817951 0.980814 0.576108 0.145926
H48   H     H_    0.125332 0.097804 0.451346 0.146805
H49   H     H_    0.309822 0.428657 0.450088 0.138964
H50   H     H_    0.637866 0.564563 0.582121 0.117634
H51   H     H_    0.817133 0.940119 0.447399 0.139267
H52   H     H_    0.138551 0.059362 0.581087 0.128733
H53   H     H_    0.148187 0.826521 0.405084 0.179762
H54   H     H_    0.894853 0.587265 0.553967 0.165718
H55   H     H_    0.655378 0.338459 0.402120 0.171559
H56   H     H_    0.396701 0.084660 0.558246 0.179897
H57   H     H_    0.263417 0.902555 0.514652 0.118808
H58   H     H_    0.888604 0.775833 0.437108 0.162510
H59   H     H_    0.760270 0.398317 0.524690 0.119089
H60   H     H_    0.391142 0.262956 0.435582 0.172425
H61   H     H_    0.165531 0.878724 0.526518 0.155711
H62   H     H_    0.864639 0.612336 0.431689 0.194915
H63   H     H_    0.661747 0.379557 0.526400 0.149611
H64   H     H_    0.370479 0.097266 0.434520 0.172169
N1    N     N_R   0.560868 0.015436 0.584507 0.115230
O53   O     O_R   0.531634 0.091152 0.627423 -0.355424
O54   O     O_R   0.628712 0.998153 0.589739 -0.315503
N2    N     N_R   0.527995 0.062601 0.433218 0.089625
O55   O     O_R   0.563786 0.146394 0.466695 -0.338548
O56   O     O_R   0.489898 0.094555 0.377557 -0.370394
N3    N     N_R   0.053215 0.537413 0.591342 0.078033
O57   O     O_R   0.071501 0.640737 0.564479 -0.327539
O58   O     O_R   0.074186 0.515175 0.656818 -0.329871
N4    N     N_R   0.020073 0.557466 0.432080 0.092194
O59   O     O_R   0.074169 0.629588 0.432811 -0.304723
O60   O     O_R   0.972455 0.572867 0.381711 -0.392622
C121  C     C_3   0.256216 0.863419 0.368445 -0.293632
C122  C     C_3   0.334141 0.839392 0.383278 -0.429372
H65   H     H_    0.349832 0.868885 0.437846 0.145681
H66   H     H_    0.346070 0.742545 0.375885 0.154676
H67   H     H_    0.365964 0.891626 0.344600 0.166051
H68   H     H_    0.241476 0.827016 0.314853 0.160079
H69   H     H_    0.250131 0.961453 0.366097 0.196600
C123  C     C_3   0.922780 0.782310 0.571109 -0.259811
C124  C     C_3   0.929093 0.783254 0.652368 -0.365727
H70   H     H_    0.876684 0.799799 0.675794 0.167719
H71   H     H_    0.951012 0.696287 0.672404 0.211672
H72   H     H_    0.965497 0.857246 0.669598 0.119806
H73   H     H_    0.975951 0.773989 0.548775 0.217131
H74   H     H_    0.904299 0.871062 0.551941 0.116323
C125  C     C_3   0.769008 0.365052 0.379376 -0.285287
C126  C     C_3   0.843596 0.351980 0.411294 -0.428865
H75   H     H_    0.853380 0.414982 0.456208 0.131995
H76   H     H_    0.852544 0.259663 0.431242 0.144781
H77   H     H_    0.882158 0.372322 0.369163 0.176464
H78   H     H_    0.766045 0.316432 0.327542 0.152584
H79   H     H_    0.760528 0.461435 0.367480 0.195143
C127  C     C_3   0.421854 0.281905 0.570937 -0.246909
C128  C     C_3   0.415554 0.302582 0.651142 -0.372752
H80   H     H_    0.359795 0.319879 0.664960 0.161187
H81   H     H_    0.435521 0.223579 0.681947 0.212768
H82   H     H_    0.447701 0.382866 0.666948 0.120480
H83   H     H_    0.478070 0.266335 0.558508 0.225155
H84   H     H_    0.406658 0.365843 0.542613 0.112575

loop_
_geom_bond_atom_site_label_1
_geom_bond_atom_site_label_2
_geom_bond_distance
_ccdc_geom_bond_type
O4    C12   1.263205 A    
C122  H66   1.106165 S    
O39   C19   1.291679 A    
C54   C70   1.409396 A    
C55   H15   1.083129 S    
C41   C57   1.409130 A    
Cr7   O51   1.986427 S    
C114  H58   1.111549 S    
C13   C92   1.458240 S    
C127  C128  1.527084 S    
C83   N3    1.451076 S    
O25   C21   1.290796 A    
C104  H48   1.071507 S    
C31   H3    1.108961 S    
O21   C9    1.275800 A    
C111  H55   1.112636 S    
C1    O9    1.261233 A    
O44   Cr12  2.079257 S    
C3    O11   1.261219 A    
C12   C72   1.446567 S    
C96   C100  1.368138 A    
C115  H59   1.106084 S    
C25   C34   1.525486 S    
C98   C118  1.388276 A    
C110  C123  1.543209 S    
C15   C90   1.466819 S    
C53   C69   1.400020 A    
C29   C38   1.539827 S    
C66   H34   1.111179 S    
O2    C10   1.263200 A    
C32   C36   1.539511 S    
O17   Cr9   2.070205 S    
C54   C58   1.389471 A    
C105  H49   1.072934 S    
O31   Cr3   1.953329 S    
O16   Cr8   1.950596 S    
C22   C118  1.469299 S    
C101  C105  1.388733 A    
O28   Cr4   2.078965 S    
O12   Cr8   2.075716 S    
O22   Cr10  1.960327 S    
O15   C7    1.270488 A    
C83   C84   1.443533 A    
O46   Cr10  1.951207 S    
O14   Cr6   1.950596 S    
C7    C35   1.455502 S    
C111  C125  1.544997 S    
C62   H26   1.107705 S    
C51   C67   1.493637 S    
C52   C68   1.488118 S    
C53   C57   1.381826 A    
C73   C82   1.438908 A    
C124  H71   1.110153 S    
C56   H16   1.083147 S    
C110  H54   1.112303 S    
C90   C106  1.403655 A    
C25   H5    1.104874 S    
Cr12  O52   1.986853 S    
C26   C33   1.533808 S    
C27   H7    1.104883 S    
C75   C79   1.383649 A    
C17   O41   1.267472 A    
C43   C47   1.397576 A    
C30   C37   1.542754 S    
C19   O43   1.266330 A    
C20   O44   1.280378 A    
C125  H78   1.111394 S    
C121  H68   1.111247 S    
Cr8   O52   1.996687 S    
C6    C34   1.456019 S    
C61   H25   1.110317 S    
C10   C70   1.446555 S    
O46   C22   1.309919 A    
C28   H8    1.109305 S    
C4    C41   1.454564 S    
C78   C86   1.488760 S    
C62   H24   1.106031 S    
C16   O36   1.266113 A    
C63   H21   1.106009 S    
C123  H74   1.100016 S    
O27   C23   1.286791 A    
C112  H56   1.110993 S    
O31   C15   1.295015 A    
O32   C16   1.267059 A    
N2    O55   1.299028 A    
O47   Cr11  1.950435 S    
C39   C40   1.543667 S    
C113  H57   1.108737 S    
C45   C49   1.390014 A    
N1    O53   1.298212 A    
C91   C107  1.399293 A    
O24   C12   1.275196 A    
C121  C122  1.518480 S    
C47   C63   1.487757 S    
O8    Cr4   1.959864 S    
C88   H38   1.101984 S    
C42   C46   1.392143 A    
C45   C61   1.487759 S    
O32   Cr4   1.962661 S    
C82   N2    1.446163 S    
C26   H6    1.109305 S    
C2    C43   1.454543 S    
C64   H22   1.106022 S    
C63   C67   1.515105 S    
O11   Cr7   2.087337 S    
C49   C65   1.493633 S    
C54   H14   1.083147 S    
C55   C71   1.400021 A    
O27   Cr3   2.085309 S    
O3    Cr3   2.073442 S    
C38   H10   1.107563 S    
C42   C58   1.411316 A    
C92   C96   1.410709 A    
N3    O58   1.302006 A    
Cr5   O49   1.986427 S    
C127  H83   1.108787 S    
C128  H82   1.110563 S    
C102  C118  1.405572 A    
C32   C39   1.542765 S    
C109  C121  1.541586 S    
O22   C10   1.275191 A    
C4    O12   1.263898 A    
C19   C76   1.460850 S    
C2    O10   1.263896 A    
C27   C28   1.549472 S    
C101  H45   1.078775 S    
C115  H63   1.108694 S    
C84   N4    1.439478 S    
C79   C80   1.350682 A    
C53   H13   1.083130 S    
C66   H30   1.109395 S    
C47   C51   1.389998 A    
O3    C11   1.271133 A    
C56   C60   1.389488 A    
Cr1   O49   1.979212 S    
C97   C117  1.379900 A    
C67   H31   1.111859 S    
Cr3   O51   1.979212 S    
C24   C120  1.455058 S    
C109  H53   1.112297 S    
C40   H12   1.107565 S    
O26   Cr2   2.078965 S    
C5    O17   1.274027 A    
O29   C13   1.292150 A    
O28   C24   1.296809 A    
O14   C6    1.274358 A    
C35   C39   1.523575 S    
C86   H42   1.107745 S    
C8    O20   1.266549 A    
C122  H65   1.106771 S    
C64   H28   1.107703 S    
C65   H29   1.111859 S    
O40   Cr8   1.954923 S    
C94   C110  1.517295 S    
C63   H27   1.110317 S    
N4    O59   1.293751 A    
O41   Cr9   2.073005 S    
C100  C120  1.383157 A    
C14   C91   1.421053 S    
C98   C114  1.481990 S    
C32   H4    1.109689 S    
C92   C108  1.402142 A    
O33   Cr5   2.070594 S    
O5    Cr1   1.967223 S    
C125  H79   1.100216 S    
O35   Cr7   2.070594 S    
O29   Cr1   1.953329 S    
C76   C80   1.393439 A    
C126  H75   1.105790 S    
C128  H80   1.110092 S    
C1    C44   1.444647 S    
C93   C97   1.345730 A    
C3    C42   1.444615 S    
Cr9   O49   1.997105 S    
C18   O42   1.285539 A    
Cr11  O51   1.997105 S    
O26   C22   1.302421 A    
C29   H1    1.108962 S    
O20   Cr12  2.070848 S    
C125  C126  1.526628 S    
C122  H67   1.110647 S    
C81   C82   1.425273 A    
C99   C115  1.482719 S    
O5    C1    1.272833 A    
C103  H47   1.074985 S    
C96   C112  1.517117 S    
C31   C40   1.539819 S    
C34   C38   1.531323 S    
C79   C87   1.493969 S    
C30   H2    1.109691 S    
C77   C85   1.496620 S    
O30   C14   1.271707 A    
C33   C37   1.523574 S    
C80   C88   1.498245 S    
C116  H64   1.110807 S    
C85   H39   1.103426 S    
C8    C36   1.456050 S    
O8    C4    1.283467 A    
C74   C78   1.389673 A    
C48   C52   1.356140 A    
O42   Cr10  2.079257 S    
O18   Cr10  2.070848 S    
C124  H70   1.110242 S    
C91   C95   1.386398 A    
C106  H50   1.080291 S    
C101  C117  1.400461 A    
O34   Cr6   2.070749 S    
C26   C30   1.546557 S    
O24   Cr12  1.960327 S    
O30   Cr2   1.962661 S    
C61   H23   1.106014 S    
O48   Cr12  1.951207 S    
C46   C62   1.489441 S    
C109  C113  1.534813 S    
C62   C66   1.542215 S    
O37   C17   1.290401 A    
C52   C72   1.390552 A    
C15   O35   1.250456 A    
Cr10  O50   1.986853 S    
C50   C66   1.488128 S    
C43   C59   1.409121 A    
O40   C20   1.275571 A    
O43   Cr11  2.073005 S    
C44   C60   1.411316 A    
O37   Cr5   1.964974 S    
O21   Cr9   1.952375 S    
O39   Cr7   1.964974 S    
O45   Cr9   1.950435 S    
C126  H77   1.108516 S    
C13   O33   1.249705 A    
O13   Cr5   1.951128 S    
C102  H46   1.069408 S    
O23   Cr11  1.952375 S    
O15   Cr7   1.951128 S    
C31   C35   1.540230 S    
C99   C119  1.385533 A    
C108  H52   1.082161 S    
O23   C11   1.275794 A    
C18   C73   1.458082 S    
C100  C116  1.486968 S    
C89   C105  1.400566 A    
N2    O56   1.301494 A    
C61   C65   1.515101 S    
C27   C36   1.525496 S    
C48   C64   1.489442 S    
C64   C68   1.542220 S    
C21   C117  1.418765 S    
O6    C2    1.283460 A    
C68   H36   1.111179 S    
O1    Cr1   2.073442 S    
O19   Cr11  2.070205 S    
C67   H35   1.111787 S    
C87   C88   1.518285 S    
C37   C38   1.543666 S    
C114  H62   1.101503 S    
C85   C86   1.522619 S    
C58   H18   1.083243 S    
O45   C21   1.297965 A    
O47   C23   1.301416 A    
O13   C5    1.270489 A    
C111  C115  1.526491 S    
C17   C74   1.452523 S    
C104  C120  1.401882 A    
C36   C40   1.531326 S    
C123  C124  1.522866 S    
C77   C78   1.353162 A    
C6    O18   1.266548 A    
C124  H72   1.110488 S    
C20   C75   1.465091 S    
C49   C69   1.401112 A    
C25   C26   1.549473 S    
O36   Cr8   2.070749 S    
C5    C33   1.455519 S    
C75   C84   1.436008 A    
O38   Cr6   1.954923 S    
C76   C83   1.415803 A    
C103  C107  1.384649 A    
C127  H84   1.103474 S    
C128  H81   1.108251 S    
C28   C32   1.546570 S    
C50   C70   1.390557 A    
O1    C9    1.271136 A    
O7    C3    1.272830 A    
C68   H32   1.109393 S    
C57   H17   1.083289 S    
C121  H69   1.091868 S    
C55   C59   1.381813 A    
C60   H20   1.083242 S    
C59   H19   1.083290 S    
C41   C45   1.397577 A    
C29   C33   1.540235 S    
C104  C108  1.407613 A    
C123  H73   1.103078 S    
C89   C93   1.375990 A    
O6    Cr2   1.959864 S    
C7    O19   1.274037 A    
Cr4   O52   1.979001 S    
O2    Cr2   2.084485 S    
O48   C24   1.305359 A    
Cr6   O50   1.996687 S    
C103  C119  1.393729 A    
C25   C29   1.544121 S    
C74   C81   1.404874 A    
C65   H33   1.111789 S    
C110  C114  1.509471 S    
O9    Cr5   2.087337 S    
N1    O54   1.300196 A    
C87   H37   1.109678 S    
C56   C72   1.409400 A    
O16   C8    1.274350 A    
C107  H51   1.073204 S    
C116  H60   1.112057 S    
O7    Cr3   1.967223 S    
C102  C106  1.411496 A    
C95   C99   1.361016 A    
C46   C50   1.356124 A    
N4    O60   1.299740 A    
C90   C94   1.412196 A    
C28   C35   1.533805 S    
C73   C77   1.387305 A    
C11   C71   1.451198 S    
Cr2   O50   1.979001 S    
C9    C69   1.451217 S    
C126  H76   1.098546 S    
N3    O57   1.295225 A    
C112  C116  1.514393 S    
O38   C18   1.267949 A    
O25   Cr1   2.085309 S    
C30   C34   1.539501 S    
C87   H43   1.105111 S    
C23   C119  1.422292 S    
C85   H41   1.108687 S    
C112  C127  1.544418 S    
C37   H9    1.103574 S    
C14   O34   1.265977 A    
C95   C111  1.494267 S    
C16   C89   1.413119 S    
C93   C109  1.486258 S    
C81   N1    1.431131 S    
C113  H61   1.107359 S    
C97   C113  1.481747 S    
O10   Cr6   2.075716 S    
C86   H40   1.096797 S    
O4    Cr4   2.084485 S    
C88   H44   1.111314 S    
C27   C31   1.544109 S    
C94   C98   1.375853 A    
C39   H11   1.103580 S    
C44   C48   1.392158 A    
C51   C71   1.401109 A    
