data_mof_unit_3787.cif
_audit_creation_date              2012-10-26T19:54:45-0400
_audit_creation_method            fapswitch 2.2
_symmetry_space_group_name_H-M    P1
_symmetry_Int_Tables_number       1
_space_group_crystal_system       triclinic
_cell_length_a                    17.874803
_cell_length_b                    16.562845
_cell_length_c                    10.786324
_cell_angle_alpha                 84.964538
_cell_angle_beta                  94.355592
_cell_angle_gamma                 89.977296
_cell_volume                      3171.78117134

loop_
_atom_site_label
_atom_site_type_symbol
_atom_type_description
_atom_site_fract_x
_atom_site_fract_y
_atom_site_fract_z
_atom_type_partial_charge
C1    C     C_R   0.355904 0.499407 0.510034 0.538153
C2    C     C_R   0.552432 0.165946 0.580338 -0.032858
C3    C     C_R   0.550892 0.739370 0.577329 0.150050
C4    C     C_R   0.449106 0.260067 0.423473 0.149324
C5    C     C_R   0.449249 0.748266 0.422694 0.133602
C6    C     C_R   0.551062 0.252204 0.577177 0.131052
C7    C     C_R   0.499902 0.873521 0.500738 0.039806
C8    C     C_R   0.500884 0.126172 0.501115 0.043184
C9    C     C_1   0.500178 0.962918 0.500841 -0.014969
C10   C     C_1   0.500592 0.036812 0.501089 -0.012730
C11   C     C_R   0.495389 0.504562 0.259721 0.546745
C12   C     C_R   0.644098 0.500592 0.489990 0.538421
C13   C     C_R   0.504605 0.495436 0.740288 0.546678
C14   C     C_R   0.586887 0.623989 0.101556 -0.008868
C15   C     C_R   0.413079 0.375987 0.898454 -0.008511
C16   C     C_R   0.642235 0.535317 0.917388 -0.004716
C17   C     C_R   0.357763 0.464500 0.082858 -0.004727
C18   C     C_R   0.659871 0.638686 0.064303 -0.016942
C19   C     C_R   0.340116 0.361233 0.935765 -0.016743
C20   C     C_R   0.689583 0.590133 0.979357 0.011571
C21   C     C_R   0.310420 0.409701 0.020842 0.011669
C22   C     C_R   0.566328 0.526944 0.947429 -0.002794
C23   C     C_R   0.885400 0.500969 0.481579 -0.013547
C24   C     C_R   0.433634 0.473005 0.052641 -0.002756
C25   C     C_R   0.546337 0.556759 0.058446 -0.004226
C26   C     C_R   0.453606 0.443232 0.941565 -0.004211
C27   C     C_R   0.512635 0.482084 0.879015 -0.022132
C28   C     C_R   0.487321 0.517904 0.121010 -0.022103
C29   C     C_R   0.846185 0.574888 0.474070 -0.025243
C30   C     C_R   0.153807 0.425131 0.525835 -0.025205
C31   C     C_R   0.153955 0.571936 0.527096 -0.028796
C32   C     C_R   0.846040 0.428085 0.472789 -0.028706
C33   C     C_R   0.767266 0.575664 0.467757 -0.039350
C34   C     C_R   0.114594 0.499053 0.518300 -0.013563
C35   C     C_R   0.232726 0.424350 0.532197 -0.039424
C36   C     C_R   0.232913 0.571746 0.533769 -0.042490
C37   C     C_R   0.767084 0.428270 0.466153 -0.042164
C38   C     C_R   0.726864 0.501503 0.475070 -0.045794
C39   C     C_R   0.273133 0.498505 0.524903 -0.046021
C40   C     C_1   0.232702 0.399390 0.049091 0.224567
C41   C     C_1   0.767325 0.600360 0.951203 0.224501
C42   C     C_1   0.296078 0.295410 0.888455 0.204747
C43   C     C_1   0.703923 0.704510 0.111578 0.204501
C44   C     C_3   0.547716 0.690231 0.160407 -0.348523
C45   C     C_1   0.966319 0.500247 0.494368 0.020691
C46   C     C_3   0.452269 0.309772 0.839557 -0.349219
C47   C     C_3   0.674807 0.476758 0.836094 -0.346498
C48   C     C_3   0.325204 0.522907 0.164422 -0.346650
C49   C     C_1   0.886837 0.650846 0.470833 0.240364
C50   C     C_1   0.113151 0.349176 0.529057 0.240364
C51   C     C_1   0.113448 0.647511 0.531377 0.228619
C52   C     C_1   0.886548 0.352515 0.468471 0.228315
C53   C     C_1   0.729405 0.653609 0.444194 0.259142
C54   C     C_1   0.270581 0.346406 0.555823 0.259090
C55   C     C_1   0.271204 0.646328 0.560063 0.257992
C56   C     C_1   0.033675 0.499779 0.505494 0.020659
C57   C     C_1   0.728795 0.353693 0.439825 0.257167
C58   C     C_3   0.606177 0.867106 0.668291 -0.393788
C59   C     C_3   0.393654 0.131468 0.335125 -0.392321
C60   C     C_3   0.393518 0.886816 0.333562 -0.393356
C61   C     C_3   0.609822 0.118125 0.668641 -0.388846
C62   C     C_1   0.608351 0.692740 0.651389 0.286937
C63   C     C_1   0.391653 0.306366 0.348843 0.286219
C64   C     C_1   0.393774 0.710082 0.344831 0.258409
C65   C     C_1   0.606556 0.290320 0.655342 0.257863
C66   C     C_R   0.551227 0.825330 0.580832 -0.031898
C67   C     C_R   0.448974 0.173929 0.421198 -0.032714
C68   C     C_R   0.448581 0.834689 0.420294 -0.031001
Cu1   Cu    Cu3+1 0.500000 0.580420 0.500000 0.980230
Cu2   Cu    Cu3+1 0.500000 0.419580 0.500000 0.980181
H1    H     H_    0.486208 0.680966 0.156750 0.151125
H2    H     H_    0.352161 0.514942 0.260001 0.169519
H3    H     H_    0.334358 0.584990 0.121538 0.159397
H4    H     H_    0.264078 0.516488 0.172610 0.152073
H5    H     H_    0.574670 0.903409 0.729046 0.135071
H6    H     H_    0.643138 0.825096 0.730882 0.151144
H7    H     H_    0.642703 0.908027 0.612750 0.155151
H8    H     H_    0.424838 0.095052 0.274078 0.135164
H9    H     H_    0.357789 0.090394 0.391707 0.154639
H10   H     H_    0.356056 0.173074 0.272991 0.151196
H11   H     H_    0.424902 0.929739 0.272131 0.132952
H12   H     H_    0.571190 0.694130 0.257900 0.179883
H13   H     H_    0.355768 0.852093 0.272061 0.152624
H14   H     H_    0.357739 0.921965 0.389584 0.155008
H15   H     H_    0.605857 0.051747 0.664828 0.136736
H16   H     H_    0.667283 0.136174 0.645426 0.166613
H17   H     H_    0.602094 0.131024 0.766187 0.135095
H18   H     H_    0.555859 0.749563 0.106862 0.126120
H19   H     H_    0.428795 0.305885 0.742061 0.180052
H20   H     H_    0.513776 0.319047 0.843212 0.150552
H21   H     H_    0.444145 0.250424 0.893071 0.125520
H22   H     H_    0.665636 0.414747 0.879247 0.159401
H23   H     H_    0.647870 0.484559 0.740479 0.169580
H24   H     H_    0.735935 0.483144 0.827926 0.152246
N1    N     N_R   0.500000 0.701220 0.500000 -0.269318
N2    N     N_1   0.918055 0.291880 0.464583 -0.221277
N3    N     N_1   0.700228 0.716289 0.424275 -0.278316
N4    N     N_1   0.299746 0.283724 0.575809 -0.278548
N5    N     N_1   0.301012 0.705944 0.582436 -0.268285
N6    N     N_1   0.698994 0.294079 0.417418 -0.272132
N7    N     N_1   0.656456 0.657205 0.709554 -0.313642
N8    N     N_1   0.343611 0.341711 0.290206 -0.313270
N9    N     N_1   0.347475 0.681636 0.282328 -0.344081
N10   N     N_1   0.652914 0.318436 0.718110 -0.342870
N11   N     N_R   0.500000 0.298780 0.500000 -0.268448
N12   N     N_1   0.170747 0.391074 0.071621 -0.252328
N13   N     N_1   0.829299 0.608608 0.928749 -0.252334
N14   N     N_1   0.260849 0.242791 0.851393 -0.242052
N15   N     N_1   0.739165 0.757127 0.148614 -0.241978
N16   N     N_1   0.918433 0.711838 0.467788 -0.211898
N17   N     N_1   0.081552 0.288185 0.532091 -0.212039
N18   N     N_1   0.081940 0.708148 0.535234 -0.220725
O1    O     O_R   0.391260 0.567930 0.500000 -0.483476
O2    O     O_R   0.608740 0.432070 0.500000 -0.483679
O3    O     O_R   0.608740 0.567930 0.500000 -0.497108
O4    O     O_R   0.391260 0.432070 0.500000 -0.497040
O5    O     O_R   0.500000 0.567910 0.319660 -0.520493
O6    O     O_R   0.500000 0.432090 0.680340 -0.520544
O7    O     O_R   0.500000 0.567910 0.680340 -0.483910
O8    O     O_R   0.500000 0.432090 0.319660 -0.483478

loop_
_geom_bond_atom_site_label_1
_geom_bond_atom_site_label_2
_ccdc_geom_bond_type
C64   N9    T    
C34   C56   S    
C51   N18   T    
C23   C45   S    
C47   H22   S    
C14   C18   A    
C17   C48   S    
C20   C41   S    
C58   H6    S    
C46   H19   S    
C29   C49   S    
Cu2   O2    S    
C25   C28   A    
C15   C19   A    
C4    C63   S    
Cu1   O1    S    
C26   C27   A    
C30   C35   A    
C23   C29   A    
C40   N12   T    
C19   C21   A    
C24   C26   A    
C44   H12   S    
C5    C68   A    
C60   H13   S    
C29   C33   A    
C59   H8    S    
C44   H1    S    
C32   C52   S    
C61   H17   S    
C58   H7    S    
C59   C67   S    
C7    C68   A    
C58   C66   S    
C6    C65   S    
C45   C56   T    
Cu2   O8    S    
C22   C25   A    
C1    O4    A    
C9    C10   T    
C19   C42   S    
C62   N7    T    
C30   C50   S    
C35   C54   S    
C2    C6    A    
C1    O1    A    
C48   H2    S    
C63   N8    T    
C11   O8    A    
C16   C47   S    
C13   O7    A    
C58   H5    S    
C13   O6    A    
C12   O2    A    
C33   C53   S    
C17   C24   A    
C30   C34   A    
C54   N4    T    
C48   H4    S    
C59   H9    S    
C15   C26   A    
C46   H21   S    
Cu2   O4    S    
C57   N6    T    
Cu1   O7    S    
C17   C21   A    
C5    C64   S    
C35   C39   A    
C37   C38   A    
C60   H11   S    
C16   C20   A    
C47   H23   S    
C31   C34   A    
C32   C37   A    
C61   H15   S    
C22   C27   A    
C3    C66   A    
C11   O5    A    
C14   C44   S    
C3    C62   S    
C7    C9    S    
Cu1   O3    S    
C16   C22   A    
C41   N13   T    
C48   H3    S    
C36   C39   A    
C2    C8    A    
C24   C28   A    
C31   C51   S    
Cu1   N1    S    
Cu2   N11   S    
C59   H10   S    
C4    C67   A    
C2    C61   S    
C46   H20   S    
C4    N11   A    
C33   C38   A    
C15   C46   S    
C53   N3    T    
C23   C32   A    
C12   O3    A    
C36   C55   S    
C18   C43   S    
C7    C66   A    
C60   H14   S    
C5    N1    A    
C21   C40   S    
C11   C28   S    
Cu2   O6    S    
Cu1   O5    S    
C50   N17   T    
C6    N11   A    
C52   N2    T    
C18   C20   A    
C14   C25   A    
C12   C38   S    
Cu1   Cu2   S    
C37   C57   S    
C61   H16   S    
C1    C39   S    
C60   C68   S    
C8    C67   A    
C8    C10   S    
C55   N5    T    
C31   C36   A    
C13   C27   S    
C3    N1    A    
C43   N15   T    
C65   N10   T    
C44   H18   S    
C42   N14   T    
C47   H24   S    
C49   N16   T    
