data_mof_unit_2719.cif
_audit_creation_date              2012-12-10T20:36:40-0500
_audit_creation_method            fapswitch 2.2
_symmetry_space_group_name_H-M    P1
_symmetry_Int_Tables_number       1
_space_group_crystal_system       triclinic
_cell_length_a                    10.503067
_cell_length_b                    10.675849
_cell_length_c                    9.878225
_cell_angle_alpha                 89.819487
_cell_angle_beta                  90.570483
_cell_angle_gamma                 89.982809
_cell_volume                      1107.57658343

loop_
_atom_site_label
_atom_site_type_symbol
_atom_type_description
_atom_site_fract_x
_atom_site_fract_y
_atom_site_fract_z
_atom_type_partial_charge
C1    C     C_R   0.504202 0.259941 0.500201 0.870356
C2    C     C_R   0.528390 0.935470 0.622726 0.126566
C3    C     C_3   0.440797 0.927470 0.740757 -0.431148
C4    C     C_R   0.257378 0.500526 0.499332 0.920644
C5    C     C_3   0.440473 0.069379 0.741017 -0.500168
C6    C     C_R   0.389301 0.483544 0.070058 0.222947
C7    C     C_R   0.607386 0.527252 0.072857 -0.140758
C8    C     C_R   0.607417 0.527138 0.929097 -0.141851
C9    C     C_R   0.389161 0.484265 0.927643 0.262001
C10   C     C_3   0.302866 0.373756 0.920714 -0.514697
C11   C     C_3   0.304174 0.371899 0.074450 -0.509973
C12   C     C_3   0.956932 0.399780 0.432765 -0.146952
C13   C     C_R   0.504369 0.739986 0.499856 0.903113
C14   C     C_R   0.742615 0.499934 0.500754 0.883276
C15   C     C_3   0.042001 0.600399 0.567061 0.429084
C16   C     C_3   0.961079 0.496015 0.630135 -0.183548
C17   C     C_3   0.877503 0.500335 0.502280 -0.033885
C18   C     C_3   0.956043 0.606148 0.440407 -0.215684
C19   C     C_3   0.038323 0.505531 0.370877 -0.193558
C20   C     C_3   0.043384 0.395570 0.560237 -0.238077
C21   C     C_3   0.122396 0.501103 0.498299 -0.051225
C22   C     C_R   0.528223 0.063272 0.623003 0.141177
C23   C     C_R   0.525514 0.128536 0.500795 -0.098393
C24   C     C_R   0.548230 0.065127 0.379142 -0.222076
C25   C     C_R   0.548398 0.935567 0.378915 -0.217608
C26   C     C_R   0.525837 0.871253 0.500329 -0.097699
Cl1   Cl    Cl    0.102549 0.733181 0.655373 -0.675165
H1    H     H_    0.926058 0.492910 0.735779 0.155004
H2    H     H_    0.352210 0.288049 0.118391 0.216533
H3    H     H_    0.915993 0.692059 0.392740 0.155600
H4    H     H_    0.072815 0.510306 0.265252 0.154696
H5    H     H_    0.917185 0.317688 0.378083 0.145688
H6    H     H_    0.083652 0.310040 0.608521 0.153116
H7    H     H_    0.556543 0.114421 0.283604 0.171817
H8    H     H_    0.556791 0.886979 0.283299 0.173659
H9    H     H_    0.346746 0.886185 0.713941 0.253449
H10   H     H_    0.488187 0.886038 0.831540 0.204549
H11   H     H_    0.346148 0.110434 0.714213 0.207909
H12   H     H_    0.487810 0.109752 0.832075 0.204863
H13   H     H_    0.694678 0.547560 0.127352 0.159249
H14   H     H_    0.694693 0.547227 0.876160 0.157227
H15   H     H_    0.208302 0.398160 0.876411 0.213372
H16   H     H_    0.349217 0.290832 0.875248 0.209119
H17   H     H_    0.209957 0.393837 0.118419 0.200649
N1    N     N_R   0.499140 0.499140 0.142800 -0.111541
N2    N     N_R   0.499140 0.499180 0.857150 -0.112910
O1    O     O_R   0.500020 0.316790 0.614690 -0.620341
O2    O     O_R   0.500000 0.316760 0.385350 -0.625238
O3    O     O_R   0.313960 0.499990 0.614650 -0.599922
O4    O     O_R   0.313940 0.499950 0.385310 -0.625153
O5    O     O_R   0.500000 0.683240 0.614650 -0.605900
O6    O     O_R   0.499980 0.683210 0.385310 -0.623412
O7    O     O_R   0.686060 0.500050 0.614690 -0.632957
O8    O     O_R   0.686040 0.500010 0.385350 -0.632411
Zn1   Zn    Zn3+2 0.500010 0.500020 0.653130 0.961623
Zn2   Zn    Zn3+2 0.499990 0.499980 0.346870 0.944961

loop_
_geom_bond_atom_site_label_1
_geom_bond_atom_site_label_2
_ccdc_geom_bond_type
N2    Zn1   S    
C12   C17   S    
C15   C18   S    
C7    H13   S    
C1    O2    A    
C2    C22   A    
C18   H3    S    
C6    N1    A    
C10   H15   S    
C13   O6    A    
C9    C10   S    
C15   Cl1   S    
C16   H1    S    
C16   C20   S    
C4    O3    A    
C23   C24   A    
C19   H4    S    
C12   C20   S    
C6    C9    A    
O7    Zn1   S    
C2    C3    S    
C10   H16   S    
C24   C25   A    
C9    N2    A    
C2    C26   A    
O3    Zn1   S    
C5    H11   S    
C12   H5    S    
C4    C21   S    
C14   C17   S    
C3    H10   S    
C3    H9    S    
C25   H8    S    
C20   H6    S    
C7    N1    A    
C12   C19   S    
O1    Zn1   S    
C14   O8    A    
C17   C18   S    
C1    C23   S    
O5    Zn1   S    
C5    H12   S    
O8    Zn2   S    
C13   C26   S    
C7    C8    A    
C10   C11   S    
C15   C16   S    
C11   H17   S    
C15   C21   S    
C14   O7    A    
C8    H14   S    
C11   H2    S    
C20   C21   S    
C18   C19   S    
C6    C11   S    
O2    Zn2   S    
C22   C23   A    
C1    O1    A    
C8    N2    A    
C19   C21   S    
C25   C26   A    
C13   O5    A    
O4    Zn2   S    
C5    C22   S    
O6    Zn2   S    
N1    Zn2   S    
C4    O4    A    
C16   C17   S    
C3    C5    S    
C24   H7    S    
