data_mof_unit_4393.cif
_audit_creation_date              2012-12-10T17:01:22-0500
_audit_creation_method            fapswitch 2.2
_symmetry_space_group_name_H-M    P1
_symmetry_Int_Tables_number       1
_space_group_crystal_system       triclinic
_cell_length_a                    19.979234
_cell_length_b                    22.591177
_cell_length_c                    15.183388
_cell_angle_alpha                 90.043552
_cell_angle_beta                  90.458264
_cell_angle_gamma                 90.079405
_cell_volume                      6852.86133817

loop_
_atom_site_label
_atom_site_type_symbol
_atom_type_description
_atom_site_fract_x
_atom_site_fract_y
_atom_site_fract_z
_atom_type_partial_charge
C1    C     C_R   0.374564 0.884479 0.482326 0.849306
C2    C     C_R   0.371335 0.112925 0.487376 0.787513
C3    C     C_R   0.874564 0.384479 0.482326 0.849294
C4    C     C_R   0.871333 0.612924 0.487377 0.787528
C5    C     C_R   0.710893 0.737426 0.497707 -0.091577
C6    C     C_R   0.740962 0.238187 0.447737 -0.049160
C7    C     C_R   0.210898 0.237426 0.497720 -0.091651
C8    C     C_R   0.240963 0.738187 0.447737 -0.049159
C9    C     C_R   0.276187 0.253268 0.526883 -0.055704
C10   C     C_R   0.279448 0.744220 0.526091 -0.046953
C11   C     C_R   0.776175 0.753259 0.526909 -0.055733
C12   C     C_R   0.779450 0.244219 0.526090 -0.046955
C13   C     C_R   0.327463 0.211566 0.519252 -0.135046
C14   C     C_R   0.321301 0.793515 0.535173 -0.195882
C15   C     C_R   0.827451 0.711557 0.519292 -0.135067
C16   C     C_R   0.821302 0.293514 0.535171 -0.195882
C17   C     C_R   0.248012 0.135584 0.473299 -0.171713
C18   C     C_R   0.301667 0.821145 0.382458 -0.164979
C19   C     C_R   0.748013 0.635591 0.473234 -0.171799
C20   C     C_R   0.801666 0.321146 0.382458 -0.164988
C21   C     C_R   0.196018 0.177454 0.479323 0.557241
C22   C     C_R   0.257508 0.772877 0.373503 0.456036
C23   C     C_R   0.696017 0.677459 0.479266 0.557190
C24   C     C_R   0.757506 0.272879 0.373503 0.456031
C25   C     C_R   0.520005 0.996939 0.164440 -0.269733
C26   C     C_R   0.020005 0.496939 0.164440 -0.269731
C27   C     C_R   0.480014 0.002083 0.834661 -0.219042
C28   C     C_R   0.980015 0.502083 0.834661 -0.219045
C29   C     C_R   0.433180 0.050285 0.961711 -0.215359
C30   C     C_R   0.933181 0.550285 0.961711 -0.215350
C31   C     C_R   0.434998 0.042623 0.871408 0.457383
C32   C     C_R   0.934999 0.542623 0.871409 0.457389
C33   C     C_R   0.522295 0.967675 0.888847 -0.135868
C34   C     C_R   0.022298 0.467676 0.888846 -0.135860
C35   C     C_R   0.626563 0.114292 0.513368 0.891567
C36   C     C_R   0.625818 0.885146 0.511908 0.875744
C37   C     C_R   0.126563 0.614292 0.513368 0.891563
C38   C     C_R   0.125817 0.385145 0.511906 0.875705
C39   C     C_R   0.523957 0.978882 0.980881 -0.060775
C40   C     C_R   0.023959 0.478883 0.980880 -0.060776
C41   C     C_R   0.475997 0.018253 0.017883 -0.006440
C42   C     C_R   0.975998 0.518253 0.017882 -0.006445
C43   C     C_R   0.473654 0.026804 0.109999 -0.117537
C44   C     C_R   0.973655 0.526804 0.109999 -0.117547
C45   C     C_R   0.569979 0.961169 0.127688 0.346597
C46   C     C_R   0.069980 0.461168 0.127688 0.346600
C47   C     C_R   0.574449 0.954975 0.036510 0.386860
C48   C     C_R   0.074451 0.454976 0.036510 0.386852
C49   C     C_R   0.514483 0.000132 0.260342 0.842345
C50   C     C_R   0.014483 0.500132 0.260342 0.842351
C51   C     C_R   0.485416 0.000190 0.739065 0.796456
C52   C     C_R   0.985416 0.500190 0.739065 0.796454
C53   C     C_R   0.314518 0.153868 0.490907 -0.195547
C54   C     C_R   0.330670 0.833302 0.465935 -0.134468
C55   C     C_R   0.814515 0.653867 0.490904 -0.195532
C56   C     C_R   0.830670 0.333302 0.465934 -0.134474
C57   C     C_R   0.675976 0.839100 0.517013 -0.238289
C58   C     C_R   0.677507 0.159886 0.517184 -0.225205
C59   C     C_R   0.175977 0.339100 0.517009 -0.238296
C60   C     C_R   0.177507 0.659886 0.517185 -0.225206
C61   C     C_R   0.789170 0.811099 0.559021 -0.084075
C62   C     C_R   0.772221 0.203070 0.595656 -0.098070
C63   C     C_R   0.289185 0.311112 0.558974 -0.084086
C64   C     C_R   0.272219 0.703071 0.595658 -0.098071
C65   C     C_R   0.737961 0.853296 0.555814 0.336892
C66   C     C_R   0.718332 0.163239 0.592905 0.314165
C67   C     C_R   0.237970 0.353303 0.555785 0.336907
C68   C     C_R   0.218331 0.663239 0.592907 0.314161
C69   C     C_R   0.661699 0.781381 0.486443 0.338957
C70   C     C_R   0.687284 0.197757 0.444466 0.349097
C71   C     C_R   0.161700 0.281376 0.486456 0.338897
C72   C     C_R   0.187285 0.697757 0.444466 0.349098
H1    H     H_    0.378866 0.224001 0.532162 0.215416
H2    H     H_    0.344380 0.803169 0.598253 0.213830
H3    H     H_    0.878850 0.723986 0.532239 0.215439
H4    H     H_    0.844383 0.303166 0.598251 0.213829
H5    H     H_    0.399133 0.083442 0.986131 0.198429
H6    H     H_    0.899134 0.583442 0.986131 0.198434
O1    O     O_3   0.500000 0.000000 0.500000 -0.509249
O2    O     O_3   1.000000 0.500000 0.500000 -0.509243
O3    O     O_R   0.419410 0.880950 0.543120 -0.659055
O4    O     O_R   0.419410 0.119050 0.543120 -0.621158
O5    O     O_R   0.919410 0.380950 0.543120 -0.659050
O6    O     O_R   0.919410 0.619050 0.543120 -0.621171
O7    O     O_R   0.635640 0.069590 0.463140 -0.667108
O8    O     O_R   0.635640 0.930410 0.463140 -0.597959
O9    O     O_R   0.135640 0.569590 0.463140 -0.667107
O10   O     O_R   0.135640 0.430410 0.463140 -0.597952
O11   O     O_R   0.456890 1.000000 0.295720 -0.609362
O12   O     O_R   0.956890 0.500000 0.295720 -0.609361
O13   O     O_R   0.488070 0.049450 0.698020 -0.588314
O14   O     O_R   0.488070 0.950550 0.698020 -0.653073
O15   O     O_R   0.988070 0.549450 0.698020 -0.588314
O16   O     O_R   0.988070 0.450550 0.698020 -0.653070
O17   O     O_R   0.370630 0.069610 0.433010 -0.648405
O18   O     O_R   0.370630 0.930390 0.433010 -0.604557
O19   O     O_R   0.870630 0.569610 0.433010 -0.648425
O20   O     O_R   0.870630 0.430390 0.433010 -0.604571
O21   O     O_R   0.574320 0.880940 0.560740 -0.685863
O22   O     O_R   0.574320 0.119060 0.560740 -0.636826
O23   O     O_R   0.074320 0.380940 0.560740 -0.685861
O24   O     O_R   0.074320 0.619060 0.560740 -0.636830
O25   O     O_R   0.566990 1.000000 0.308240 -0.616757
O26   O     O_R   0.066990 0.500000 0.308240 -0.616756
Zn1   Zn    Zn3+2 0.583120 0.000000 0.434770 0.992315
Zn2   Zn    Zn3+2 0.083120 0.500000 0.434770 0.992313
Zn3   Zn    Zn3+2 0.425830 1.000000 0.416880 1.008630
Zn4   Zn    Zn3+2 0.925830 0.500000 0.416880 1.008618
Zn5   Zn    Zn3+2 0.495530 0.070660 0.574170 0.996783
Zn6   Zn    Zn3+2 0.495530 0.929340 0.574170 0.956037
Zn7   Zn    Zn3+2 0.995530 0.570660 0.574170 0.996777
Zn8   Zn    Zn3+2 0.995530 0.429340 0.574170 0.956032
O27   O     O_3   0.629165 0.925091 0.003519 -0.564740
C73   C     C_3   0.680462 0.966518 0.986623 0.097253
H7    H     H_    0.695670 0.990287 0.047958 0.165335
H8    H     H_    0.664086 0.999368 0.936194 0.104995
C74   C     C_3   0.741222 0.933912 0.951563 -0.780737
H9    H     H_    0.727351 0.908648 0.891336 0.250527
H10   H     H_    0.781214 0.966142 0.935073 0.202797
H11   H     H_    0.760532 0.902668 0.002139 0.268405
O28   O     O_3   0.129168 0.425093 0.003519 -0.564744
C75   C     C_3   0.180464 0.466520 0.986625 0.097261
H12   H     H_    0.195675 0.490285 0.047962 0.165337
H13   H     H_    0.164086 0.499374 0.936201 0.104996
C76   C     C_3   0.241222 0.433916 0.951555 -0.780755
H14   H     H_    0.227349 0.408659 0.891322 0.250518
H15   H     H_    0.281215 0.466147 0.935071 0.202798
H16   H     H_    0.260532 0.402666 0.002122 0.268408
O29   O     O_3   0.394963 0.077945 0.818434 -0.579230
C77   C     C_3   0.333333 0.048765 0.803869 0.114698
H17   H     H_    0.304579 0.045972 0.866268 0.156121
H18   H     H_    0.340844 0.003319 0.776987 0.117942
C78   C     C_3   0.292290 0.083699 0.736966 -0.797521
H19   H     H_    0.319410 0.086196 0.673534 0.247610
H20   H     H_    0.243338 0.061539 0.725507 0.187991
H21   H     H_    0.283290 0.129260 0.761674 0.272053
O30   O     O_3   0.894964 0.577946 0.818435 -0.579219
C79   C     C_3   0.833333 0.548764 0.803865 0.114652
H22   H     H_    0.804581 0.545965 0.866265 0.156127
H23   H     H_    0.840849 0.503321 0.776975 0.117941
C80   C     C_3   0.792290 0.583702 0.736969 -0.797441
H24   H     H_    0.819411 0.586207 0.673538 0.247619
H25   H     H_    0.743340 0.561541 0.725506 0.187971
H26   H     H_    0.783287 0.629261 0.761687 0.272065
C81   C     C_2   0.563487 0.920524 0.847940 0.579871
H27   H     H_    0.594199 0.930455 0.791267 0.002910
O31   O     O_2   0.561134 0.869769 0.875346 -0.521048
C82   C     C_2   0.063493 0.420528 0.847938 0.579875
H28   H     H_    0.094207 0.430463 0.791267 0.002900
O32   O     O_2   0.061141 0.369772 0.875339 -0.521060
C83   C     C_2   0.231354 0.072500 0.454880 0.490370
H29   H     H_    0.261265 0.037196 0.483168 0.045985
O33   O     O_2   0.183609 0.059236 0.408152 -0.508549
C84   C     C_2   0.318789 0.854954 0.301812 0.476809
H30   H     H_    0.280250 0.864111 0.252934 0.109014
O34   O     O_2   0.376533 0.868992 0.286206 -0.580897
C85   C     C_2   0.731359 0.572520 0.454720 0.490319
H31   H     H_    0.761237 0.537196 0.483018 0.046042
O35   O     O_2   0.683653 0.559287 0.407903 -0.508510
C86   C     C_2   0.818785 0.354957 0.301813 0.476805
H32   H     H_    0.780244 0.364115 0.252938 0.109015
O36   O     O_2   0.876529 0.368995 0.286204 -0.580888
C87   C     C_2   0.354363 0.329113 0.598820 0.403261
H33   H     H_    0.372866 0.373828 0.589283 0.114510
O37   O     O_2   0.385762 0.295798 0.647027 -0.567527
C88   C     C_2   0.322456 0.697260 0.668334 0.421907
H34   H     H_    0.308450 0.678181 0.731018 0.097567
O38   O     O_2   0.381205 0.710017 0.657277 -0.585045
C89   C     C_2   0.854339 0.829091 0.598901 0.403249
H35   H     H_    0.872853 0.873803 0.589376 0.114511
O39   O     O_2   0.885718 0.795771 0.647124 -0.567522
C90   C     C_2   0.822459 0.197257 0.668330 0.421898
H36   H     H_    0.808453 0.178178 0.731015 0.097562
O40   O     O_2   0.881208 0.210013 0.657271 -0.585025
O41   O     O_3   0.630056 0.658567 0.475874 -0.553521
C91   C     C_3   0.610902 0.641790 0.561978 0.074977
H37   H     H_    0.610346 0.680911 0.606637 0.130324
H38   H     H_    0.645486 0.607929 0.590147 0.124841
C92   C     C_3   0.541072 0.614829 0.559540 -0.733445
H39   H     H_    0.539115 0.577878 0.511300 0.270060
H40   H     H_    0.528312 0.597441 0.625712 0.213940
H41   H     H_    0.503450 0.648739 0.541026 0.256440
O42   O     O_3   0.735899 0.256129 0.290196 -0.601826
C93   C     C_3   0.784806 0.218132 0.253639 0.072277
H42   H     H_    0.787204 0.175617 0.290552 0.138236
H43   H     H_    0.835525 0.238739 0.254773 0.151444
C94   C     C_3   0.767327 0.204844 0.157922 -0.820772
H44   H     H_    0.760425 0.246788 0.120860 0.264689
H45   H     H_    0.808482 0.179222 0.127380 0.217752
H46   H     H_    0.720839 0.178124 0.153542 0.244428
O43   O     O_3   0.130058 0.158555 0.475995 -0.553506
C95   C     C_3   0.110917 0.141884 0.562152 0.074978
H47   H     H_    0.110253 0.181081 0.606660 0.130372
H48   H     H_    0.145573 0.108134 0.590475 0.124699
C96   C     C_3   0.041152 0.114788 0.559771 -0.733082
H49   H     H_    0.003471 0.148558 0.540879 0.256470
H50   H     H_    0.039355 0.077646 0.511838 0.269947
H51   H     H_    0.028344 0.097628 0.626062 0.213905
O44   O     O_3   0.235903 0.756127 0.290195 -0.601825
C97   C     C_3   0.284809 0.718128 0.253643 0.072268
H52   H     H_    0.287203 0.675613 0.290555 0.138236
H53   H     H_    0.335530 0.738733 0.254783 0.151443
C98   C     C_3   0.267336 0.704842 0.157924 -0.820770
H54   H     H_    0.260442 0.746787 0.120862 0.264689
H55   H     H_    0.308491 0.679217 0.127387 0.217753
H56   H     H_    0.220846 0.678127 0.153537 0.244431
O45   O     O_3   0.749764 0.910453 0.585267 -0.603019
C99   C     C_3   0.730991 0.914548 0.674575 0.042775
H57   H     H_    0.769727 0.893609 0.717318 0.160970
H58   H     H_    0.681707 0.893109 0.687441 0.141817
C100  C     C_3   0.725118 0.979485 0.699466 -0.732457
H59   H     H_    0.686001 0.000950 0.658097 0.264387
H60   H     H_    0.710952 0.983563 0.769684 0.183050
H61   H     H_    0.773671 0.002381 0.689331 0.277658
O46   O     O_3   0.707847 0.124277 0.661953 -0.631113
C101  C     C_3   0.667513 0.152405 0.725719 0.121619
H62   H     H_    0.620228 0.169754 0.696400 0.183611
H63   H     H_    0.694672 0.189916 0.757347 0.115382
C102  C     C_3   0.649246 0.107980 0.796902 -0.832889
H64   H     H_    0.695358 0.090938 0.829320 0.242041
H65   H     H_    0.617542 0.129607 0.847282 0.218034
H66   H     H_    0.620946 0.070403 0.767575 0.247551
O47   O     O_3   0.249772 0.410462 0.585232 -0.603015
C103  C     C_3   0.231013 0.414557 0.674545 0.042753
H67   H     H_    0.269757 0.393621 0.717278 0.160971
H68   H     H_    0.181733 0.393115 0.687426 0.141803
C104  C     C_3   0.225138 0.479494 0.699435 -0.732415
H69   H     H_    0.186012 0.500956 0.658076 0.264387
H70   H     H_    0.210983 0.483572 0.769658 0.183058
H71   H     H_    0.273687 0.502393 0.689287 0.277654
O48   O     O_3   0.207847 0.624277 0.661953 -0.631122
C105  C     C_3   0.167512 0.652403 0.725719 0.121623
H72   H     H_    0.120226 0.669751 0.696400 0.183611
H73   H     H_    0.194668 0.689915 0.757349 0.115383
C106  C     C_3   0.149246 0.607977 0.796900 -0.832889
H74   H     H_    0.195358 0.590937 0.829321 0.242038
H75   H     H_    0.117538 0.629601 0.847280 0.218037
H76   H     H_    0.120949 0.570398 0.767571 0.247547
O49   O     O_3   0.612054 0.771569 0.422889 -0.607671
C107  C     C_3   0.546720 0.772972 0.457798 0.190017
H77   H     H_    0.526223 0.818333 0.453032 0.149127
H78   H     H_    0.544585 0.756995 0.527103 0.155560
C108  C     C_3   0.500644 0.735140 0.400398 -0.782562
H79   H     H_    0.519936 0.689306 0.395085 0.299575
H80   H     H_    0.449720 0.733947 0.429219 0.210462
H81   H     H_    0.497178 0.754326 0.333156 0.243165
O50   O     O_3   0.635092 0.208912 0.385215 -0.579265
C109  C     C_3   0.626254 0.162767 0.323232 0.195917
H82   H     H_    0.590440 0.129629 0.348584 0.125697
H83   H     H_    0.674077 0.140707 0.305429 0.138108
C110  C     C_3   0.593477 0.187721 0.240329 -0.810380
H84   H     H_    0.623240 0.224987 0.213677 0.303406
H85   H     H_    0.589194 0.152490 0.189500 0.180837
H86   H     H_    0.542515 0.204184 0.255695 0.244074
O51   O     O_3   0.112054 0.271553 0.422908 -0.607691
C111  C     C_3   0.046718 0.272975 0.457809 0.189978
H87   H     H_    0.026228 0.318337 0.453006 0.149115
H88   H     H_    0.044575 0.257023 0.527125 0.155573
C112  C     C_3   0.000643 0.235126 0.400435 -0.782535
H89   H     H_    0.019945 0.189294 0.395138 0.299545
H90   H     H_    0.949722 0.233932 0.429266 0.210492
H91   H     H_    0.997167 0.254298 0.333185 0.243142
O52   O     O_3   0.135093 0.708912 0.385213 -0.579265
C113  C     C_3   0.126255 0.662765 0.323232 0.195916
H92   H     H_    0.090440 0.629629 0.348584 0.125699
H93   H     H_    0.174078 0.640704 0.305431 0.138107
C114  C     C_3   0.093481 0.687719 0.240327 -0.810373
H94   H     H_    0.123246 0.724984 0.213675 0.303405
H95   H     H_    0.089199 0.652488 0.189499 0.180838
H96   H     H_    0.042519 0.704183 0.255690 0.244076
C115  C     C_2   0.424383 0.067772 0.150767 0.486476
H97   H     H_    0.441209 0.099964 0.199267 0.032639
O53   O     O_2   0.364615 0.063398 0.134583 -0.545547
C116  C     C_2   0.924384 0.567772 0.150767 0.486487
H98   H     H_    0.941209 0.599963 0.199268 0.032642
O54   O     O_2   0.864615 0.563398 0.134582 -0.545524
O55   O     O_3   0.617631 0.934238 0.180787 -0.578931
C117  C     C_3   0.598176 0.874975 0.195650 0.138238
H99   H     H_    0.588324 0.850939 0.132702 0.176448
H100  H     H_    0.552477 0.873332 0.237130 0.137667
C118  C     C_3   0.654418 0.842958 0.243819 -0.713336
H101  H     H_    0.663992 0.864148 0.308705 0.266706
H102  H     H_    0.640352 0.795931 0.254122 0.241946
H103  H     H_    0.700875 0.844634 0.204205 0.251346
O56   O     O_3   0.117630 0.434236 0.180788 -0.578926
C119  C     C_3   0.098175 0.374973 0.195647 0.138221
H104  H     H_    0.088337 0.350937 0.132695 0.176463
H105  H     H_    0.052467 0.373328 0.237110 0.137661
C120  C     C_3   0.154408 0.342958 0.243836 -0.713378
H106  H     H_    0.163968 0.364150 0.308725 0.266708
H107  H     H_    0.140342 0.295931 0.254136 0.241935
H108  H     H_    0.200874 0.344635 0.204239 0.251351

loop_
_geom_bond_atom_site_label_1
_geom_bond_atom_site_label_2
_ccdc_geom_bond_type
C44   C116  S    
C98   H54   S    
C87   H33   S    
C50   O26   A    
C85   H31   S    
C17   C53   A    
O9    Zn2   S    
C106  H75   S    
C89   H35   S    
C77   H18   S    
O47   C103  S    
C101  C102  S    
C20   C56   A    
C112  H91   S    
C103  H67   S    
C25   C43   A    
O26   Zn2   S    
C73   H7    S    
C26   C44   A    
C110  H84   S    
C39   C41   A    
C100  H61   S    
C2    O4    A    
C27   C33   A    
O23   Zn8   S    
C63   C87   S    
C98   H55   S    
C33   C39   A    
C50   O12   A    
C20   C86   S    
C35   C58   S    
C34   C40   A    
C14   H2    S    
C30   H6    S    
C29   C31   A    
C2    O17   A    
C87   O37   D    
O49   C107  S    
C82   O32   D    
C5    C11   A    
C38   O23   A    
C26   C50   S    
C7    C71   A    
C119  H104  S    
C114  H96   S    
C21   O43   S    
C23   O41   S    
C46   C48   A    
C60   C72   A    
C25   C45   A    
C1    O3    A    
C108  H79   S    
C111  C112  S    
O2    Zn2   S    
O51   C111  S    
C120  H108  S    
O20   Zn4   S    
C93   H42   S    
O1    Zn1   S    
C47   O27   S    
C116  H98   S    
C66   O46   S    
C104  H69   S    
C9    C13   A    
C107  H77   S    
C94   H46   S    
C64   C88   S    
C51   O13   A    
O27   C73   S    
O19   Zn4   S    
C34   C82   S    
C58   C66   A    
C91   C92   S    
C12   C16   A    
C109  H83   S    
C97   H52   S    
C108  H80   S    
C117  C118  S    
C111  H88   S    
C33   C81   S    
C78   H21   S    
C8    C22   A    
C106  H74   S    
C52   O16   A    
C117  H99   S    
C43   C115  S    
C18   C84   S    
C68   O48   S    
C70   O50   S    
C83   O33   D    
C92   H41   S    
C59   C67   A    
C38   C59   S    
C91   H38   S    
C76   H14   S    
C28   C34   A    
O44   C97   S    
C85   O35   D    
C9    C63   A    
O55   C117  S    
C92   H40   S    
C24   O42   S    
C88   O38   D    
C41   C43   A    
O11   Zn3   S    
O24   Zn7   S    
C17   C83   S    
C42   C44   A    
C16   C56   A    
C119  C120  S    
O7    Zn1   S    
C6    C12   A    
C107  H78   S    
C81   O31   D    
C90   O40   D    
O10   Zn2   S    
C81   H27   S    
C13   C53   A    
C45   C47   A    
C98   H56   S    
C63   C67   A    
C8    C72   A    
O6    Zn7   S    
O1    Zn5   S    
C27   C31   A    
O43   C95   S    
C19   C85   S    
O4    Zn5   S    
C20   C24   A    
C22   O44   S    
C28   C32   A    
C82   H28   S    
C36   C57   S    
C10   C14   A    
C74   H11   S    
C99   H57   S    
C102  H64   S    
C90   H36   S    
C62   C66   A    
C113  H92   S    
C110  H86   S    
C36   O8    A    
C118  H101  S    
C7    C21   A    
O21   Zn6   S    
C5    C69   A    
C2    C53   S    
C107  C108  S    
C17   C21   A    
O45   C99   S    
C38   O10   A    
C118  H103  S    
C80   H25   S    
C15   C55   A    
C19   C23   A    
O46   C101  S    
C95   C96   S    
O42   C93   S    
O56   C119  S    
O41   C91   S    
C61   C65   A    
C51   O14   A    
C76   H16   S    
C12   C62   A    
C3    C56   S    
C94   H44   S    
C100  H59   S    
C4    O6    A    
O5    Zn8   S    
C101  H63   S    
C83   H29   S    
C108  H81   S    
C6    C24   A    
C111  H87   S    
O2    Zn8   S    
C105  H73   S    
C120  H106  S    
O28   C75   S    
O1    Zn3   S    
C52   O15   A    
O25   Zn1   S    
C37   C60   S    
C101  H62   S    
C67   O47   S    
C69   O49   S    
C71   O51   S    
C84   H30   S    
C119  H105  S    
O17   Zn3   S    
O15   Zn7   S    
C1    C54   S    
C113  H93   S    
C91   H37   S    
C104  H70   S    
O18   Zn3   S    
C13   H1    S    
C11   C15   A    
C80   H24   S    
C4    C55   S    
C3    O5    A    
C78   H19   S    
C106  H76   S    
C117  H100  S    
C80   H26   S    
O8    Zn1   S    
C61   C89   S    
C115  O53   D    
C75   H13   S    
C112  H89   S    
C14   C54   A    
C103  C104  S    
C64   C68   A    
C86   O36   D    
C48   O28   S    
C114  H95   S    
C109  H82   S    
C39   C47   A    
O29   C77   S    
C89   O39   D    
C19   C55   A    
C40   C48   A    
O2    Zn4   S    
C35   O7    A    
C72   O52   S    
C49   O11   A    
O1    Zn6   S    
C100  H60   S    
C6    C70   A    
C18   C22   A    
C46   O56   S    
C84   O34   D    
C37   O9    A    
C8    C10   A    
C58   C70   A    
C16   H4    S    
C57   C65   A    
C40   C42   A    
C11   C61   A    
C79   C80   S    
C103  H68   S    
C49   O25   A    
C73   H8    S    
O50   C109  S    
C109  C110  S    
C65   O45   S    
C92   H39   S    
C118  H102  S    
C62   C90   S    
O30   C79   S    
C5    C23   A    
C10   C64   A    
C93   H43   S    
C93   C94   S    
C97   C98   S    
C15   H3    S    
C114  H94   S    
C95   H47   S    
O13   Zn5   S    
C75   C76   S    
C74   H10   S    
C77   H17   S    
O12   Zn4   S    
C32   O30   S    
C31   O29   S    
C112  H90   S    
C74   H9    S    
C86   H32   S    
C102  H66   S    
C30   C32   A    
C28   C52   S    
C3    O20   A    
O14   Zn6   S    
C37   O24   A    
C88   H34   S    
C1    O18   A    
O52   C113  S    
C35   O22   A    
O2    Zn7   S    
O16   Zn8   S    
C105  H72   S    
C27   C51   S    
C79   H23   S    
C36   O21   A    
C30   C42   A    
C102  H65   S    
C105  C106  S    
C25   C49   S    
C94   H45   S    
C73   C74   S    
C110  H85   S    
C79   H22   S    
C18   C54   A    
C96   H49   S    
C77   C78   S    
C96   H51   S    
C7    C9    A    
O22   Zn5   S    
C104  H71   S    
C29   H5    S    
O3    Zn6   S    
C60   C68   A    
C113  C114  S    
C99   H58   S    
C99   C100  S    
O48   C105  S    
C76   H15   S    
C78   H20   S    
C29   C41   A    
C120  H107  S    
C45   O55   S    
C57   C69   A    
C75   H12   S    
C4    O19   A    
C26   C46   A    
C97   H53   S    
C115  H97   S    
C59   C71   A    
C96   H50   S    
C116  O54   D    
C95   H48   S    
