data_mof_unit_3380.cif
_audit_creation_date              2012-10-26T19:30:08-0400
_audit_creation_method            fapswitch 2.2
_symmetry_space_group_name_H-M    P1
_symmetry_Int_Tables_number       1
_space_group_crystal_system       triclinic
_cell_length_a                    15.853329
_cell_length_b                    10.615592
_cell_length_c                    9.473989
_cell_angle_alpha                 89.086403
_cell_angle_beta                  89.974013
_cell_angle_gamma                 90.36354
_cell_volume                      1594.16601254

loop_
_atom_site_label
_atom_site_type_symbol
_atom_type_description
_atom_site_fract_x
_atom_site_fract_y
_atom_site_fract_z
_atom_type_partial_charge
C1    C     C_R   0.500071 0.259564 0.500651 0.559701
C2    C     C_3   0.461565 0.402987 0.954071 0.305827
C3    C     C_3   0.462478 0.598798 0.946811 -0.018014
C4    C     C_3   0.537507 0.401189 0.053181 -0.055308
C5    C     C_3   0.576356 0.499128 0.948823 -0.015629
C6    C     C_3   0.423645 0.500899 0.051177 -0.042164
C7    C     C_R   0.340087 0.499916 0.500024 0.553922
C8    C     C_R   0.659911 0.500077 0.499974 0.555058
C9    C     C_3   0.971811 0.384937 0.528873 0.286828
C10   C     C_3   0.028169 0.614828 0.471173 0.232833
C11   C     C_3   0.027982 0.419942 0.401104 -0.106513
C12   C     C_R   0.500108 0.740431 0.499357 0.564353
C13   C     C_3   0.972006 0.579815 0.598936 -0.129209
C14   C     C_1   0.250375 0.499666 0.500173 0.049404
C15   C     C_1   0.749620 0.500260 0.499823 0.043309
C16   C     C_3   0.027949 0.462424 0.628572 -0.112662
C17   C     C_3   0.972039 0.537333 0.371464 -0.147921
C18   C     C_3   0.083105 0.499404 0.500300 -0.004033
C19   C     C_3   0.916884 0.500371 0.499733 -0.013702
C20   C     C_1   0.174804 0.499461 0.500301 0.040667
C21   C     C_1   0.825189 0.500394 0.499705 0.028851
C22   C     C_3   0.566617 0.040925 0.575138 -0.108823
C23   C     C_3   0.572229 0.960124 0.441127 -0.089269
C24   C     C_3   0.433836 0.959078 0.424933 -0.111349
C25   C     C_3   0.428222 0.039831 0.558975 -0.090559
C26   C     C_3   0.500236 0.877498 0.499024 0.028267
C27   C     C_3   0.500194 0.122486 0.501042 0.023534
C28   C     C_3   0.494643 0.955991 0.633294 -0.074545
C29   C     C_3   0.505832 0.043973 0.366803 -0.088799
C30   C     C_3   0.538409 0.597032 0.045920 0.365058
Cu1   Cu    Cu3+1 0.500020 0.499990 0.643150 1.058869
Cu2   Cu    Cu3+1 0.499980 0.500010 0.356850 1.038274
H1    H     H_    0.051583 0.353286 0.321308 0.174585
H2    H     H_    0.510737 0.082484 0.257444 0.162850
H3    H     H_    0.431640 0.682631 0.898545 0.145452
H4    H     H_    0.568305 0.317318 0.101436 0.133523
H5    H     H_    0.640785 0.499692 0.902937 0.155853
H6    H     H_    0.359220 0.500305 0.097077 0.156303
H7    H     H_    0.990632 0.052696 0.626964 0.407381
H8    H     H_    0.951712 0.829866 0.328909 0.348524
H9    H     H_    0.666988 0.877506 0.983802 0.375408
H10   H     H_    0.393673 0.199105 0.120884 0.330195
H11   H     H_    0.948403 0.646491 0.678710 0.164324
H12   H     H_    0.948459 0.569466 0.266702 0.149312
H13   H     H_    0.051528 0.430247 0.733321 0.169268
H14   H     H_    0.631125 0.924705 0.392849 0.185536
H15   H     H_    0.369312 0.075225 0.607220 0.198331
H16   H     H_    0.620740 0.077482 0.636890 0.164509
H17   H     H_    0.379712 0.922561 0.363156 0.173500
H18   H     H_    0.490105 0.917283 0.742653 0.191090
N1    N     N_3   0.500060 0.499970 0.858290 -0.278511
N2    N     N_3   0.499940 0.500030 0.141710 -0.284907
O1    O     O_R   0.500040 0.316850 0.620870 -0.431121
O2    O     O_2   0.882779 0.183514 0.445205 -0.248485
O3    O     O_3   0.016023 0.134182 0.596491 -0.449719
O4    O     O_2   0.118192 0.815187 0.554395 -0.224777
O5    O     O_2   0.120162 0.768409 0.301906 -0.252162
O6    O     O_3   0.984492 0.867422 0.406834 -0.457178
O7    O     O_2   0.528592 0.833311 0.140530 -0.307520
O8    O     O_2   0.653205 0.711184 0.213531 -0.277892
O9    O     O_3   0.645261 0.794184 0.954653 -0.534478
O10   O     O_2   0.347321 0.289560 0.785061 -0.234817
O11   O     O_2   0.469956 0.165287 0.860803 -0.304636
O12   O     O_R   0.499960 0.683150 0.379130 -0.428495
O13   O     O_3   0.351991 0.207057 0.043451 -0.481412
O14   O     O_R   0.500000 0.316860 0.379090 -0.537519
O15   O     O_R   0.500000 0.683140 0.620910 -0.517966
O16   O     O_R   0.379090 0.499980 0.620870 -0.463306
O17   O     O_R   0.620910 0.500020 0.379130 -0.460777
O18   O     O_R   0.379060 0.499990 0.379090 -0.513391
O19   O     O_R   0.620940 0.500010 0.620910 -0.508823
O20   O     O_2   0.879117 0.233072 0.697510 -0.277339
S1    S     S_3+6 0.933629 0.230131 0.567804 0.049749
S2    S     S_3+6 0.066322 0.769781 0.432444 0.047341
S3    S     S_3+6 0.592129 0.737498 0.095801 0.021874
S4    S     S_3+6 0.407290 0.262828 0.904201 0.044068

loop_
_geom_bond_atom_site_label_1
_geom_bond_atom_site_label_2
_ccdc_geom_bond_type
C22   H16   S    
C4    H4    S    
C11   C18   S    
C5    H5    S    
C27   C29   S    
H9    O9    S    
C3    C6    S    
C7    O18   A    
O9    S3    S    
C25   C28   S    
Cu1   O15   S    
C8    O17   A    
O13   S4    S    
C4    N2    S    
C23   C29   S    
C19   C21   S    
C9    C16   S    
C24   C26   S    
C12   O12   A    
O11   S4    D    
C10   C17   S    
C23   C26   S    
C1    O1    A    
C24   C29   S    
Cu2   N2    S    
C7    O16   A    
C28   H18   S    
C9    C19   S    
C7    C14   S    
H7    O3    S    
H10   O13   S    
C6    H6    S    
C25   H15   S    
Cu1   O19   S    
C23   H14   S    
C22   C28   S    
O10   S4    D    
C2    C6    S    
C9    S1    S    
Cu1   O16   S    
C12   O15   A    
H8    O6    S    
C13   C19   S    
C14   C20   T    
C11   H1    S    
O4    S2    D    
C24   C25   S    
Cu2   O12   S    
C3    N1    S    
O20   S1    D    
Cu2   O18   S    
C29   H2    S    
C12   C26   S    
O5    S2    D    
C3    C30   S    
C2    C4    S    
O2    S1    D    
Cu1   Cu2   S    
C3    H3    S    
C1    O14   A    
Cu1   O1    S    
C9    C11   S    
C8    C15   S    
C22   C27   S    
O7    S3    D    
C13   H11   S    
C2    S4    S    
O6    S2    S    
Cu2   O14   S    
C5    C30   S    
C24   H17   S    
C30   N2    S    
C11   C17   S    
C8    O19   A    
Cu1   N1    S    
C4    C5    S    
C10   C13   S    
C16   H13   S    
Cu2   O17   S    
C25   C27   S    
O8    S3    D    
C26   C28   S    
C17   H12   S    
C30   S3    S    
C10   S2    S    
C10   C18   S    
C17   C19   S    
C18   C20   S    
C2    N1    S    
O3    S1    S    
C15   C21   T    
C16   C18   S    
C13   C16   S    
C1    C27   S    
C22   C23   S    
C5    N1    S    
C6    N2    S    
