data_mof_unit_4666.cif
_audit_creation_date              2012-10-26T19:48:08-0400
_audit_creation_method            fapswitch 2.2
_symmetry_space_group_name_H-M    P1
_symmetry_Int_Tables_number       1
_space_group_crystal_system       triclinic
_cell_length_a                    10.717546
_cell_length_b                    9.42675
_cell_length_c                    10.65091
_cell_angle_alpha                 90.453866
_cell_angle_beta                  90.087381
_cell_angle_gamma                 90.138585
_cell_volume                      1076.04057146

loop_
_atom_site_label
_atom_site_type_symbol
_atom_type_description
_atom_site_fract_x
_atom_site_fract_y
_atom_site_fract_z
_atom_type_partial_charge
C1    C     C_R   0.259941 0.499700 0.504008 0.564616
C2    C     C_3   0.927089 0.529950 0.367034 0.519913
C3    C     C_3   0.625605 0.084149 0.531471 -0.106929
C4    C     C_3   0.625563 0.916896 0.531745 -0.109006
C5    C     C_3   0.412957 0.084339 0.597850 -0.103074
C6    C     C_3   0.412742 0.916768 0.597627 -0.103994
C7    C     C_3   0.461657 0.082504 0.379405 -0.105438
C8    C     C_3   0.462068 0.915377 0.379260 -0.104697
C9    C     C_R   0.496642 0.499641 0.259278 0.576769
C10   C     C_R   0.739960 0.500042 0.504560 0.610156
C11   C     C_R   0.500940 0.500540 0.740727 0.579274
C12   C     C_3   0.494384 0.499505 0.122258 0.007932
C13   C     C_3   0.433226 0.615455 0.041445 -0.117609
C14   C     C_3   0.440610 0.379773 0.038576 -0.123547
C15   C     C_3   0.382240 0.495919 0.956697 0.282792
C16   C     C_3   0.500349 0.501661 0.877554 0.069278
C17   C     C_3   0.553507 0.620592 0.961184 -0.164530
C18   C     C_3   0.561079 0.386802 0.958499 -0.162108
C19   C     C_3   0.614417 0.505846 0.044188 -0.147053
C20   C     C_3   0.169877 0.473598 0.987373 -0.018578
C21   C     C_3   0.043829 0.499561 0.925421 -0.395910
C22   C     C_3   0.910617 0.710138 0.213698 0.010968
C23   C     C_3   0.072278 0.620103 0.590085 -0.251203
C24   C     C_3   0.967924 0.857439 0.208410 -0.420579
C25   C     C_3   0.923973 0.317653 0.235369 -0.039114
C26   C     C_3   0.830530 0.220045 0.170546 -0.380935
C27   C     C_3   0.071344 0.354794 0.552504 -0.262560
C28   C     C_3   0.928814 0.615879 0.595561 -0.263883
C29   C     C_3   0.928229 0.355776 0.553804 -0.283114
C30   C     C_3   0.074495 0.521304 0.369176 -0.179955
C31   C     C_3   0.122127 0.498870 0.504483 0.006701
C32   C     C_3   0.878288 0.499703 0.503794 0.107246
Cu1   Cu    Cu3+1 0.499860 0.642410 0.500060 0.897112
Cu2   Cu    Cu3+1 0.499860 0.357590 0.500060 0.889477
H1    H     H_    0.658630 0.125002 0.624052 0.106253
H2    H     H_    0.527168 0.878281 0.304795 0.122409
H3    H     H_    0.316662 0.122888 0.579963 0.112861
H4    H     H_    0.316414 0.877888 0.579115 0.112573
H5    H     H_    0.379757 0.707600 0.078076 0.091740
H6    H     H_    0.393898 0.282351 0.073038 0.086044
H7    H     H_    0.600460 0.717859 0.926683 0.100604
H8    H     H_    0.614060 0.294597 0.921286 0.099038
H9    H     H_    0.710339 0.511396 0.082697 0.147913
H10   H     H_    0.102203 0.724943 0.553128 0.129060
H11   H     H_    0.103896 0.266170 0.491275 0.114357
H12   H     H_    0.658107 0.878253 0.624622 0.101580
H13   H     H_    0.112002 0.610545 0.685927 0.155851
H14   H     H_    0.107431 0.334024 0.648556 0.142562
H15   H     H_    0.898023 0.593154 0.693106 0.086669
H16   H     H_    0.895249 0.339550 0.651762 0.100114
H17   H     H_    0.891559 0.722540 0.572229 0.154578
H18   H     H_    0.891416 0.264327 0.499032 0.127775
H19   H     H_    0.115444 0.621893 0.333962 0.109327
H20   H     H_    0.115580 0.438559 0.307987 0.046392
H21   H     H_    0.179402 0.548096 0.068599 0.111602
H22   H     H_    0.172543 0.362398 0.021371 0.118569
H23   H     H_    0.694179 0.120646 0.460470 0.113806
H24   H     H_    0.032952 0.429830 0.841843 0.151379
H25   H     H_    0.966170 0.476328 0.990470 0.091226
H26   H     H_    0.036634 0.612296 0.897012 0.138355
H27   H     H_    0.818197 0.712551 0.166628 0.153417
H28   H     H_    0.972337 0.636516 0.160736 0.125670
H29   H     H_    0.063029 0.856606 0.249894 0.131052
H30   H     H_    0.974469 0.892130 0.109258 0.090778
H31   H     H_    0.909230 0.933091 0.262463 0.150176
H32   H     H_    0.970024 0.257327 0.310900 0.112769
H33   H     H_    0.994344 0.347744 0.164646 0.112445
H34   H     H_    0.694485 0.878953 0.461159 0.143566
H35   H     H_    0.782100 0.276902 0.094220 0.150397
H36   H     H_    0.879911 0.128815 0.127595 0.082995
H37   H     H_    0.760726 0.181078 0.239101 0.150083
H38   H     H_    0.438883 0.123097 0.693213 0.122215
H39   H     H_    0.438121 0.879135 0.692927 0.120724
H40   H     H_    0.367080 0.121566 0.354087 0.104495
H41   H     H_    0.367857 0.874812 0.353200 0.105430
H42   H     H_    0.525973 0.119593 0.304654 0.116382
N1    N     N_3   0.500250 0.143650 0.502780 -0.225238
N2    N     N_3   0.500250 0.856350 0.502780 -0.227513
O1    O     O_R   0.317570 0.620260 0.500070 -0.518135
O2    O     O_3   0.893486 0.672906 0.341005 -0.559941
O3    O     O_3   0.860964 0.439479 0.279897 -0.559655
O4    O     O_R   0.317570 0.379740 0.500070 -0.514151
O5    O     O_R   0.499850 0.620240 0.316900 -0.509276
O6    O     O_R   0.499850 0.379760 0.316900 -0.506163
O7    O     O_R   0.682190 0.620260 0.500030 -0.492090
O8    O     O_R   0.682190 0.379740 0.500030 -0.512188
O9    O     O_R   0.499910 0.620280 0.683200 -0.516587
O10   O     O_R   0.499910 0.379720 0.683200 -0.515208
O11   O     O_3   0.264353 0.494831 0.897624 -0.567505

loop_
_geom_bond_atom_site_label_1
_geom_bond_atom_site_label_2
_ccdc_geom_bond_type
C27   H14   S    
C8    N2    S    
C10   O7    A    
C5    H3    S    
C27   C29   S    
C14   C18   S    
C25   H33   S    
C20   H22   S    
C7    C8    S    
C4    H12   S    
C30   H20   S    
C21   H25   S    
C5    H38   S    
C18   H8    S    
Cu2   N1    S    
Cu2   O8    S    
C30   C31   S    
C28   H17   S    
Cu1   N2    S    
C6    N2    S    
C15   O11   S    
C15   C16   S    
C1    C31   S    
C2    C32   S    
C18   C19   S    
C8    H2    S    
Cu1   O7    S    
C11   O9    A    
C16   C17   S    
C6    H4    S    
C7    N1    S    
C27   H11   S    
C24   H30   S    
C25   O3    S    
C26   H37   S    
Cu2   O6    S    
C20   H21   S    
C25   C26   S    
C19   H9    S    
C7    H40   S    
C29   H16   S    
C30   H19   S    
C23   H13   S    
C27   C31   S    
C28   C32   S    
C21   H26   S    
C4    H34   S    
Cu1   O1    S    
C1    O4    A    
C8    H41   S    
C23   H10   S    
C23   C31   S    
C4    N2    S    
C22   H28   S    
C28   H15   S    
C3    H1    S    
C11   O10   A    
Cu1   Cu2   S    
Cu2   O10   S    
C23   C28   S    
C20   C21   S    
Cu1   O5    S    
C24   H31   S    
C9    O5    A    
C3    H23   S    
C12   C14   S    
C24   H29   S    
C13   C15   S    
C1    O1    A    
C22   C24   S    
C5    N1    S    
C3    C4    S    
C3    N1    S    
C6    H39   S    
C10   O8    A    
C25   H32   S    
C7    H42   S    
C29   C32   S    
C20   O11   S    
C13   C17   S    
C2    C30   S    
Cu1   O9    S    
C22   O2    S    
C21   H24   S    
C22   H27   S    
C5    C6    S    
C26   H36   S    
C12   C19   S    
C17   C19   S    
C9    C12   S    
C17   H7    S    
C13   H5    S    
C11   C16   S    
C2    O2    S    
C9    O6    A    
C14   H6    S    
C10   C32   S    
C12   C13   S    
C16   C18   S    
C26   H35   S    
C14   C15   S    
C2    O3    S    
Cu2   O4    S    
C29   H18   S    
