data_mof_unit_2012.cif
_audit_creation_date              2012-10-26T19:27:33-0400
_audit_creation_method            fapswitch 2.2
_symmetry_space_group_name_H-M    P1
_symmetry_Int_Tables_number       1
_space_group_crystal_system       triclinic
_cell_length_a                    20.58395
_cell_length_b                    21.166876
_cell_length_c                    14.754052
_cell_angle_alpha                 89.99684
_cell_angle_beta                  127.783099
_cell_angle_gamma                 90.001437
_cell_volume                      5080.52312389

loop_
_atom_site_label
_atom_site_type_symbol
_atom_type_description
_atom_site_fract_x
_atom_site_fract_y
_atom_site_fract_z
_atom_type_partial_charge
C1    C     C_R   0.601611 0.912258 0.629314 0.541479
C2    C     C_R   0.721840 0.190508 0.128285 -0.128649
C3    C     C_R   0.705396 0.764029 0.946898 0.037558
C4    C     C_R   0.246317 0.710406 0.988644 0.037978
C5    C     C_R   0.793103 0.265046 0.051488 0.037498
C6    C     C_R   0.753694 0.710384 0.011325 0.038059
C7    C     C_R   0.245471 0.289017 0.987710 0.038081
C8    C     C_R   0.338076 0.795853 0.020754 -0.134084
C9    C     C_R   0.712319 0.173616 0.029994 -0.132103
C10   C     C_R   0.661733 0.795707 0.979009 -0.133901
C11   C     C_R   0.336757 0.203281 0.019360 -0.133315
C12   C     C_R   0.836245 0.297061 0.018831 -0.133256
C13   C     C_R   0.670560 0.778634 0.076623 -0.128706
C14   C     C_R   0.213504 0.672809 0.031282 -0.131777
C15   C     C_R   0.212737 0.326661 0.030417 -0.132173
C16   C     C_R   0.786639 0.672858 0.968800 -0.131761
C17   C     C_1   0.322396 0.829778 0.449536 0.224643
C18   C     C_1   0.695296 0.161676 0.569247 0.223049
C19   C     C_1   0.678042 0.830021 0.550844 0.224910
C20   C     C_1   0.321479 0.169787 0.448652 0.224867
C21   C     C_1   0.821413 0.330244 0.448574 0.224858
C22   C     C_1   0.196926 0.660700 0.570896 0.223245
C23   C     C_1   0.195507 0.338458 0.569485 0.223058
C24   C     C_R   0.327777 0.220247 0.921601 -0.127846
C25   C     C_1   0.803283 0.660873 0.429267 0.223041
C26   C     C_R   0.827263 0.280102 0.921073 -0.127801
C27   C     C_R   0.223098 0.689709 0.129648 -0.127594
C28   C     C_R   0.222247 0.309749 0.128701 -0.128589
C29   C     C_R   0.777107 0.689797 0.870493 -0.127790
C30   C     C_R   0.321259 0.999092 0.666425 -0.133014
C31   C     C_R   0.678780 0.001311 0.333627 -0.133822
C32   C     C_R   0.821258 0.501085 0.666438 -0.133655
C33   C     C_R   0.398297 0.087671 0.370589 0.542766
C34   C     C_R   0.178795 0.499259 0.333629 -0.134543
C35   C     C_R   0.351180 0.999438 0.603513 0.087165
C36   C     C_R   0.648827 0.000621 0.396506 0.088224
C37   C     C_R   0.851179 0.500481 0.603523 0.088429
C38   C     C_R   0.148830 0.499530 0.396503 0.089500
C39   C     C_R   0.488488 0.000372 0.775216 0.040216
C40   C     C_R   0.511547 0.999776 0.224789 0.038188
C41   C     C_R   0.988491 0.499841 0.775219 0.041206
C42   C     C_R   0.011552 0.500319 0.224787 0.039218
C43   C     C_R   0.461911 0.000170 0.844888 0.001120
C44   C     C_R   0.398410 0.912244 0.370710 0.541893
C45   C     C_R   0.538157 0.000285 0.155149 0.000704
C46   C     C_R   0.961916 0.500275 0.844895 0.003196
C47   C     C_R   0.038171 0.500170 0.155153 0.002747
C48   C     C_R   0.376046 0.999395 0.786732 0.037747
C49   C     C_R   0.624021 0.001202 0.213319 0.037129
C50   C     C_R   0.876046 0.501032 0.786744 0.036962
C51   C     C_R   0.124044 0.499529 0.213323 0.036213
C52   C     C_R   0.516481 0.000622 0.968719 0.022867
C53   C     C_R   0.483604 0.999998 0.031326 0.021208
C54   C     C_R   0.016497 0.500050 0.968728 0.026222
C55   C     C_R   0.602908 0.086843 0.630851 0.543142
C56   C     C_R   0.983615 0.500560 0.031332 0.024740
C57   C     C_R   0.397403 0.999104 0.967949 -0.146994
C58   C     C_R   0.602682 0.001772 0.032103 -0.147551
C59   C     C_R   0.897409 0.501531 0.967958 -0.147622
C60   C     C_R   0.102713 0.499328 0.032115 -0.148632
C61   C     C_R   0.345121 0.998880 0.848600 -0.127664
C62   C     C_R   0.654958 0.002053 0.151459 -0.132683
C63   C     C_R   0.845122 0.501766 0.848614 -0.132994
C64   C     C_R   0.154993 0.499128 0.151469 -0.137927
C65   C     C_R   0.663172 0.136658 0.704572 -0.018830
C66   C     C_R   0.102946 0.413183 0.630900 0.542495
C67   C     C_R   0.346712 0.856635 0.306636 -0.018301
C68   C     C_R   0.346252 0.143065 0.306174 -0.018284
C69   C     C_R   0.653349 0.856672 0.693422 -0.018200
C70   C     C_R   0.163828 0.636216 0.705341 -0.018885
C71   C     C_R   0.846112 0.357037 0.306038 -0.018087
C72   C     C_R   0.836210 0.636241 0.294684 -0.019001
C73   C     C_R   0.163329 0.363456 0.704759 -0.018698
C74   C     C_R   0.762244 0.217901 0.749348 -0.131560
C75   C     C_R   0.271318 0.762165 0.285225 -0.132040
C76   C     C_R   0.270428 0.237340 0.284285 -0.132412
C77   C     C_R   0.896942 0.586750 0.368960 0.543732
C78   C     C_R   0.728940 0.762300 0.714983 -0.132118
C79   C     C_R   0.263975 0.716745 0.751163 -0.131694
C80   C     C_R   0.770156 0.262823 0.284003 -0.132438
C81   C     C_R   0.736010 0.716734 0.248783 -0.131553
C82   C     C_R   0.262613 0.282356 0.749738 -0.131574
C83   C     C_R   0.707086 0.171059 0.675466 -0.022518
C84   C     C_R   0.313318 0.816983 0.346105 -0.023400
C85   C     C_R   0.312590 0.182617 0.345368 -0.023451
C86   C     C_R   0.686917 0.817112 0.654096 -0.023402
C87   C     C_R   0.208382 0.670217 0.676852 -0.022465
C88   C     C_R   0.898267 0.412354 0.370560 0.542156
C89   C     C_R   0.812429 0.317483 0.345203 -0.023376
C90   C     C_R   0.791685 0.670269 0.323187 -0.022460
C91   C     C_R   0.207327 0.329109 0.675735 -0.022450
C92   C     C_R   0.676253 0.150131 0.807430 -0.145904
C93   C     C_R   0.336470 0.840331 0.206828 -0.141068
C94   C     C_R   0.335836 0.159227 0.206210 -0.141249
C95   C     C_R   0.663481 0.840301 0.793124 -0.141040
C96   C     C_R   0.176917 0.649668 0.808239 -0.146077
C97   C     C_R   0.835573 0.340962 0.205962 -0.141245
C98   C     C_R   0.823097 0.649664 0.191761 -0.146086
C99   C     C_R   0.103080 0.586734 0.631063 0.543273
C100  C     C_R   0.176489 0.350039 0.807694 -0.145956
C101  C     C_R   0.732208 0.196685 0.883197 0.029956
C102  C     C_R   0.299179 0.783359 0.149140 0.031503
C103  C     C_R   0.298321 0.216087 0.148239 0.031633
C104  C     C_R   0.700820 0.783342 0.850828 0.031487
C105  C     C_R   0.233399 0.695859 0.884498 0.030011
C106  C     C_R   0.797957 0.284154 0.147871 0.031639
C107  C     C_R   0.766586 0.695828 0.115454 0.029990
C108  C     C_R   0.232570 0.303570 0.883575 0.029947
C109  C     C_R   0.774241 0.231447 0.851449 0.035483
C110  C     C_R   0.329263 0.778769 0.923155 -0.128972
C111  C     C_R   0.264278 0.745050 0.187873 0.034817
C112  C     C_R   0.263409 0.254417 0.186937 0.034912
C113  C     C_R   0.735868 0.745115 0.812224 0.034905
C114  C     C_R   0.275882 0.730339 0.853181 0.035800
C115  C     C_R   0.763056 0.245807 0.186575 0.034945
C116  C     C_R   0.724046 0.730277 0.146708 0.035770
C117  C     C_R   0.274659 0.268843 0.851884 0.035503
C118  C     C_R   0.745062 0.211260 0.987291 0.038121
C119  C     C_R   0.294535 0.764096 0.052994 0.037618
C120  C     C_R   0.293537 0.235244 0.051932 0.037508
Cu1   Cu    Cu3+1 0.526640 1.000000 0.436960 0.967445
Cu2   Cu    Cu3+1 0.473360 0.000000 0.563040 0.967869
Cu3   Cu    Cu3+1 0.026640 0.500000 0.436960 0.968076
Cu4   Cu    Cu3+1 0.973360 0.500000 0.563040 0.968485
H1    H     H_    0.363358 0.804599 0.901137 0.118735
H2    H     H_    0.639825 0.124750 0.824978 0.125250
H3    H     H_    0.642279 0.873515 0.825071 0.119649
H4    H     H_    0.357045 0.125940 0.174388 0.119180
H5    H     H_    0.856794 0.374270 0.174183 0.119062
H6    H     H_    0.140081 0.624618 0.825442 0.125406
H7    H     H_    0.140017 0.375379 0.825211 0.125215
H8    H     H_    0.859933 0.624605 0.174571 0.125234
H9    H     H_    0.297130 0.743365 0.728303 0.125825
H10   H     H_    0.743918 0.232744 0.313693 0.127699
H11   H     H_    0.702848 0.743358 0.271626 0.125891
H12   H     H_    0.696081 0.160209 0.158314 0.120322
H13   H     H_    0.295391 0.255494 0.726526 0.126447
H14   H     H_    0.794968 0.244800 0.726082 0.126504
H15   H     H_    0.245215 0.732059 0.315079 0.128192
H16   H     H_    0.244196 0.267411 0.313989 0.127728
H17   H     H_    0.755175 0.732265 0.685242 0.128105
H18   H     H_    0.381518 0.833187 0.070936 0.110420
H19   H     H_    0.680986 0.129528 0.991611 0.100951
H20   H     H_    0.618203 0.832979 0.928728 0.110721
H21   H     H_    0.380030 0.165821 0.069298 0.110924
H22   H     H_    0.879461 0.334561 0.068689 0.110847
H23   H     H_    0.636396 0.804420 0.098569 0.118870
H24   H     H_    0.182136 0.628735 0.992791 0.101665
H25   H     H_    0.181425 0.370759 0.992029 0.101151
H26   H     H_    0.818088 0.628819 0.007350 0.101081
H27   H     H_    0.691320 0.000780 0.489224 0.134063
H28   H     H_    0.308678 0.999155 0.510798 0.133087
H29   H     H_    0.191325 0.499288 0.489222 0.134963
H30   H     H_    0.808669 0.500578 0.510806 0.134011
H31   H     H_    0.255392 0.998544 0.621076 0.099612
H32   H     H_    0.744649 0.001976 0.379004 0.099321
H33   H     H_    0.755390 0.501627 0.621089 0.099313
H34   H     H_    0.361571 0.194219 0.899293 0.120828
H35   H     H_    0.244668 0.498805 0.379011 0.098998
H36   H     H_    0.368083 0.998576 0.008326 0.091438
H37   H     H_    0.631995 0.002552 0.991716 0.088536
H38   H     H_    0.868087 0.502192 0.008332 0.088131
H39   H     H_    0.132041 0.498918 0.991740 0.085518
H40   H     H_    0.279326 0.998236 0.804014 0.114875
H41   H     H_    0.720750 0.002964 0.196049 0.113189
H42   H     H_    0.779330 0.502540 0.804041 0.112963
H43   H     H_    0.220790 0.498601 0.196052 0.111512
H44   H     H_    0.447413 0.999316 0.187736 0.111042
H45   H     H_    0.861005 0.306167 0.898711 0.120873
H46   H     H_    0.552625 0.000703 0.812258 0.110355
H47   H     H_    0.947412 0.500590 0.187723 0.110243
H48   H     H_    0.052629 0.499467 0.812261 0.109506
H49   H     H_    0.197342 0.659430 0.159701 0.121593
H50   H     H_    0.196493 0.340043 0.158738 0.120564
H51   H     H_    0.802979 0.659580 0.840540 0.121138
H52   H     H_    0.357563 0.873602 0.174803 0.119237
N1    N     N_R   0.433280 0.000000 0.657760 -0.224147
N2    N     N_1   0.187916 0.653343 0.486091 -0.303223
N3    N     N_1   0.186190 0.345676 0.484435 -0.304436
N4    N     N_1   0.812406 0.653625 0.514174 -0.303778
N5    N     N_R   0.566720 1.000000 0.342240 -0.224748
N6    N     N_R   0.933280 0.500000 0.657760 -0.224751
N7    N     N_R   0.066720 0.500000 0.342240 -0.225344
N8    N     N_1   0.329591 0.839804 0.532401 -0.300497
N9    N     N_1   0.686001 0.154434 0.484218 -0.304416
N10   N     N_1   0.671011 0.840148 0.468126 -0.299786
N11   N     N_1   0.328507 0.159723 0.531385 -0.298953
N12   N     N_1   0.828515 0.340252 0.531375 -0.299109
O1    O     O_R   0.600040 0.935040 0.546740 -0.490181
O2    O     O_R   0.444990 0.064930 0.346780 -0.508635
O3    O     O_R   0.444990 0.935070 0.346780 -0.509024
O4    O     O_R   0.555010 0.064930 0.653220 -0.509254
O5    O     O_R   0.055010 0.435070 0.653220 -0.509616
O6    O     O_R   0.944990 0.564930 0.346780 -0.509106
O7    O     O_R   0.944990 0.435070 0.346780 -0.509082
O8    O     O_R   0.055010 0.564930 0.653220 -0.509274
O9    O     O_R   0.399960 0.064960 0.453260 -0.489325
O10   O     O_R   0.399960 0.935040 0.453260 -0.490186
O11   O     O_R   0.600040 0.064960 0.546740 -0.489308
O12   O     O_R   0.100040 0.435040 0.546740 -0.489874
O13   O     O_R   0.899960 0.564960 0.453260 -0.488833
O14   O     O_R   0.899960 0.435040 0.453260 -0.490005
O15   O     O_R   0.100040 0.564960 0.546740 -0.488899
O16   O     O_R   0.555010 0.935070 0.653220 -0.509150

loop_
_geom_bond_atom_site_label_1
_geom_bond_atom_site_label_2
_ccdc_geom_bond_type
C3    C104  A    
C35   N1    A    
Cu2   N1    S    
C96   C105  A    
C64   H43   S    
C44   O10   A    
C68   C85   A    
C73   C100  A    
C61   H40   S    
C103  C120  A    
C74   C83   A    
C22   N2    T    
C3    C6    A    
C27   H49   S    
C74   C109  A    
C79   C87   A    
C31   H32   S    
C9    H19   S    
C100  H7    S    
Cu3   Cu4   S    
C72   C98   A    
C52   C53   A    
C74   H14   S    
C34   C51   A    
C30   C35   A    
C101  C118  A    
C30   C48   A    
C31   C49   A    
C40   N5    A    
C82   H13   S    
C44   O3    A    
Cu1   O1    S    
C24   H34   S    
C43   C52   A    
C65   C83   A    
C70   C87   A    
C101  C109  A    
C14   H24   S    
C11   C24   A    
C60   H39   S    
C80   H10   S    
Cu2   O16   S    
C80   C89   A    
Cu1   O11   S    
Cu3   N7    S    
C106  C115  A    
C39   N1    A    
C63   H42   S    
C55   O11   A    
C26   H45   S    
Cu4   O5    S    
C41   C46   A    
Cu3   O6    S    
C33   O9    A    
C14   C27   A    
C72   C90   A    
C43   C48   A    
C110  C114  A    
C96   H6    S    
C23   N3    T    
C2    H12   S    
C34   H35   S    
C78   C86   A    
C7    C15   A    
C6    C107  A    
C27   C111  A    
C67   C84   A    
C9    C118  A    
C88   O7    A    
Cu3   O7    S    
C102  C111  A    
C29   H51   S    
C11   C120  A    
C37   H30   S    
C55   C65   S    
C60   C64   A    
C81   H11   S    
C50   C63   A    
C5    C106  A    
C76   H16   S    
C40   C45   A    
C79   H9    S    
C41   H48   S    
C54   C56   A    
C25   N4    T    
C100  C108  A    
C12   H22   S    
C105  C114  A    
C73   C91   A    
C5    C12   A    
C78   H17   S    
Cu1   O2    S    
C53   C57   A    
C11   H21   S    
C47   C51   A    
C16   C29   A    
C22   C87   S    
C66   C73   S    
C6    C16   A    
C99   O8    A    
C1    C69   S    
C38   N7    A    
C104  C113  A    
C12   C26   A    
C103  C112  A    
C75   C84   A    
C70   C96   A    
C77   O6    A    
Cu4   N6    S    
C72   C77   S    
C7    C120  A    
C8    C110  A    
C71   C97   A    
C2    C115  A    
Cu3   O12   S    
C71   C89   A    
C80   C115  A    
C45   C49   A    
C76   C112  A    
C20   C85   S    
C46   C54   A    
C18   C83   S    
C24   C117  A    
C4    C119  A    
C10   H20   S    
C32   C37   A    
Cu2   O10   S    
Cu2   O4    S    
C26   C109  A    
C32   C50   A    
Cu1   Cu2   S    
C1    O16   A    
C65   C92   A    
C52   C58   A    
C58   C62   A    
C7    C108  A    
C97   C106  A    
C92   C101  A    
C30   H31   S    
C57   H36   S    
C94   C103  A    
C19   C86   S    
C98   H8    S    
C23   C91   S    
C41   N6    A    
C78   C113  A    
C35   H28   S    
C81   C90   A    
C15   C28   A    
C15   H25   S    
C66   O5    A    
C70   C99   S    
C21   N12   T    
Cu1   N5    S    
C32   H33   S    
C29   C113  A    
C49   C62   A    
C93   H52   S    
C99   O15   A    
C34   C38   A    
C5    C118  A    
C59   C63   A    
C108  C117  A    
C25   C90   S    
C51   C64   A    
C21   C89   S    
C69   C95   A    
C10   C13   A    
C92   H2    S    
C93   C102  A    
Cu1   O3    S    
C39   C43   A    
C36   H27   S    
C57   C61   A    
C94   H4    S    
C42   N7    A    
C39   H46   S    
C4    C105  A    
C46   C50   A    
C18   N9    T    
C75   C111  A    
C38   H29   S    
C56   C59   A    
Cu3   O15   S    
Cu4   O13   S    
C54   C60   A    
C17   C84   S    
C88   O14   A    
C55   O4    A    
C77   O13   A    
C97   H5    S    
C19   N10   T    
C59   H38   S    
C75   H15   S    
C95   C104  A    
C2    C9    A    
C17   N8    T    
C28   H50   S    
C48   C61   A    
C69   C86   A    
C37   N6    A    
C81   C116  A    
C67   C93   A    
C16   H26   S    
C42   C47   A    
Cu2   O9    S    
C4    C14   A    
Cu4   O8    S    
C68   C94   A    
C107  C116  A    
C40   H44   S    
C13   C116  A    
C42   H47   S    
C82   C91   A    
C110  H1    S    
C45   C53   A    
C71   C88   S    
C95   H3    S    
C62   H41   S    
C33   C68   S    
C79   C114  A    
Cu4   O14   S    
C3    C10   A    
C13   H23   S    
C31   C36   A    
C33   O2    A    
C44   C67   S    
C8    H18   S    
C36   N5    A    
C82   C117  A    
C20   N11   T    
C58   H37   S    
C76   C85   A    
C28   C112  A    
C66   O12   A    
C102  C119  A    
C8    C119  A    
C47   C56   A    
C98   C107  A    
C1    O1    A    
