data_mof_unit_3231.cif
_audit_creation_date              2012-12-11T16:18:08-0500
_audit_creation_method            fapswitch 2.2
_symmetry_space_group_name_H-M    P1
_symmetry_Int_Tables_number       1
_space_group_crystal_system       triclinic
_cell_length_a                    14.065641
_cell_length_b                    14.033916
_cell_length_c                    30.149537
_cell_angle_alpha                 97.129234
_cell_angle_beta                  97.389477
_cell_angle_gamma                 61.311295
_cell_volume                      5164.12835365

loop_
_atom_site_label
_atom_site_type_symbol
_atom_type_description
_atom_site_fract_x
_atom_site_fract_y
_atom_site_fract_z
_atom_type_partial_charge
C1    C     C_R   0.385607 0.710424 0.442189 0.579782
C2    C     C_R   0.803778 0.260779 0.379854 0.011169
C3    C     C_3   0.671793 0.591269 0.709287 -0.148229
C4    C     C_2   0.483837 0.145675 0.200231 0.271561
C5    C     C_2   0.668569 0.474198 0.801862 0.269529
C6    C     C_3   0.023266 0.074724 0.688128 -0.064575
C7    C     C_2   0.391488 0.612555 0.705435 0.234886
C8    C     C_2   0.368483 0.658489 0.800916 0.206618
C9    C     C_2   0.272832 0.052124 0.783903 0.212932
C10   C     C_3   0.409122 0.994681 0.692713 -0.116861
C11   C     C_2   0.766362 0.483977 0.081674 0.277359
C12   C     C_2   0.763983 0.506962 0.182395 0.244319
C13   C     C_R   0.832742 0.241762 0.334915 0.000591
C14   C     C_2   0.829290 0.510062 0.318953 0.183292
C15   C     C_2   0.800383 0.173807 0.401974 0.317684
C16   C     C_R   0.398778 0.381285 0.426443 0.554102
C17   C     C_R   0.834354 0.326264 0.314303 -0.037992
C18   C     C_R   0.819937 0.423429 0.339120 0.014773
C19   C     C_R   0.792045 0.440483 0.383153 -0.113116
C20   C     C_R   0.816371 0.399321 0.156838 -0.000949
C21   C     C_R   0.830518 0.390160 0.110329 0.006514
C22   C     C_R   0.941552 0.193542 0.114378 -0.127794
C23   C     C_R   0.918415 0.201047 0.158542 0.266135
C24   C     C_R   0.396942 0.241570 0.223762 -0.024956
C25   C     C_R   0.860824 0.303956 0.180282 -0.012282
C26   C     C_1   0.852905 0.310122 0.227569 -0.005984
C27   C     C_1   0.846166 0.315818 0.267093 -0.057358
C28   C     C_R   0.712188 0.404398 0.443028 0.565357
C29   C     C_R   0.901571 0.286828 0.090409 -0.083063
C30   C     C_R   0.364651 0.764077 0.400561 -0.049316
C31   C     C_R   0.423893 0.816488 0.392066 0.278385
C32   C     C_R   0.417192 0.846854 0.348409 0.253798
C33   C     C_R   0.350085 0.825202 0.314211 -0.006902
C34   C     C_R   0.287125 0.778473 0.323471 0.217600
C35   C     C_R   0.401821 0.250184 0.270707 -0.125898
C36   C     C_R   0.295341 0.747607 0.366347 -0.158794
C37   C     C_R   0.251061 0.848193 0.155654 0.250888
C38   C     C_R   0.232620 0.870075 0.110534 -0.121918
C39   C     C_R   0.384484 0.909396 0.118415 -0.110658
C40   C     C_R   0.389660 0.711878 0.568086 0.560296
C41   C     C_R   0.402865 0.888812 0.163634 0.225776
C42   C     C_R   0.332646 0.863407 0.182513 0.052086
C43   C     C_1   0.342188 0.855001 0.229624 0.076273
C44   C     C_1   0.347268 0.844999 0.268742 0.059798
C45   C     C_R   0.296857 0.904266 0.092038 -0.061895
C46   C     C_R   0.322554 0.339926 0.293854 -0.035841
C47   C     C_R   0.370823 0.364523 0.593982 0.000090
C48   C     C_R   0.446404 0.335484 0.632083 -0.011841
C49   C     C_R   0.416686 0.318972 0.671388 -0.102676
C50   C     C_R   0.313444 0.331845 0.674203 -0.070195
C51   C     C_R   0.236856 0.357893 0.636653 0.032552
C52   C     C_R   0.403013 0.383282 0.552576 0.561311
C53   C     C_R   0.264672 0.379359 0.596629 0.284205
C54   C     C_R   0.197106 0.388064 0.827262 0.297524
C55   C     C_R   0.199227 0.384135 0.873623 0.271238
C56   C     C_R   0.380088 0.228377 0.872973 -0.104147
C57   C     C_R   0.310024 0.325366 0.199918 -0.044110
C58   C     C_R   0.381564 0.235732 0.827182 -0.005390
C59   C     C_R   0.287484 0.313620 0.804119 -0.033246
C60   C     C_1   0.284198 0.320049 0.756882 -0.010086
C61   C     C_1   0.290159 0.325029 0.718082 -0.043852
C62   C     C_R   0.287660 0.297924 0.895983 -0.041847
C63   C     C_1   0.768530 0.374806 0.611572 0.043033
C64   C     C_R   0.715171 0.406824 0.568049 0.551884
C65   C     C_R   0.744438 0.415996 0.726850 0.216189
C66   C     C_R   0.756941 0.398073 0.772830 0.017774
C67   C     C_R   0.932262 0.238501 0.760556 -0.165262
C68   C     C_1   0.300328 0.316775 0.151634 -0.044381
C69   C     C_R   0.916459 0.252055 0.714224 0.237381
C70   C     C_R   0.822728 0.341802 0.697695 0.075212
C71   C     C_R   0.853097 0.309095 0.789636 -0.044491
C72   C     C_1   0.878891 0.293898 0.837014 0.029147
C73   C     C_1   0.800135 0.355846 0.650169 0.089505
C74   C     C_1   0.907138 0.282280 0.876318 0.052648
C75   C     C_1   0.375304 0.758781 0.613207 0.040429
C76   C     C_1   0.363738 0.363343 0.381104 0.005919
C77   C     C_R   0.364944 0.723853 0.726363 -0.047515
C78   C     C_R   0.356082 0.745684 0.773257 -0.051231
C79   C     C_1   0.341394 0.351923 0.341662 -0.020660
C80   C     C_R   0.311118 0.936242 0.765960 0.007652
C81   C     C_R   0.326643 0.911582 0.719817 0.208721
C82   C     C_R   0.350987 0.807316 0.700067 0.022739
C83   C     C_R   0.328923 0.851948 0.792933 0.003362
C84   C     C_1   0.310827 0.876757 0.840115 0.098659
C85   C     C_1   0.363751 0.785688 0.652468 0.051412
C86   C     C_1   0.291704 0.904312 0.878796 0.082205
C87   C     C_R   0.950514 0.272896 0.048060 0.521906
C88   C     C_R   0.234089 0.422261 0.270186 0.313404
C89   C     C_R   0.275393 0.269928 0.065489 0.538556
C90   C     C_1   0.290390 0.301246 0.111617 -0.012557
C91   C     C_R   0.260466 0.954917 0.049097 0.550033
C92   C     C_R   0.952845 0.268926 0.921842 0.556770
C93   C     C_R   0.275144 0.265824 0.938900 0.559044
C94   C     C_R   0.261145 0.951050 0.922922 0.558637
C95   C     C_R   0.227650 0.414259 0.223041 0.302879
C96   C     C_3   0.090021 0.492606 0.313612 -0.089763
C97   C     C_3   0.918812 0.041950 0.167373 -0.088359
C98   C     C_2   0.861315 0.135061 0.308745 0.212797
C99   C     C_3   0.217457 0.712015 0.168403 -0.088232
C100  C     C_3   0.117493 0.831586 0.289829 -0.026639
C101  C     C_R   0.775006 0.364740 0.402644 -0.018090
C102  C     C_3   0.595589 0.775312 0.423356 -0.035354
C103  C     C_3   0.582298 0.813353 0.185544 -0.062206
C104  C     C_3   0.057787 0.474419 0.188149 -0.076584
C105  C     C_3   0.561728 0.834146 0.315672 -0.103711
C106  C     C_3   0.128688 0.544311 0.915498 -0.074717
C107  C     C_3   0.032264 0.429036 0.790797 -0.086065
C108  C     C_2   0.130611 0.360702 0.639564 0.262743
C109  C     C_3   0.120970 0.524219 0.565075 -0.054533
C110  C     C_2   0.553220 0.332710 0.633385 0.286953
C111  C     C_2   0.480030 0.158947 0.803587 0.247764
Cr1   Cr    Cr6+3 0.581000 0.584320 0.508140 1.039017
Cr2   Cr    Cr6+3 0.339110 0.576430 0.496080 1.048625
Cr3   Cr    Cr6+3 0.579910 0.339270 0.495810 1.088284
Cr4   Cr    Cr6+3 0.082090 0.079210 0.982490 1.038655
Cr5   Cr    Cr6+3 0.082460 0.324610 0.994920 1.063114
Cr6   Cr    Cr6+3 0.323630 0.087860 0.996130 1.051851
H1    H     H_    0.997023 0.114198 0.099811 0.154794
H2    H     H_    0.126262 0.465055 0.347537 0.139100
H3    H     H_    0.069529 0.431233 0.293979 0.087965
H4    H     H_    0.012663 0.568769 0.317988 0.187904
H5    H     H_    0.828645 0.087314 0.167892 0.112192
H6    H     H_    0.949308 0.975289 0.190192 0.173864
H7    H     H_    0.942296 0.003743 0.133242 0.125525
H8    H     H_    0.848428 0.131229 0.272451 0.141548
H9    H     H_    0.300486 0.665658 0.185069 0.141164
H10   H     H_    0.215830 0.684736 0.132159 0.109552
H11   H     H_    0.161999 0.692986 0.184110 0.199132
H12   H     H_    0.163985 0.866680 0.090941 0.145261
H13   H     H_    0.107846 0.913141 0.284764 0.161785
H14   H     H_    0.083174 0.834111 0.321480 0.162666
H15   H     H_    0.069738 0.811149 0.261702 0.167553
H16   H     H_    0.616200 0.693861 0.405730 0.106468
H17   H     H_    0.637161 0.760951 0.457580 0.139551
H18   H     H_    0.628808 0.817419 0.406436 0.164697
H19   H     H_    0.581755 0.740436 0.196186 0.130750
H20   H     H_    0.645094 0.826348 0.207646 0.181075
H21   H     H_    0.605955 0.798751 0.150517 0.171592
H22   H     H_    0.018002 0.478492 0.218347 0.139564
H23   H     H_    0.251589 0.704833 0.371977 0.178965
H24   H     H_    0.083544 0.393669 0.169214 0.112398
H25   H     H_    0.996083 0.536784 0.166052 0.186610
H26   H     H_    0.538754 0.844714 0.279408 0.162045
H27   H     H_    0.598297 0.746307 0.321954 0.119491
H28   H     H_    0.625832 0.859170 0.325092 0.172335
H29   H     H_    0.141304 0.586877 0.889807 0.149192
H30   H     H_    0.199457 0.514812 0.940999 0.102945
H31   H     H_    0.056324 0.604666 0.932970 0.144935
H32   H     H_    0.002483 0.412546 0.819917 0.161297
H33   H     H_    0.067578 0.354647 0.767505 0.113571
H34   H     H_    0.434321 0.936900 0.105052 0.155374
H35   H     H_    0.960924 0.492408 0.772316 0.133972
H36   H     H_    0.104444 0.360623 0.671881 0.115997
H37   H     H_    0.068329 0.551065 0.533611 0.145352
H38   H     H_    0.166875 0.571351 0.571750 0.135441
H39   H     H_    0.067017 0.544629 0.592480 0.137843
H40   H     H_    0.564066 0.382647 0.612108 0.132698
H41   H     H_    0.483081 0.163702 0.768215 0.099283
H42   H     H_    0.737091 0.571984 0.687116 0.127107
H43   H     H_    0.693167 0.617695 0.743757 0.110961
H44   H     H_    0.596834 0.660900 0.695873 0.148794
H45   H     H_    0.449188 0.164033 0.890196 0.199761
H46   H     H_    0.480238 0.135693 0.163908 0.118884
H47   H     H_    0.601777 0.547579 0.788796 0.151492
H48   H     H_    0.950206 0.063047 0.687832 0.128948
H49   H     H_    0.079358 0.041594 0.718254 0.118977
H50   H     H_    0.067254 0.026558 0.658458 0.178107
H51   H     H_    0.443192 0.541326 0.723973 0.135076
H52   H     H_    0.344768 0.597520 0.786500 0.112551
H53   H     H_    0.247985 0.115365 0.761038 0.155613
H54   H     H_    0.395076 0.061575 0.672351 0.161365
H55   H     H_    0.471758 0.917265 0.677123 0.120470
H56   H     H_    0.473396 0.300595 0.701085 0.165431
H57   H     H_    0.439937 0.011424 0.727073 0.117247
H58   H     H_    0.788002 0.481388 0.048221 0.133098
H59   H     H_    0.714190 0.519312 0.209387 0.085880
H60   H     H_    0.851434 0.498691 0.284818 0.112956
H61   H     H_    0.763665 0.126145 0.384012 0.138266
H62   H     H_    0.007606 0.173964 0.774282 0.132025
H63   H     H_    0.469549 0.188180 0.289597 0.186445
H64   H     H_    0.776543 0.517301 0.401428 0.174256
O1    O     O_R   0.688580 0.499770 0.460490 -0.536204
O2    O     O_R   0.346150 0.177650 0.050510 -0.515589
O3    O     O_R   0.314200 0.996600 0.036060 -0.499584
O4    O     O_R   0.480400 0.672610 0.462660 -0.475991
O5    O     O_R   0.168690 0.969990 0.933130 -0.509920
O6    O     O_R   0.991920 0.175870 0.937430 -0.494627
O7    O     O_R   0.974010 0.342590 0.941330 -0.478420
O8    O     O_R   0.182630 0.317940 0.955040 -0.450929
O9    O     O_R   0.347320 0.174720 0.953250 -0.511641
O10   O     O_R   0.315290 0.993890 0.945900 -0.478496
O11   O     O_3   0.162730 0.163890 0.991180 -0.256943
O12   O     O_R   0.348600 0.476260 0.536540 -0.485204
O13   O     O_R   0.315310 0.685650 0.451800 -0.515600
O14   O     O_R   0.346220 0.474990 0.446280 -0.494727
O15   O     O_R   0.492270 0.312460 0.441630 -0.499731
O16   O     O_R   0.669740 0.350480 0.455640 -0.463126
O17   O     O_R   0.691150 0.501150 0.557860 -0.503722
O18   O     O_R   0.482790 0.673890 0.552920 -0.498832
O19   O     O_R   0.317880 0.687030 0.549170 -0.496179
O20   O     O_3   0.159048 0.516235 0.292157 -0.529376
O21   O     O_3   0.966638 0.109402 0.182866 -0.547774
O22   O     O_2   0.903427 0.049709 0.327054 -0.540189
O23   O     O_R   0.494840 0.313840 0.539010 -0.514453
O24   O     O_3   0.180687 0.825126 0.174612 -0.568146
O25   O     O_3   0.227105 0.750986 0.289266 -0.547966
O26   O     O_3   0.483041 0.842745 0.427201 -0.524981
O27   O     O_3   0.480960 0.906628 0.190442 -0.562657
O28   O     O_3   0.144973 0.498208 0.199708 -0.556712
O29   O     O_3   0.471441 0.902839 0.340655 -0.535882
O30   O     O_3   0.108985 0.458525 0.895542 -0.529262
O31   O     O_3   0.107573 0.468188 0.804894 -0.545040
O32   O     O_2   0.072322 0.359835 0.605982 -0.445601
O33   O     O_3   0.190575 0.410908 0.559492 -0.514444
O34   O     O_R   0.672120 0.351750 0.545910 -0.491277
O35   O     O_2   0.629231 0.276328 0.658976 -0.515114
O36   O     O_2   0.559558 0.089087 0.823448 -0.490935
O37   O     O_3   0.651157 0.502398 0.709548 -0.591686
O38   O     O_2   0.561212 0.076277 0.221228 -0.493977
O39   O     O_2   0.667415 0.455764 0.840244 -0.468641
O40   O     O_3   0.995289 0.184843 0.685139 -0.548484
O41   O     O_2   0.353829 0.599186 0.667815 -0.526682
O42   O     O_2   0.407240 0.652315 0.839743 -0.478201
O43   O     O_2   0.268391 0.079439 0.823915 -0.542049
O44   O     O_3   0.310035 0.992339 0.692947 -0.574548
O45   O     O_3   0.500010 0.500010 0.500010 -0.273813
O46   O     O_2   0.683572 0.563141 0.093794 -0.487591
O47   O     O_2   0.781289 0.580729 0.175186 -0.527659
O48   O     O_2   0.812995 0.595538 0.340419 -0.565367
O49   O     O_2   0.841471 0.152797 0.440091 -0.465582
O50   O     O_R   0.167510 0.972920 0.030390 -0.521533
O51   O     O_R   0.990840 0.178580 0.027590 -0.498554
O52   O     O_R   0.972840 0.345510 0.038590 -0.524084
O53   O     O_R   0.181550 0.320660 0.045200 -0.494638

loop_
_geom_bond_atom_site_label_1
_geom_bond_atom_site_label_2
_ccdc_geom_bond_type
C10   H57   S    
C48   C110  S    
Cr5   O8    S    
C6    H49   S    
C53   O33   S    
C22   C29   A    
C64   O17   A    
C41   C42   A    
C14   C18   S    
C64   O34   A    
C76   C79   T    
C97   O21   S    
C7    H51   S    
C19   H64   S    
C105  H27   S    
C49   H56   S    
C81   C82   A    
Cr6   O3    S    
C96   O20   S    
C39   C41   A    
C93   O9    A    
C34   O25   S    
Cr5   O7    S    
C26   C27   T    
C37   C38   A    
C81   O44   S    
C96   H4    S    
C99   O24   S    
C89   O2    A    
C111  H41   S    
C84   C86   T    
Cr4   O5    S    
C97   H7    S    
C103  H20   S    
C65   O37   S    
C4    C24   S    
C100  H13   S    
C12   O47   D    
C5    O39   D    
C20   C25   A    
C106  O30   S    
C10   H55   S    
C65   C70   A    
C55   C62   A    
C39   H34   S    
C37   C42   A    
C106  H31   S    
C18   C19   A    
Cr2   O13   S    
C74   C92   S    
C13   C98   S    
C2    C13   A    
C109  H39   S    
C28   O1    A    
C102  H18   S    
C14   O48   D    
Cr6   O10   S    
C94   O10   A    
C107  H33   S    
C28   C101  S    
C75   C85   T    
C98   H8    S    
C108  H36   S    
C66   C71   A    
C56   C58   A    
C51   C108  S    
C38   C45   A    
Cr3   O16   S    
Cr5   O52   S    
C10   O44   S    
C68   C90   T    
C88   O20   S    
C86   C94   S    
C102  O26   S    
Cr1   O18   S    
Cr4   O50   S    
C108  O32   D    
C12   H59   S    
C6    O40   S    
C54   O31   S    
Cr4   O6    S    
Cr5   O11   S    
C6    H48   S    
C59   C60   S    
C91   O3    A    
C3    H43   S    
C3    H42   S    
Cr2   O14   S    
C9    H53   S    
Cr2   O12   S    
C104  O28   S    
C80   C83   A    
C45   C91   S    
C78   C83   A    
C10   H54   S    
Cr1   O17   S    
C50   C51   A    
C99   H9    S    
C46   C88   A    
C54   C59   A    
C92   O6    A    
C24   C35   A    
Cr1   O45   S    
C23   O21   S    
C58   C111  S    
C17   C27   S    
C38   H12   S    
C98   O22   D    
C8    C78   S    
C103  O27   S    
C72   C74   T    
C109  O33   S    
Cr6   O9    S    
C103  H21   S    
Cr1   O4    S    
C7    O41   D    
C100  O25   S    
C24   C57   A    
Cr1   O1    S    
C107  O31   S    
C63   C73   T    
C2    C101  A    
C25   C26   S    
C77   C78   A    
C21   C29   A    
C39   C45   A    
C11   C21   S    
C105  O29   S    
C63   C64   S    
C56   H45   S    
C91   O50   A    
C60   C61   T    
C51   C53   A    
C9    C80   S    
C95   O28   S    
C89   O53   A    
C110  O35   D    
C103  H19   S    
C102  H17   S    
C40   C75   S    
C31   O26   S    
C97   H5    S    
C16   O15   A    
Cr6   O11   S    
Cr3   O45   S    
C32   O29   S    
C83   C84   S    
C30   C31   A    
C4    O38   D    
C105  H28   S    
C12   C20   S    
C70   C73   S    
C100  H15   S    
C17   C18   A    
C4    H46   S    
C2    C15   S    
C36   H23   S    
Cr4   O51   S    
C47   C52   S    
C8    O42   D    
Cr3   O15   S    
C107  H35   S    
C48   C49   A    
C49   C50   A    
C96   H2    S    
C1    O4    A    
C104  H24   S    
C15   O49   D    
C57   C95   A    
C7    C77   S    
C56   C62   A    
C15   H61   S    
C42   C43   S    
Cr4   O11   S    
C57   C68   S    
C8    H52   S    
C100  H14   S    
C67   C69   A    
C35   H63   S    
C22   H1    S    
C54   C55   A    
Cr3   O23   S    
C16   C76   S    
C33   C44   S    
C37   O24   S    
Cr3   O34   S    
C96   H3    S    
C31   C32   A    
C109  H37   S    
C52   O12   A    
C94   O5    A    
C80   C81   A    
C47   C48   A    
C106  H29   S    
C105  H26   S    
C99   H10   S    
Cr6   O2    S    
C88   C95   A    
C99   H11   S    
C40   O18   A    
C93   O8    A    
C82   C85   S    
C40   O19   A    
C5    H47   S    
C67   C71   A    
C11   H58   S    
C28   O16   A    
C87   O52   A    
C104  H22   S    
C30   C36   A    
C32   C33   A    
C41   O27   S    
C1    O13   A    
C58   C59   A    
C102  H16   S    
C71   C72   S    
C97   H6    S    
C16   O14   A    
C67   H62   S    
C5    C66   S    
C19   C101  A    
C9    O43   D    
Cr2   O45   S    
C46   C79   S    
C77   C82   A    
C43   C44   T    
C3    O37   S    
C47   C53   A    
C1    C30   S    
Cr2   O19   S    
C33   C34   A    
C104  H25   S    
C23   C25   A    
C69   C70   A    
C109  H38   S    
C29   C87   S    
C14   H60   S    
C110  H40   S    
C3    H44   S    
C55   O30   S    
C13   C17   A    
C107  H32   S    
C20   C21   A    
C34   C36   A    
C11   O46   D    
C65   C66   A    
C106  H30   S    
C62   C93   S    
Cr5   O53   S    
C50   C61   S    
C22   C23   A    
C111  O36   D    
C69   O40   S    
C52   O23   A    
C89   C90   S    
C6    H50   S    
C35   C46   A    
C92   O7    A    
C87   O51   A    
