data_mof_unit_1645.cif
_audit_creation_date              2012-12-10T18:44:25-0500
_audit_creation_method            fapswitch 2.2
_symmetry_space_group_name_H-M    P1
_symmetry_Int_Tables_number       1
_space_group_crystal_system       triclinic
_cell_length_a                    12.83763
_cell_length_b                    10.688719
_cell_length_c                    9.880357
_cell_angle_alpha                 90.056351
_cell_angle_beta                  97.493373
_cell_angle_gamma                 89.636389
_cell_volume                      1344.15569608

loop_
_atom_site_label
_atom_site_type_symbol
_atom_type_description
_atom_site_fract_x
_atom_site_fract_y
_atom_site_fract_z
_atom_type_partial_charge
C1    C     C_R   0.499947 0.260060 0.499895 0.853430
C2    C     C_R   0.500075 0.739940 0.500110 0.856712
C3    C     C_R   0.500235 0.872419 0.500202 -0.009550
C4    C     C_R   0.499833 0.127584 0.499826 -0.010786
C5    C     C_R   0.431880 0.582494 0.059438 -0.198945
C6    C     C_R   0.565691 0.420495 0.936708 -0.035903
C7    C     C_R   0.435047 0.578626 0.916571 0.008030
C8    C     C_R   0.567747 0.418073 0.079798 -0.120999
C9    C     C_R   0.298756 0.497732 0.473039 0.889046
C10   C     C_R   0.701244 0.502249 0.526960 0.885520
C11   C     C_R   0.812870 0.497205 0.543553 -0.073100
C12   C     C_R   0.187132 0.502827 0.456440 -0.073071
C13   C     C_R   0.036765 0.633643 0.395093 -0.224167
C14   C     C_R   0.963261 0.366455 0.604992 -0.222530
C15   C     C_R   0.140678 0.606912 0.388956 -0.252514
C16   C     C_R   0.859359 0.393211 0.611183 -0.257232
C17   C     C_R   0.130181 0.417933 0.526246 0.095292
C18   C     C_R   0.869793 0.582046 0.473629 0.096403
C19   C     C_R   0.023562 0.445186 0.532885 0.121276
C20   C     C_R   0.976435 0.554854 0.467090 0.121059
C21   C     C_R   0.535779 0.063707 0.391413 -0.192475
C22   C     C_R   0.464308 0.936297 0.608627 -0.193113
C23   C     C_R   0.536055 0.935475 0.391647 -0.200512
C24   C     C_R   0.464037 0.064528 0.608397 -0.205256
H1    H     H_    0.813223 0.328143 0.662616 0.155018
H2    H     H_    0.186840 0.672042 0.337647 0.160796
H3    H     H_    0.006202 0.718275 0.344939 0.163655
H4    H     H_    0.993857 0.281876 0.655240 0.163209
H5    H     H_    0.564536 0.112597 0.307796 0.151519
H6    H     H_    0.435548 0.887410 0.692243 0.151584
H7    H     H_    0.565031 0.885933 0.308214 0.159703
H8    H     H_    0.435069 0.114067 0.691838 0.158131
H9    H     H_    0.462583 0.545272 0.151868 0.303478
H10   H     H_    0.616988 0.358456 0.888993 0.124663
H11   H     H_    0.383607 0.640886 0.852191 0.131871
H12   H     H_    0.620102 0.354796 0.141648 0.146567
N1    N     N_R   0.499970 0.499970 0.857200 -0.096929
N2    N     N_R   0.500030 0.500030 0.142800 -0.259593
O1    O     O_R   0.499990 0.316750 0.614620 -0.628994
O2    O     O_R   0.500010 0.683250 0.385380 -0.629366
O3    O     O_R   0.499990 0.316780 0.385290 -0.620423
O4    O     O_R   0.500010 0.683220 0.614710 -0.627113
O5    O     O_R   0.346360 0.499970 0.595710 -0.618478
O6    O     O_R   0.653640 0.500030 0.404290 -0.612816
O7    O     O_R   0.346360 0.499990 0.366380 -0.621665
O8    O     O_R   0.653640 0.500010 0.633620 -0.621884
Zn1   Zn    Zn3+2 0.500000 0.499980 0.653120 0.934230
Zn2   Zn    Zn3+2 0.500000 0.500020 0.346880 0.931374
C25   C     C_3   0.817083 0.701723 0.411966 -0.415243
C26   C     C_3   0.788524 0.693439 0.256676 -0.816111
H13   H     H_    0.729138 0.620007 0.228470 0.286765
H14   H     H_    0.754841 0.784335 0.217417 0.233756
H15   H     H_    0.858013 0.671879 0.204833 0.246128
H16   H     H_    0.744382 0.724052 0.457172 0.196584
H17   H     H_    0.868382 0.783597 0.439128 0.190645
C27   C     C_3   0.182786 0.298063 0.587534 -0.415144
C28   C     C_3   0.211501 0.305964 0.742823 -0.815558
H18   H     H_    0.244090 0.214551 0.781955 0.233906
H19   H     H_    0.271801 0.378321 0.771044 0.284096
H20   H     H_    0.142334 0.328801 0.794766 0.247027
H21   H     H_    0.131320 0.216353 0.560247 0.191012
H22   H     H_    0.255392 0.275688 0.542129 0.196980

loop_
_geom_bond_atom_site_label_1
_geom_bond_atom_site_label_2
_ccdc_geom_bond_type
C12   C17   A    
C10   O8    A    
C26   H14   S    
C24   H8    S    
C11   C18   A    
C9    O7    A    
C14   C16   A    
N1    Zn1   S    
C11   C16   A    
C3    C23   A    
C19   C20   A    
C12   C15   A    
C1    C4    S    
C6    H10   S    
C15   H2    S    
C13   C15   A    
C2    C3    S    
C7    N1    A    
C6    N1    A    
C25   H17   S    
C5    N2    A    
C4    C21   A    
C17   C27   S    
C28   H18   S    
C21   H5    S    
C8    N2    A    
C2    O4    A    
C1    O3    A    
C17   C19   A    
O3    Zn2   S    
N2    Zn2   S    
C26   H13   S    
C22   C24   A    
O4    Zn1   S    
C21   C23   A    
C4    C24   A    
C9    C12   S    
C27   H22   S    
C28   H19   S    
C26   H15   S    
C9    O5    A    
C10   C11   S    
C1    O1    A    
C10   O6    A    
C25   H16   S    
C2    O2    A    
C7    H11   S    
C27   C28   S    
C18   C20   A    
O1    Zn1   S    
C25   C26   S    
C8    H12   S    
O7    Zn2   S    
C16   H1    S    
C5    C7    A    
O2    Zn2   S    
O8    Zn1   S    
C13   H3    S    
C3    C22   A    
C6    C8    A    
C22   H6    S    
C13   C20   A    
C14   H4    S    
C27   H21   S    
O5    Zn1   S    
C14   C19   A    
O6    Zn2   S    
C18   C25   S    
C23   H7    S    
C28   H20   S    
C5    H9    S    
