data_mof_unit_2034.cif
_audit_creation_date              2013-03-05T16:00:37-0500
_audit_creation_method            fapswitch 2.2
_symmetry_space_group_name_H-M    P1
_symmetry_Int_Tables_number       1
_space_group_crystal_system       triclinic
_cell_length_a                    10.741715
_cell_length_b                    14.718462
_cell_length_c                    14.727718
_cell_angle_alpha                 65.061813
_cell_angle_beta                  103.609011
_cell_angle_gamma                 102.699912
_cell_volume                      2032.78050351

loop_
_atom_site_label
_atom_site_type_symbol
_atom_site_description
_atom_site_fract_x
_atom_site_fract_y
_atom_site_fract_z
_atom_type_partial_charge
O1    O     O_R   0.455060 0.022100 0.338110 -0.608803
O2    O     O_R   0.512640 0.160150 0.379180 -0.568994
C1    C     C_R   0.479676 0.119620 0.312324 0.803876
O3    O     O_R   0.288900 0.930980 0.479450 -0.591301
O4    O     O_R   0.346480 0.069030 0.520520 -0.591168
C2    C     C_R   0.259869 0.001910 0.497413 0.782413
Cu1   Cu    Cu3+1 0.465900 0.918260 0.475680 0.941971
Cu2   Cu    Cu3+1 0.534100 0.081740 0.524320 0.965623
O5    O     O_R   0.487360 0.839850 0.620820 -0.586405
O6    O     O_R   0.544940 0.977900 0.661890 -0.592061
O7    O     O_R   0.653520 0.930970 0.479480 -0.602624
O8    O     O_R   0.711100 0.069020 0.520550 -0.563681
C3    C     C_R   0.522647 0.880319 0.687741 0.850908
C4    C     C_R   0.738991 0.002001 0.495775 0.812532
C5    C     C_3   0.035964 0.921635 0.457687 -0.311979
H1    H     H_    0.056996 0.845136 0.513788 0.187216
H2    H     H_    0.062861 0.929785 0.385990 0.210695
C6    C     C_3   0.891006 0.927489 0.446103 -0.122328
H3    H     H_    0.846005 0.850913 0.491256 0.160887
H4    H     H_    0.138309 0.909405 0.657961 0.199766
C7    C     C_3   0.098893 0.979986 0.602842 -0.430513
C8    C     C_3   0.080565 0.108283 0.421220 -0.453314
C9    C     C_3   0.121619 0.003357 0.494795 0.049887
H5    H     H_    0.147511 0.169903 0.439434 0.174890
H6    H     H_    0.087631 0.121049 0.342385 0.178466
C10   C     C_3   0.876348 0.003238 0.491852 -0.108391
C11   C     C_3   0.952815 0.972452 0.603204 0.166193
C12   C     C_3   0.941072 0.112790 0.430091 -0.175852
H7    H     H_    0.949814 0.159521 0.474966 0.177820
H8    H     H_    0.153253 0.041609 0.627477 0.154340
H9    H     H_    0.942911 0.028097 0.633282 0.103317
C13   C     C_R   0.478497 0.187239 0.205176 -0.041821
C14   C     C_R   0.540204 0.812558 0.795513 -0.027616
C15   C     C_R   0.480511 0.216962 0.031059 -0.181358
C16   C     C_R   0.471245 0.149975 0.130697 -0.196662
C17   C     C_R   0.493845 0.291621 0.178945 -0.187814
C18   C     C_R   0.510028 0.360792 0.080342 0.091200
C19   C     C_R   0.499858 0.321809 0.005362 0.153833
C20   C     C_R   0.534135 0.467258 0.054121 0.064399
C21   C     C_R   0.533884 0.533528 0.950501 0.064513
C22   C     C_R   0.524882 0.491464 0.878195 -0.169096
C23   C     C_R   0.509476 0.387668 0.905617 -0.219499
C24   C     C_R   0.561334 0.509585 0.128227 -0.199583
C25   C     C_R   0.580063 0.613411 0.101158 -0.215115
C26   C     C_R   0.569992 0.678935 0.999540 0.156272
C27   C     C_R   0.544879 0.639778 0.923031 0.095543
C28   C     C_R   0.584027 0.783589 0.973575 -0.178043
C29   C     C_R   0.570109 0.850119 0.872118 -0.169666
C30   C     C_R   0.527509 0.708300 0.821385 -0.175734
H10   H     H_    0.503861 0.358779 0.847904 0.150445
H11   H     H_    0.500164 0.682022 0.760597 0.142587
H12   H     H_    0.580931 0.930575 0.853720 0.151124
H13   H     H_    0.600778 0.642541 0.160379 0.153173
H14   H     H_    0.473984 0.186824 0.974202 0.137051
H15   H     H_    0.459864 0.069395 0.149571 0.153271
H16   H     H_    0.491226 0.317077 0.236967 0.138966
H17   H     H_    0.533313 0.536689 0.799792 0.167786
H18   H     H_    0.572847 0.464690 0.208580 0.153451
H19   H     H_    0.604760 0.813902 0.031863 0.142807
N1    N     N_R   0.585360 0.204570 0.560800 -0.177891
N2    N     N_R   0.414550 0.795430 0.439160 -0.181737
C31   C     C_R   0.709182 0.278094 0.675649 -0.306844
C32   C     C_R   0.676316 0.198487 0.643622 0.085862
C33   C     C_R   0.524268 0.288050 0.506547 0.024179
C34   C     C_R   0.555882 0.373348 0.533772 -0.016850
C35   C     C_R   0.649222 0.365501 0.621161 0.113909
C36   C     C_R   0.498392 0.464723 0.478411 0.080916
C37   C     C_R   0.532353 0.546103 0.513607 -0.015902
C38   C     C_R   0.635886 0.537247 0.597140 -0.077422
C39   C     C_R   0.686962 0.446093 0.651749 -0.185845
C40   C     C_R   0.411346 0.478430 0.386844 -0.223372
C41   C     C_R   0.354904 0.566138 0.332711 -0.190497
C42   C     C_R   0.377944 0.642370 0.369259 0.174921
C43   C     C_R   0.462966 0.632814 0.461506 -0.030157
C44   C     C_R   0.315176 0.728294 0.313958 -0.308718
C45   C     C_R   0.337127 0.805191 0.349323 0.075176
C46   C     C_R   0.470501 0.709921 0.497599 -0.020042
H20   H     H_    0.764072 0.439907 0.715874 0.185163
H21   H     H_    0.518370 0.703255 0.572256 0.135178
H22   H     H_    0.293332 0.873465 0.304411 0.132682
H23   H     H_    0.290269 0.573503 0.261995 0.150290
H24   H     H_    0.781838 0.271628 0.742293 0.145581
H25   H     H_    0.722428 0.130936 0.685592 0.133328
H26   H     H_    0.450133 0.284900 0.444144 0.112293
H27   H     H_    0.386905 0.423437 0.352951 0.126951
H28   H     H_    0.251441 0.736850 0.242676 0.148043
C47   C     C_2   0.819078 0.949796 0.338152 0.281715
H29   H     H_    0.714757 0.946229 0.322922 0.110560
O9    O     O_2   0.874848 0.970834 0.267025 -0.562575
C48   C     C_2   0.709528 0.624084 0.620950 0.367351
H30   H     H_    0.722813 0.698074 0.560639 0.077205
O10   O     O_2   0.757124 0.613412 0.708158 -0.483796
N3    N     N_R   0.901555 0.871802 0.671799 0.129347
O11   O     O_R   0.934331 0.790287 0.675214 -0.346762
O12   O     O_R   0.835813 0.864096 0.739063 -0.366861
C49   C     C_2   0.864305 0.167577 0.327537 0.345875
H31   H     H_    0.861304 0.148722 0.263435 0.126163
O13   O     O_2   0.806960 0.236014 0.315042 -0.535214

loop_
_geom_bond_atom_site_label_1
_geom_bond_atom_site_label_2
_geom_bond_distance
_ccdc_geom_bond_type
C5    C6    1.543585 S    
C47   H29   1.083766 S    
N3    O11   1.300940 A    
C39   H20   1.085734 S    
C42   C43   1.418118 A    
C6    C10   1.575556 S    
C24   C25   1.386907 A    
Cu1   Cu2   2.696488 S    
C26   C27   1.418040 A    
Cu1   O7    1.972254 S    
C27   C30   1.403967 A    
C10   C11   1.572435 S    
C18   C19   1.417952 A    
N1    C32   1.354986 A    
C13   C17   1.398171 A    
C17   C18   1.403504 A    
C19   C23   1.390993 A    
O4    C2    1.299117 A    
O7    C4    1.295906 A    
C37   C43   1.447898 A    
C5    H1    1.113984 S    
Cu1   O5    1.938829 S    
C15   C16   1.393156 A    
C22   C23   1.387230 A    
O5    C3    1.299945 A    
C33   H26   1.075287 S    
C24   H18   1.077045 S    
O1    Cu1   1.952030 S    
C40   H27   1.076498 S    
C25   H13   1.084501 S    
Cu1   N2    2.025794 S    
N2    C46   1.364425 A    
C37   C38   1.432473 A    
C34   C36   1.434727 A    
C8    H6    1.113724 S    
C49   O13   1.221104 D    
C41   H23   1.084477 S    
C26   C28   1.403535 A    
C31   H24   1.083938 S    
N3    O12   1.300850 A    
C8    C12   1.552349 S    
C42   C44   1.401863 A    
C38   C39   1.397834 A    
O3    Cu1   1.966715 S    
C46   H21   1.071511 S    
N2    C45   1.355466 A    
C31   C35   1.401563 A    
C11   H9    1.115688 S    
C36   C37   1.441843 A    
C13   C16   1.399443 A    
O3    C2    1.293061 A    
C20   C21   1.422785 A    
C6    H3    1.107202 S    
C20   C24   1.417016 A    
C30   H11   1.075019 S    
C16   H15   1.083086 S    
C43   C46   1.423103 A    
C32   H25   1.081742 S    
O1    C1    1.301947 A    
C21   C27   1.425113 A    
C44   C45   1.389195 A    
C3    C14   1.468495 S    
C31   C32   1.387733 A    
C17   H16   1.075791 S    
C44   H28   1.083914 S    
C48   O10   1.221413 D    
C28   C29   1.392595 A    
Cu2   O8    1.966716 S    
C49   H31   1.082593 S    
C4    C10   1.485948 S    
C23   H10   1.084558 S    
C21   C22   1.416999 A    
O8    C4    1.296456 A    
C15   H14   1.083892 S    
C47   O9    1.221607 D    
C8    H5    1.113220 S    
C11   N3    1.469506 S    
C38   C48   1.478232 S    
C25   C26   1.390739 A    
C5    H2    1.111027 S    
C12   H7    1.115540 S    
C15   C19   1.404042 A    
O2    Cu2   1.938829 S    
C45   H22   1.081447 S    
C41   C42   1.390841 A    
O6    C3    1.302167 A    
O4    Cu2   1.972254 S    
C7    H8    1.113637 S    
C10   C12   1.574347 S    
C6    C47   1.525037 S    
C12   C49   1.513505 S    
N1    C33   1.363333 A    
C33   C34   1.423097 A    
C7    C9    1.547381 S    
O2    C1    1.299663 A    
C22   H17   1.076637 S    
C40   C41   1.385081 A    
C18   C20   1.424796 A    
Cu2   N1    2.025441 S    
C48   H30   1.082081 S    
C35   C39   1.388376 A    
C2    C9    1.481067 S    
C5    C9    1.556637 S    
C36   C40   1.412002 A    
C7    C11   1.549657 S    
C1    C13   1.467181 S    
C28   H19   1.083935 S    
C29   H12   1.083033 S    
H4    C7    1.112621 S    
Cu2   O6    1.952030 S    
C34   C35   1.411865 A    
C14   C29   1.399649 A    
C8    C9    1.554692 S    
C14   C30   1.399253 A    
