data_mof_unit_1608.cif
_audit_creation_date              2012-12-11T16:51:24-0500
_audit_creation_method            fapswitch 2.2
_symmetry_space_group_name_H-M    P1
_symmetry_Int_Tables_number       1
_space_group_crystal_system       monoclinic
_cell_length_a                    24.356979
_cell_length_b                    17.120417
_cell_length_c                    15.519726
_cell_angle_alpha                 90.0
_cell_angle_beta                  129.217251
_cell_angle_gamma                 90.0
_cell_volume                      5014.01611495

loop_
_atom_site_label
_atom_site_type_symbol
_atom_type_description
_atom_site_fract_x
_atom_site_fract_y
_atom_site_fract_z
_atom_type_partial_charge
C1    C     C_R   0.832474 0.890789 0.199046 -0.145047
C2    C     C_R   0.184672 0.117952 0.501506 0.079821
C3    C     C_2   0.202357 0.426629 0.954898 0.530597
C4    C     C_R   0.315327 0.617952 0.498494 0.079822
C5    C     C_R   0.684672 0.617952 0.501506 0.079822
C6    C     C_R   0.881890 0.183453 0.208745 0.108456
C7    C     C_R   0.118110 0.183453 0.791254 0.108457
C8    C     C_R   0.381890 0.683453 0.208746 0.108457
C9    C     C_R   0.618110 0.683453 0.791254 0.108455
C10   C     C_R   0.854410 0.708265 0.606359 0.175891
C11   C     C_R   0.145590 0.708264 0.393641 0.175891
C12   C     C_R   0.354410 0.208265 0.606359 0.175891
C13   C     C_R   0.167526 0.890788 0.800954 -0.145047
C14   C     C_R   0.645590 0.208264 0.393641 0.175891
C15   C     C_R   0.835513 0.736526 0.505994 0.031286
C16   C     C_R   0.164487 0.736526 0.494006 0.031285
C17   C     C_R   0.335513 0.236526 0.505994 0.031285
C18   C     C_R   0.664487 0.236526 0.494006 0.031286
C19   C     C_R   0.780969 0.697777 0.407176 -0.188638
C20   C     C_R   0.219031 0.697777 0.592823 -0.188637
C21   C     C_R   0.280969 0.197777 0.407177 -0.188637
C22   C     C_R   0.719031 0.197777 0.592823 -0.188638
C23   C     C_R   0.234964 0.148371 0.406585 -0.196631
C24   C     C_R   0.332474 0.390788 0.199046 -0.145047
C25   C     C_R   0.765036 0.148371 0.593415 -0.196631
C26   C     C_R   0.734964 0.648371 0.406585 -0.196631
C27   C     C_R   0.265036 0.648371 0.593415 -0.196631
C28   C     C_R   0.244335 0.137601 0.505078 0.028033
C29   C     C_R   0.755665 0.137601 0.494922 0.028032
C30   C     C_R   0.744335 0.637601 0.505078 0.028032
C31   C     C_R   0.255665 0.637601 0.494922 0.028032
C32   C     C_R   0.309442 0.159021 0.605804 0.171398
C33   C     C_R   0.690558 0.159020 0.394196 0.171398
C34   C     C_R   0.809442 0.659021 0.605804 0.171398
C35   C     C_R   0.667526 0.390789 0.800954 -0.145047
C36   C     C_R   0.190558 0.659020 0.394196 0.171398
C37   C     C_3   0.826563 0.695741 0.707839 -0.523204
C38   C     C_3   0.173437 0.695741 0.292161 -0.523205
C39   C     C_3   0.326563 0.195742 0.707839 -0.523205
C40   C     C_3   0.673437 0.195741 0.292161 -0.523205
C41   C     C_R   0.085910 0.855315 0.406573 -0.143001
C42   C     C_R   0.914089 0.855315 0.593427 -0.143001
C43   C     C_R   0.585910 0.355315 0.406573 -0.143001
C44   C     C_R   0.414089 0.355315 0.593427 -0.143002
C45   C     C_3   0.875373 0.749938 0.708279 -0.524651
C46   C     C_R   0.884593 0.103112 0.591444 -0.124484
C47   C     C_3   0.124627 0.749938 0.291721 -0.524650
C48   C     C_3   0.375372 0.249938 0.708279 -0.524650
C49   C     C_3   0.624627 0.249938 0.291721 -0.524650
C50   C     C_2   0.194235 0.841578 0.978219 -0.355174
C51   C     C_2   0.805765 0.841579 0.021780 -0.355174
C52   C     C_2   0.694235 0.341578 0.978219 -0.355174
C53   C     C_2   0.305765 0.341579 0.021781 -0.355175
C54   C     C_2   0.264197 0.857158 0.052610 -0.001772
C55   C     C_2   0.735802 0.857158 0.947390 -0.001770
C56   C     C_2   0.764197 0.357158 0.052611 -0.001771
C57   C     C_R   0.115407 0.103112 0.408556 -0.124483
C58   C     C_2   0.235802 0.357158 0.947389 -0.001769
C59   C     C_2   0.856327 0.257737 0.147976 -0.153742
C60   C     C_2   0.143672 0.257737 0.852022 -0.153743
C61   C     C_2   0.356327 0.757737 0.147977 -0.153742
C62   C     C_2   0.643673 0.757737 0.852024 -0.153740
C63   C     C_2   0.807831 0.300213 0.142368 -0.080376
C64   C     C_2   0.192169 0.300214 0.857631 -0.080375
C65   C     C_2   0.307831 0.800213 0.142368 -0.080375
C66   C     C_2   0.692169 0.800213 0.857632 -0.080380
C67   C     C_R   0.163313 0.856018 0.591674 -0.116604
C68   C     C_R   0.384593 0.603112 0.591444 -0.124484
C69   C     C_R   0.836687 0.856017 0.408326 -0.116604
C70   C     C_R   0.663313 0.356017 0.591674 -0.116604
C71   C     C_R   0.336687 0.356017 0.408326 -0.116604
C72   C     C_R   0.077161 0.892808 0.803425 -0.146829
C73   C     C_R   0.922839 0.892809 0.196575 -0.146829
C74   C     C_R   0.577160 0.392809 0.803425 -0.146829
C75   C     C_R   0.422839 0.392809 0.196575 -0.146829
C76   C     C_R   0.852179 0.872698 0.135356 0.154491
C77   C     C_R   0.147821 0.872698 0.864643 0.154491
C78   C     C_R   0.352179 0.372698 0.135356 0.154492
C79   C     C_R   0.615407 0.603112 0.408556 -0.124484
C80   C     C_R   0.647821 0.372698 0.864644 0.154491
C81   C     C_R   0.138224 0.811917 0.497975 0.071235
C82   C     C_R   0.861776 0.811917 0.502025 0.071235
C83   C     C_R   0.638224 0.311917 0.497975 0.071235
C84   C     C_R   0.361776 0.311917 0.502025 0.071236
C85   C     C_R   0.810578 0.100808 0.407365 -0.155790
C86   C     C_R   0.189422 0.100808 0.592635 -0.155790
C87   C     C_R   0.310578 0.600808 0.407365 -0.155790
C88   C     C_R   0.689422 0.600808 0.592635 -0.155790
C89   C     C_R   0.940904 0.140955 0.240537 -0.132960
C90   C     C_R   0.815327 0.117952 0.498493 0.079822
C91   C     C_R   0.059096 0.140955 0.759462 -0.132960
C92   C     C_R   0.440904 0.640955 0.240537 -0.132959
C93   C     C_R   0.559096 0.640955 0.759463 -0.132960
C94   C     C_R   0.150351 0.141016 0.758060 -0.120125
C95   C     C_R   0.849649 0.141016 0.241939 -0.120125
C96   C     C_R   0.650351 0.641016 0.758061 -0.120124
C97   C     C_R   0.349649 0.641016 0.241939 -0.120125
C98   C     C_2   0.297642 0.926629 0.045103 0.530598
C99   C     C_2   0.702357 0.926629 0.954899 0.530596
C100  C     C_2   0.797642 0.426629 0.045103 0.530598
H1    H     H_    0.779315 0.890356 0.172120 0.084780
H2    H     H_    0.219059 0.726938 0.307823 0.200567
H3    H     H_    0.280940 0.226938 0.692176 0.200567
H4    H     H_    0.719059 0.226938 0.307823 0.200567
H5    H     H_    0.855265 0.655101 0.779956 0.197257
H6    H     H_    0.144735 0.655101 0.220044 0.197256
H7    H     H_    0.355265 0.155101 0.779956 0.197257
H8    H     H_    0.644735 0.155101 0.220044 0.197257
H9    H     H_    0.856863 0.811577 0.692559 0.200914
H10   H     H_    0.143137 0.811577 0.307441 0.200914
H11   H     H_    0.356863 0.311577 0.692559 0.200914
H12   H     H_    0.220685 0.890356 0.827880 0.084779
H13   H     H_    0.643137 0.311577 0.307441 0.200914
H14   H     H_    0.932119 0.740817 0.781053 0.196390
H15   H     H_    0.067880 0.740817 0.218947 0.196390
H16   H     H_    0.432119 0.240817 0.781053 0.196390
H17   H     H_    0.567880 0.240817 0.218947 0.196390
H18   H     H_    0.790308 0.283154 0.188885 0.110794
H19   H     H_    0.209692 0.283154 0.811115 0.110794
H20   H     H_    0.290307 0.783154 0.188884 0.110793
H21   H     H_    0.709692 0.783155 0.811115 0.110794
H22   H     H_    0.872561 0.274039 0.099357 0.153017
H23   H     H_    0.279315 0.390356 0.172120 0.084778
H24   H     H_    0.127437 0.274039 0.900641 0.153018
H25   H     H_    0.372562 0.774039 0.099358 0.153018
H26   H     H_    0.627438 0.774038 0.900643 0.153021
H27   H     H_    0.171755 0.795408 0.995560 0.160311
H28   H     H_    0.828245 0.795411 0.004438 0.160311
H29   H     H_    0.671755 0.295409 0.995561 0.160311
H30   H     H_    0.328244 0.295410 0.004438 0.160311
H31   H     H_    0.052872 0.838426 0.320631 0.110437
H32   H     H_    0.947128 0.838426 0.679369 0.110437
H33   H     H_    0.552872 0.338426 0.320631 0.110437
H34   H     H_    0.720684 0.390356 0.827880 0.084779
H35   H     H_    0.447128 0.338426 0.679369 0.110437
H36   H     H_    0.204679 0.840371 0.677361 0.095204
H37   H     H_    0.795321 0.840371 0.322639 0.095204
H38   H     H_    0.704679 0.340370 0.677361 0.095204
H39   H     H_    0.295320 0.340371 0.322639 0.095204
H40   H     H_    0.048342 0.895760 0.834990 0.094563
H41   H     H_    0.951657 0.895760 0.165009 0.094563
H42   H     H_    0.548342 0.395760 0.834990 0.094563
H43   H     H_    0.451657 0.395760 0.165009 0.094563
H44   H     H_    0.762687 0.091731 0.323131 0.104731
H45   H     H_    0.188016 0.127492 0.327376 0.126254
H46   H     H_    0.237313 0.091731 0.676868 0.104731
H47   H     H_    0.262687 0.591731 0.323131 0.104731
H48   H     H_    0.737313 0.591731 0.676868 0.104731
H49   H     H_    0.978010 0.156903 0.227339 0.103253
H50   H     H_    0.021989 0.156903 0.772660 0.103254
H51   H     H_    0.478010 0.656903 0.227339 0.103253
H52   H     H_    0.521990 0.656903 0.772661 0.103254
H53   H     H_    0.198308 0.154960 0.770961 0.091803
H54   H     H_    0.801691 0.154960 0.229038 0.091803
H55   H     H_    0.698308 0.654960 0.770962 0.091803
H56   H     H_    0.811984 0.127492 0.672624 0.126254
H57   H     H_    0.301692 0.654960 0.229038 0.091803
H58   H     H_    0.904849 0.099078 0.676508 0.083904
H59   H     H_    0.095151 0.099078 0.323491 0.083904
H60   H     H_    0.404849 0.599078 0.676508 0.083904
H61   H     H_    0.595151 0.599078 0.323491 0.083904
H62   H     H_    0.767868 0.713051 0.328449 0.129864
H63   H     H_    0.232132 0.713051 0.671551 0.129863
H64   H     H_    0.267868 0.213052 0.328449 0.129863
H65   H     H_    0.732132 0.213051 0.671551 0.129863
H66   H     H_    0.265305 0.973062 0.986264 0.002349
H67   H     H_    0.688016 0.627492 0.327376 0.126254
H68   H     H_    0.734694 0.973062 0.013735 0.002348
H69   H     H_    0.765305 0.473062 0.986264 0.002349
H70   H     H_    0.234694 0.473061 0.013737 0.002349
H71   H     H_    0.311984 0.627492 0.672624 0.126254
H72   H     H_    0.780940 0.726938 0.692177 0.200567
N1    N     N_R   0.888400 0.921830 0.294620 -0.041717
N2    N     N_R   0.874350 0.922400 0.443380 -0.040380
N3    N     N_R   0.625650 0.422400 0.556620 -0.040380
N4    N     N_R   0.374350 0.422400 0.443380 -0.040380
N5    N     N_R   0.054230 0.922730 0.705400 -0.041561
N6    N     N_R   0.945770 0.922730 0.294600 -0.041561
N7    N     N_R   0.554230 0.422730 0.705400 -0.041561
N8    N     N_R   0.445770 0.422730 0.294600 -0.041561
N9    N     N_R   0.873790 0.077030 0.443380 -0.037480
N10   N     N_R   0.126210 0.077030 0.556620 -0.037480
N11   N     N_R   0.373790 0.577030 0.443380 -0.037480
N12   N     N_R   0.111600 0.921830 0.705380 -0.041717
N13   N     N_R   0.626210 0.577030 0.556620 -0.037480
N14   N     N_R   0.945200 0.076700 0.294600 -0.043142
N15   N     N_R   0.054800 0.076700 0.705400 -0.043142
N16   N     N_R   0.445200 0.576700 0.294600 -0.043142
N17   N     N_R   0.554800 0.576700 0.705400 -0.043142
N18   N     N_R   0.111030 0.077600 0.705380 -0.044417
N19   N     N_R   0.888970 0.077600 0.294620 -0.044417
N20   N     N_R   0.611030 0.577600 0.705380 -0.044417
N21   N     N_R   0.388970 0.577600 0.294620 -0.044417
N22   N     N_R   0.919490 0.077280 0.556590 -0.037899
N23   N     N_R   0.388400 0.421830 0.294620 -0.041717
N24   N     N_R   0.080510 0.077280 0.443410 -0.037899
N25   N     N_R   0.419490 0.577280 0.556590 -0.037899
N26   N     N_R   0.580510 0.577280 0.443410 -0.037899
N27   N     N_R   0.611600 0.421830 0.705380 -0.041717
N28   N     N_R   0.079940 0.922160 0.443410 -0.040866
N29   N     N_R   0.920060 0.922160 0.556590 -0.040866
N30   N     N_R   0.579940 0.422160 0.443410 -0.040866
N31   N     N_R   0.420060 0.422160 0.556590 -0.040866
N32   N     N_R   0.125650 0.922400 0.556620 -0.040380
Ni1   Ni    Ni4+2 0.882160 0.999430 0.370180 0.212478
Ni2   Ni    Ni4+2 0.117840 0.999430 0.629820 0.212478
Ni3   Ni    Ni4+2 0.382160 0.499430 0.370180 0.212478
Ni4   Ni    Ni4+2 0.617840 0.499430 0.629820 0.212478
Ni5   Ni    Ni4+2 0.012460 0.999430 0.370180 0.210428
Ni6   Ni    Ni4+2 0.987540 0.999430 0.629820 0.210427
Ni7   Ni    Ni4+2 0.512460 0.499430 0.370180 0.210428
Ni8   Ni    Ni4+2 0.487540 0.499430 0.629820 0.210428
O1    O     O_2   0.361995 0.933862 0.107453 -0.584018
O2    O     O_2   0.638003 0.933858 0.892554 -0.584019
O3    O     O_2   0.861996 0.433862 0.107452 -0.584018
O4    O     O_2   0.138004 0.433861 0.892548 -0.584018

loop_
_geom_bond_atom_site_label_1
_geom_bond_atom_site_label_2
_ccdc_geom_bond_type
C49   H13   S    
C100  O3    D    
N21   Ni3   S    
C9    C93   A    
N17   N20   A    
C34   C37   S    
N11   Ni3   S    
C89   N14   A    
C14   C18   A    
C11   C47   S    
C42   C82   A    
N30   Ni7   S    
C12   C48   S    
C14   C33   A    
C67   N32   A    
C2    C57   A    
C35   N27   A    
C4    C87   A    
C73   H41   S    
C47   H15   S    
C23   H45   S    
C1    N1    A    
C50   C54   D    
C64   H19   S    
C87   H47   S    
C52   H29   S    
N3    Ni4   S    
N4    Ni3   S    
C11   C36   A    
C67   C81   A    
C71   C84   A    
C13   H12   S    
C10   C15   A    
C87   N11   A    
N16   Ni7   S    
C45   H9    S    
C14   C49   S    
N22   Ni6   S    
C40   C49   S    
C46   H58   S    
C29   C33   A    
C35   C80   A    
C43   C83   A    
C71   N4    A    
C35   H34   S    
C43   H33   S    
N19   Ni1   S    
C32   C39   S    
C97   N21   A    
N14   N19   A    
C60   H24   S    
C19   C26   A    
C16   C81   S    
N15   N18   A    
C43   N30   A    
C69   C82   A    
C22   H65   S    
C45   H14   S    
N18   Ni2   S    
N9    Ni1   S    
C49   H17   S    
C74   N7    A    
C22   C25   A    
C42   H32   S    
C12   C17   A    
N2    Ni1   S    
C8    C92   A    
C86   N10   A    
N13   N26   A    
C5    C79   A    
C70   N3    A    
C95   N19   A    
C8    C61   S    
C40   H8    S    
C59   H22   S    
C89   H49   S    
C74   H42   S    
C41   C81   A    
C21   H64   S    
C74   C80   A    
C12   C32   A    
C25   H56   S    
C25   C29   A    
C5    C88   A    
N4    N31   A    
C72   N5    A    
C79   H61   S    
C41   N28   A    
C86   H46   S    
C85   H44   S    
C29   C90   S    
C46   N22   A    
C15   C82   S    
C58   C64   S    
C85   C90   A    
C13   C77   A    
C26   H67   S    
C56   C63   S    
C33   C40   S    
C62   C66   D    
C57   N24   A    
C27   C31   A    
C9    C62   S    
C28   C32   A    
C51   C76   S    
C54   C65   S    
C63   H18   S    
C30   C34   A    
C71   H39   S    
C53   H30   S    
C24   N23   A    
C3    O4    D    
C20   H63   S    
N7    Ni8   S    
C24   H23   S    
C17   C21   A    
N6    Ni5   S    
C68   N25   A    
N10   Ni2   S    
C19   H62   S    
C97   H57   S    
N5    Ni6   S    
C38   H6    S    
N8    Ni7   S    
C15   C19   A    
C8    C97   A    
C94   N18   A    
C44   N31   A    
C37   H5    S    
C72   C77   A    
C75   N8    A    
C40   H4    S    
C11   C16   A    
N15   Ni6   S    
N28   N32   A    
C13   N12   A    
C7    C91   A    
N12   Ni2   S    
C48   H11   S    
C92   H51   S    
C92   N16   A    
C18   C83   S    
C88   H48   S    
C66   H21   S    
C10   C34   A    
C16   C20   A    
C23   C28   A    
N13   Ni4   S    
C70   C83   A    
C9    C96   A    
C38   C47   S    
C98   H66   S    
N8    N23   A    
C75   H43   S    
C73   N6    A    
C24   C78   A    
C88   N13   A    
C99   O2    D    
C98   O1    D    
N32   Ni2   S    
N16   N21   A    
N20   Ni4   S    
C1    H1    S    
C21   C23   A    
C37   H72   S    
C69   H37   S    
N14   Ni5   S    
N10   N24   A    
C69   N2    A    
C51   H28   S    
C37   C45   S    
C68   H60   S    
C6    C89   A    
C50   C77   S    
C27   H71   S    
N29   Ni6   S    
C55   C66   S    
C4    C68   A    
C99   H68   S    
C7    C94   A    
C91   N15   A    
C85   N9    A    
C100  H69   S    
C18   C22   A    
C1    C76   A    
C6    C59   S    
C7    C60   S    
N3    N30   A    
C44   C84   A    
N17   Ni8   S    
N24   Ni5   S    
C39   H7    S    
C91   H50   S    
C61   H25   S    
C53   C58   D    
N11   N25   A    
C3    H70   S    
C39   H3    S    
C46   C90   A    
C20   C27   A    
C93   N17   A    
N5    N12   A    
C59   C63   D    
N28   Ni5   S    
C48   H16   S    
C60   C64   D    
C95   H54   S    
C17   C84   S    
C36   C38   S    
C67   H36   S    
C38   H2    S    
N25   Ni8   S    
N26   Ni7   S    
C70   H38   S    
C96   N20   A    
N7    N27   A    
N1    N6    A    
C44   H35   S    
C94   H53   S    
N27   Ni4   S    
C73   C76   A    
C65   H20   S    
C93   H52   S    
C2    C86   A    
C51   C55   D    
N2    N29   A    
C57   H59   S    
N31   Ni8   S    
C75   C78   A    
C4    C31   S    
C2    C28   S    
C53   C78   S    
C96   H55   S    
C3    C58   S    
C61   C65   D    
C72   H40   S    
C41   H31   S    
N23   Ni3   S    
C6    C95   A    
C5    C30   S    
C10   C45   S    
C55   C99   S    
C79   N26   A    
C56   C100  S    
C31   C36   A    
C54   C98   S    
C42   N29   A    
N1    Ni1   S    
C50   H27   S    
C47   H10   S    
N9    N22   A    
C52   C80   S    
C62   H26   S    
C52   C56   D    
C39   C48   S    
C26   C30   A    
