data_mof_unit_2760.cif
_audit_creation_date              2012-12-10T17:41:27-0500
_audit_creation_method            fapswitch 2.2
_symmetry_space_group_name_H-M    P1
_symmetry_Int_Tables_number       1
_space_group_crystal_system       triclinic
_cell_length_a                    15.042684
_cell_length_b                    13.806733
_cell_length_c                    14.292277
_cell_angle_alpha                 90.016577
_cell_angle_beta                  88.392553
_cell_angle_gamma                 90.649687
_cell_volume                      2967.00873104

loop_
_atom_site_label
_atom_site_type_symbol
_atom_type_description
_atom_site_fract_x
_atom_site_fract_y
_atom_site_fract_z
_atom_type_partial_charge
C1    C     C_R   0.329022 0.499285 0.509894 0.736611
C2    C     C_R   0.670858 0.500130 0.489668 0.732784
C3    C     C_R   0.953615 0.518369 0.495459 -0.094259
C4    C     C_R   0.046642 0.516805 0.503626 -0.096601
C5    C     C_R   0.914607 0.509545 0.406203 -0.094615
C6    C     C_R   0.085100 0.507227 0.593199 -0.097121
C7    C     C_R   0.937412 0.534192 0.665329 0.315990
C8    C     C_R   0.063365 0.521214 0.332828 0.324430
C9    C     C_R   0.029241 0.518879 0.675546 0.372333
C10   C     C_R   0.970364 0.518633 0.323963 0.360552
C11   C     C_R   0.467112 0.794244 0.575778 0.600209
C12   C     C_R   0.494856 0.204006 0.417882 0.567803
C13   C     C_R   0.533938 0.794883 0.424764 0.605332
C14   C     C_R   0.507876 0.204733 0.582102 0.574506
C15   C     C_R   0.518481 0.896516 0.417045 -0.262267
C16   C     C_R   0.492650 0.102187 0.585053 -0.243764
C17   C     C_R   0.483569 0.896177 0.583548 -0.264594
C18   C     C_R   0.511290 0.102147 0.415832 -0.244814
C19   C     C_R   0.500894 0.948104 0.500300 -0.095336
C20   C     C_R   0.501334 0.050636 0.500398 -0.094136
C21   C     C_R   0.527433 0.947584 0.331063 0.335323
C22   C     C_R   0.475024 0.049980 0.669891 0.356297
C23   C     C_R   0.478406 0.946907 0.669940 0.335426
C24   C     C_R   0.532154 0.050540 0.331713 0.355478
C25   C     C_R   0.498105 0.500130 0.331228 0.786152
C26   C     C_R   0.501648 0.500192 0.668786 0.782535
C27   C     C_1   0.496719 0.500892 0.228966 -0.137017
C28   C     C_1   0.502492 0.500979 0.771071 -0.138571
C29   C     C_1   0.496747 0.501611 0.143467 0.019049
C30   C     C_1   0.502021 0.501669 0.856581 0.023506
C31   C     C_1   0.498337 0.501916 0.042793 0.040362
C32   C     C_1   0.500146 0.501938 0.957261 0.043169
C33   C     C_R   0.822544 0.486253 0.402171 0.443305
C34   C     C_R   0.176707 0.482358 0.596789 0.442058
C35   C     C_R   0.768133 0.501149 0.484925 -0.199723
C36   C     C_R   0.231634 0.498582 0.514253 -0.211270
C37   C     C_R   0.807450 0.521623 0.569508 -0.218464
C38   C     C_R   0.192802 0.519630 0.429701 -0.207386
C39   C     C_R   0.899512 0.524782 0.576892 -0.020399
C40   C     C_R   0.100907 0.519004 0.421823 -0.015967
Cu1   Cu    Cu3+1 0.500000 0.597420 0.500000 1.028048
Cu2   Cu    Cu3+1 0.500000 0.402580 0.500000 0.986734
H1    H     H_    0.764769 0.529080 0.631515 0.180356
H2    H     H_    0.235579 0.530377 0.368058 0.188388
N1    N     N_R   0.500000 0.743810 0.500000 -0.272980
N2    N     N_R   0.500000 0.256190 0.500000 -0.277915
O1    O     O_R   0.370260 0.582280 0.500020 -0.555356
O2    O     O_R   0.629740 0.417720 0.499980 -0.582635
O3    O     O_R   0.629740 0.582280 0.499980 -0.562453
O4    O     O_R   0.370260 0.417720 0.500020 -0.587594
O5    O     O_R   0.500000 0.582290 0.376050 -0.503736
O6    O     O_R   0.500000 0.417710 0.623950 -0.523705
O7    O     O_R   0.500000 0.582290 0.623950 -0.504524
O8    O     O_R   0.500000 0.417710 0.376050 -0.524876
O9    O     O_3   0.799191 0.428321 0.326205 -0.537337
C41   C     C_3   0.710163 0.431742 0.299306 0.126875
H3    H     H_    0.682676 0.505881 0.304407 0.102987
H4    H     H_    0.670411 0.379007 0.341559 0.196175
C42   C     C_3   0.705112 0.398476 0.197796 -0.573768
H5    H     H_    0.747244 0.333874 0.185705 0.282901
H6    H     H_    0.635812 0.378091 0.181443 0.205948
H7    H     H_    0.727798 0.457130 0.149457 0.245353
O10   O     O_3   0.199059 0.423079 0.671748 -0.527908
C43   C     C_3   0.288508 0.424819 0.697837 0.135133
H8    H     H_    0.318226 0.498618 0.693661 0.098269
H9    H     H_    0.326225 0.372096 0.654604 0.193112
C44   C     C_3   0.293875 0.389973 0.798770 -0.599362
H10   H     H_    0.252792 0.323357 0.809519 0.278357
H11   H     H_    0.363510 0.372548 0.814895 0.212364
H12   H     H_    0.270466 0.446619 0.848313 0.246172
O11   O     O_3   0.882670 0.548623 0.743524 -0.537895
C45   C     C_3   0.863285 0.648520 0.750731 0.069226
H13   H     H_    0.832649 0.676721 0.686295 0.123546
H14   H     H_    0.924766 0.691588 0.763639 0.179630
C46   C     C_3   0.797728 0.663896 0.832215 -0.639497
H15   H     H_    0.826748 0.638588 0.898377 0.276735
H16   H     H_    0.782187 0.742075 0.838882 0.213596
H17   H     H_    0.735146 0.622849 0.820074 0.235020
O12   O     O_3   0.118394 0.528721 0.253723 -0.528402
C47   C     C_3   0.138453 0.434750 0.220905 0.087612
H18   H     H_    0.077118 0.392407 0.206038 0.197571
H19   H     H_    0.176963 0.394521 0.273238 0.115559
C48   C     C_3   0.193894 0.443005 0.130491 -0.706679
H20   H     H_    0.257402 0.481852 0.143646 0.243408
H21   H     H_    0.208921 0.369688 0.102790 0.190972
H22   H     H_    0.156661 0.483335 0.077250 0.286980
S1    S     S_3+6 0.070842 0.517707 0.791912 0.048514
O13   O     O_2   0.158381 0.570535 0.794555 -0.326047
O14   O     O_2   0.008570 0.564436 0.861973 -0.241628
O15   O     O_3   0.083992 0.401818 0.824407 -0.477610
H23   H     H_    0.101224 0.405114 0.890740 0.361859
S2    S     S_3+6 0.928020 0.534853 0.209265 0.042258
O16   O     O_2   0.840427 0.585479 0.213203 -0.320084
O17   O     O_2   0.991657 0.594442 0.149432 -0.211018
O18   O     O_3   0.914923 0.425648 0.159093 -0.526467
H24   H     H_    0.899989 0.439631 0.093436 0.377661
O19   O     O_3   0.410448 0.747363 0.638989 -0.507409
C49   C     C_3   0.323063 0.779814 0.623555 0.035425
H25   H     H_    0.304618 0.769086 0.549150 0.138052
H26   H     H_    0.315923 0.857685 0.642136 0.161477
C50   C     C_3   0.257409 0.722932 0.684661 -0.594060
H27   H     H_    0.274775 0.729294 0.759399 0.293480
H28   H     H_    0.189151 0.750583 0.675565 0.191144
H29   H     H_    0.258981 0.646133 0.663439 0.224351
O20   O     O_3   0.468024 0.249096 0.337656 -0.508037
C51   C     C_3   0.376688 0.228761 0.326629 0.113254
H30   H     H_    0.336635 0.248797 0.390459 0.133520
H31   H     H_    0.365849 0.150538 0.311079 0.150860
C52   C     C_3   0.343245 0.287075 0.244930 -0.726680
H32   H     H_    0.274260 0.263801 0.229930 0.188179
H33   H     H_    0.343940 0.365388 0.262528 0.219710
H34   H     H_    0.385744 0.275197 0.181337 0.286434
O21   O     O_3   0.593723 0.750130 0.364406 -0.508171
C53   C     C_3   0.679920 0.783982 0.386505 0.025132
H35   H     H_    0.693938 0.771305 0.461760 0.133386
H36   H     H_    0.688294 0.862552 0.370636 0.160969
C54   C     C_3   0.748790 0.730544 0.328191 -0.584325
H37   H     H_    0.736922 0.740812 0.252559 0.294883
H38   H     H_    0.816459 0.757785 0.344066 0.194655
H39   H     H_    0.744295 0.652809 0.345666 0.226804
O22   O     O_3   0.539446 0.250889 0.660190 -0.507162
C55   C     C_3   0.632385 0.237318 0.662562 0.097786
H40   H     H_    0.666019 0.253090 0.593572 0.140451
H41   H     H_    0.646919 0.161513 0.683201 0.152580
C56   C     C_3   0.671791 0.305463 0.734529 -0.668234
H42   H     H_    0.744025 0.291693 0.740190 0.208259
H43   H     H_    0.662993 0.381855 0.712800 0.221935
H44   H     H_    0.638623 0.293841 0.804074 0.269903
S3    S     S_3+6 0.514426 0.883634 0.223475 0.079801
O23   O     O_2   0.603377 0.849987 0.186675 -0.233789
O24   O     O_2   0.454533 0.796881 0.239235 -0.271216
O25   O     O_3   0.468363 0.954802 0.143092 -0.462485
H45   H     H_    0.468356 0.915551 0.085067 0.383482
S4    S     S_3+6 0.429176 0.111636 0.769531 0.065167
O26   O     O_2   0.502780 0.149030 0.829176 -0.229987
O27   O     O_2   0.374912 0.195263 0.737317 -0.320675
O28   O     O_3   0.361938 0.038368 0.834158 -0.462230
H46   H     H_    0.344428 0.077268 0.889788 0.379735
S5    S     S_3+6 0.495977 0.882617 0.776276 0.070632
O29   O     O_2   0.408443 0.847562 0.817499 -0.229489
O30   O     O_2   0.554383 0.796780 0.757050 -0.294078
O31   O     O_3   0.546545 0.954025 0.854378 -0.465525
H47   H     H_    0.549555 0.914212 0.911822 0.380397
S6    S     S_3+6 0.585331 0.112636 0.235587 0.064108
O32   O     O_2   0.516898 0.147720 0.169345 -0.234408
O33   O     O_2   0.637124 0.197831 0.271485 -0.316843
O34   O     O_3   0.656846 0.040094 0.177469 -0.466162
H48   H     H_    0.679118 0.078995 0.123326 0.380261

loop_
_geom_bond_atom_site_label_1
_geom_bond_atom_site_label_2
_ccdc_geom_bond_type
C2    C35   S    
C33   O9    S    
C13   N1    A    
O9    C41   S    
C50   H27   S    
C27   C29   T    
C45   H14   S    
Cu1   Cu2   S    
C19   C20   A    
S1    O13   D    
C6    C9    A    
C53   H35   S    
C14   N2    A    
C15   C19   A    
C17   C23   A    
C51   H31   S    
C22   S4    S    
C18   C24   A    
C7    C39   A    
C23   S5    S    
C35   C37   A    
O21   C53   S    
C54   H38   S    
C7    O11   S    
C12   O20   S    
S5    O31   S    
C51   H30   S    
C41   H3    S    
Cu2   N2    S    
S2    O16   D    
O34   H48   S    
C17   C19   A    
C31   C32   T    
O25   H45   S    
C5    C33   A    
C8    O12   S    
C1    O4    A    
C18   C20   A    
S3    O25   S    
C10   S2    S    
C42   H5    S    
C50   H28   S    
C14   O22   S    
S6    O34   S    
S4    O28   S    
C45   C46   S    
Cu1   O3    S    
O19   C49   S    
C37   C39   A    
C42   H6    S    
C44   H10   S    
C43   C44   S    
C4    C40   A    
C25   O8    A    
C47   H19   S    
C52   H34   S    
C47   H18   S    
S4    O27   D    
C2    O2    A    
S2    O18   S    
C6    C34   A    
C44   H11   S    
C12   N2    A    
C43   H9    S    
C37   H1    S    
C46   H15   S    
C25   O5    A    
C38   H2    S    
C2    O3    A    
C26   O6    A    
C56   H44   S    
C48   H20   S    
C16   C20   A    
Cu1   O7    S    
S2    O17   D    
Cu1   O1    S    
Cu2   O2    S    
C46   H16   S    
C21   S3    S    
O22   C55   S    
Cu2   O4    S    
S6    O33   D    
C48   H21   S    
C50   H29   S    
C49   H26   S    
C13   C15   A    
C56   H42   S    
C14   C16   A    
O12   C47   S    
C54   H39   S    
C4    C6    A    
C21   C24   A    
C55   H41   S    
C3    C4    A    
C26   O7    A    
C47   C48   S    
S3    O23   D    
O28   H46   S    
C7    C9    A    
C11   C17   A    
C42   H7    S    
C16   C22   A    
O31   H47   S    
C1    O1    A    
C45   H13   S    
C3    C5    A    
C53   H36   S    
S5    O29   D    
S4    O26   D    
C25   C27   S    
C49   C50   S    
O20   C51   S    
C26   C28   S    
C41   C42   S    
C11   O19   S    
S6    O32   D    
C44   H12   S    
C43   H8    S    
C55   C56   S    
C52   H33   S    
C5    C10   A    
C29   C31   S    
C54   H37   S    
Cu2   O8    S    
C36   C38   A    
C30   C32   S    
S5    O30   D    
O15   H23   S    
C38   C40   A    
C24   S6    S    
C28   C30   T    
C34   O10   S    
C33   C35   A    
C41   H4    S    
C34   C36   A    
C46   H17   S    
C13   O21   S    
C53   C54   S    
C11   N1    A    
C3    C39   A    
O10   C43   S    
C15   C21   A    
C48   H22   S    
O11   C45   S    
C8    C10   A    
C49   H25   S    
S1    O15   S    
C12   C18   A    
O18   H24   S    
C56   H43   S    
S1    O14   D    
Cu1   N1    S    
C22   C23   A    
C8    C40   A    
C55   H40   S    
C52   H32   S    
Cu1   O5    S    
C9    S1    S    
C1    C36   S    
Cu2   O6    S    
S3    O24   D    
C51   C52   S    
