data_mof_unit_4019.cif
_audit_creation_date              2012-12-10T17:41:01-0500
_audit_creation_method            fapswitch 2.2
_symmetry_space_group_name_H-M    P1
_symmetry_Int_Tables_number       1
_space_group_crystal_system       triclinic
_cell_length_a                    14.97208
_cell_length_b                    13.967017
_cell_length_c                    11.645749
_cell_angle_alpha                 89.935886
_cell_angle_beta                  84.857103
_cell_angle_gamma                 90.263324
_cell_volume                      2425.47179586

loop_
_atom_site_label
_atom_site_type_symbol
_atom_type_description
_atom_site_fract_x
_atom_site_fract_y
_atom_site_fract_z
_atom_type_partial_charge
C1    C     C_R   0.329259 0.499868 0.500294 0.813848
C2    C     C_R   0.670740 0.500132 0.499706 0.813850
C3    C     C_R   0.913372 0.515507 0.396854 0.045997
C4    C     C_R   0.086628 0.484494 0.603146 0.045996
C5    C     C_R   0.939712 0.467850 0.709072 0.425045
C6    C     C_R   0.060288 0.532150 0.290928 0.425046
C7    C     C_R   0.033274 0.468737 0.706310 -0.220165
C8    C     C_R   0.966726 0.531263 0.293690 -0.220166
C9    C     C_R   0.470308 0.796289 0.598926 0.464739
C10   C     C_R   0.529692 0.203711 0.401074 0.464738
C11   C     C_R   0.529287 0.796867 0.400964 0.469583
C12   C     C_R   0.470713 0.203133 0.599036 0.469583
C13   C     C_R   0.514253 0.897827 0.397076 -0.097119
C14   C     C_R   0.485747 0.102173 0.602924 -0.097119
C15   C     C_R   0.485418 0.897388 0.602878 -0.097848
C16   C     C_R   0.514582 0.102612 0.397122 -0.097848
C17   C     C_R   0.499926 0.948721 0.499991 0.033838
C18   C     C_R   0.500073 0.051279 0.500009 0.033838
C19   C     C_R   0.516746 0.950362 0.293199 -0.060075
C20   C     C_R   0.483254 0.049638 0.706801 -0.060075
C21   C     C_R   0.482995 0.949579 0.706781 -0.063400
C22   C     C_R   0.517005 0.050421 0.293219 -0.063400
C23   C     C_R   0.499936 0.500041 0.284406 0.816572
C24   C     C_R   0.500064 0.499959 0.715594 0.816573
C25   C     C_1   0.499872 0.500107 0.162627 -0.055988
C26   C     C_1   0.500128 0.499892 0.837373 -0.055983
C27   C     C_1   0.499940 0.500056 0.059944 0.080834
C28   C     C_1   0.500060 0.499944 0.940056 0.080839
C29   C     C_R   0.820360 0.515291 0.397378 -0.106686
C30   C     C_R   0.179640 0.484709 0.602622 -0.106685
C31   C     C_R   0.767119 0.500203 0.500046 -0.051704
C32   C     C_R   0.232881 0.499797 0.499954 -0.051702
C33   C     C_R   0.805307 0.483919 0.603077 -0.151574
C34   C     C_R   0.194693 0.516081 0.396923 -0.151577
C35   C     C_R   0.898824 0.483639 0.605559 0.005998
C36   C     C_R   0.101176 0.516361 0.394441 0.005999
C37   C     C_R   0.953082 0.499824 0.500694 0.013145
C38   C     C_R   0.046917 0.500176 0.499306 0.013146
Cu1   Cu    Cu3+1 0.500000 0.597420 0.500000 1.098095
Cu2   Cu    Cu3+1 0.500000 0.402580 0.500000 1.098094
H1    H     H_    0.789252 0.525898 0.317864 0.141407
H2    H     H_    0.210748 0.474102 0.682136 0.141410
H3    H     H_    0.760834 0.472103 0.680191 0.192164
H4    H     H_    0.239166 0.527897 0.319810 0.192158
H5    H     H_    0.065103 0.456833 0.785033 0.208664
H6    H     H_    0.934897 0.543167 0.214967 0.208659
H7    H     H_    0.518603 0.914816 0.210611 0.210206
H8    H     H_    0.481397 0.085184 0.789389 0.210206
H9    H     H_    0.480893 0.913748 0.789322 0.209609
H10   H     H_    0.519107 0.086252 0.210678 0.209609
N1    N     N_R   0.500000 0.743810 0.500000 -0.289961
N2    N     N_R   0.500000 0.256190 0.500000 -0.289961
O1    O     O_R   0.370260 0.582280 0.500020 -0.528655
O2    O     O_R   0.629740 0.417720 0.499980 -0.528655
O3    O     O_R   0.629740 0.582280 0.499980 -0.529603
O4    O     O_R   0.370260 0.417720 0.500020 -0.529604
O5    O     O_R   0.500010 0.582270 0.337200 -0.522863
O6    O     O_R   0.499990 0.417730 0.662800 -0.522864
O7    O     O_R   0.499990 0.582270 0.662800 -0.522889
O8    O     O_R   0.500010 0.417730 0.337200 -0.522890
S1    S     S_3+6 0.876590 0.446525 0.843181 0.032626
O9    O     O_2   0.820319 0.357937 0.833729 -0.267444
O10   O     O_2   0.937254 0.432915 0.937957 -0.224008
O11   O     O_3   0.809119 0.540519 0.875288 -0.524059
H11   H     H_    0.770407 0.520518 0.944705 0.373128
S2    S     S_3+6 0.123410 0.553476 0.156819 0.032628
O12   O     O_2   0.062747 0.567088 0.062043 -0.223997
O13   O     O_2   0.179682 0.642064 0.166273 -0.267457
O14   O     O_3   0.190881 0.459482 0.124711 -0.524055
H12   H     H_    0.229610 0.479494 0.055314 0.373124
S3    S     S_3+6 0.400705 0.749192 0.720429 0.051259
O15   O     O_2   0.459510 0.726134 0.814774 -0.300430
O16   O     O_2   0.335395 0.825156 0.764209 -0.249024
O17   O     O_3   0.338613 0.652894 0.694445 -0.508564
H13   H     H_    0.312365 0.631074 0.771197 0.360100
S4    S     S_3+6 0.599295 0.250808 0.279571 0.051260
O18   O     O_2   0.664605 0.174844 0.235791 -0.249022
O19   O     O_2   0.540490 0.273866 0.185226 -0.300431
O20   O     O_3   0.661387 0.347106 0.305555 -0.508563
H14   H     H_    0.687633 0.368927 0.228803 0.360099
S5    S     S_3+6 0.598142 0.750737 0.279000 0.045268
O21   O     O_2   0.538752 0.727413 0.185225 -0.300647
O22   O     O_2   0.663558 0.827140 0.234666 -0.254158
O23   O     O_3   0.659989 0.654933 0.304796 -0.516119
H15   H     H_    0.682915 0.631309 0.227582 0.350852
S6    S     S_3+6 0.401858 0.249263 0.721000 0.045270
O24   O     O_2   0.336443 0.172859 0.765334 -0.254156
O25   O     O_2   0.461248 0.272587 0.814775 -0.300647
O26   O     O_3   0.340011 0.345066 0.695204 -0.516117
H16   H     H_    0.317087 0.368693 0.772418 0.350853

loop_
_geom_bond_atom_site_label_1
_geom_bond_atom_site_label_2
_ccdc_geom_bond_type
Cu1   N1    S    
Cu2   O8    S    
C14   C18   A    
S2    O13   D    
C9    N1    A    
S4    O20   S    
C10   N2    A    
C21   H9    S    
S5    O21   D    
C11   S5    S    
C7    H5    S    
C35   C37   A    
C1    O4    A    
C24   C26   S    
C2    O3    A    
S6    O25   D    
S2    O14   S    
Cu1   O5    S    
C3    C29   A    
S1    O10   D    
C1    O1    A    
C12   N2    A    
C10   S4    S    
Cu1   O3    S    
Cu2   O4    S    
C31   C33   A    
C34   C36   A    
C22   H10   S    
S2    O12   D    
O14   H12   S    
C4    C7    A    
S5    O22   D    
C23   O8    A    
Cu2   O6    S    
O17   H13   S    
C13   C19   A    
S4    O19   D    
C33   H3    S    
C14   C20   A    
C19   C22   A    
C34   H4    S    
S4    O18   D    
C3    C8    A    
C2    O2    A    
Cu1   Cu2   S    
C5    C7    A    
S6    O24   D    
C6    C8    A    
Cu2   N2    S    
C1    C32   S    
C2    C31   S    
C32   C34   A    
S1    O11   S    
C37   C38   A    
C15   C21   A    
Cu1   O7    S    
C17   C18   A    
C5    S1    S    
O23   H15   S    
C20   H8    S    
C23   O5    A    
C24   O6    A    
C12   C14   A    
Cu2   O2    S    
S5    O23   S    
S3    O16   D    
C15   C17   A    
C16   C22   A    
C29   H1    S    
C9    S3    S    
C4    C38   A    
S6    O26   S    
S3    O17   S    
C13   C17   A    
C25   C27   T    
C26   C28   T    
C12   S6    S    
O11   H11   S    
C36   C38   A    
C9    C15   A    
S3    O15   D    
C29   C31   A    
C10   C16   A    
C30   C32   A    
C11   C13   A    
Cu1   O1    S    
C24   O7    A    
C5    C35   A    
C33   C35   A    
C6    C36   A    
C19   H7    S    
C23   C25   S    
S1    O9    D    
C8    H6    S    
C11   N1    A    
O20   H14   S    
C6    S2    S    
C20   C21   A    
C3    C37   A    
C16   C18   A    
C27   C28   S    
C30   H2    S    
O26   H16   S    
C4    C30   A    
