data_mof_unit_3719.cif
_audit_creation_date              2012-12-11T15:14:39-0500
_audit_creation_method            fapswitch 2.2
_symmetry_space_group_name_H-M    P1
_symmetry_Int_Tables_number       1
_space_group_crystal_system       triclinic
_cell_length_a                    22.094108
_cell_length_b                    7.229054
_cell_length_c                    19.398999
_cell_angle_alpha                 89.999952
_cell_angle_beta                  98.984283
_cell_angle_gamma                 90.000051
_cell_volume                      3060.3848347

loop_
_atom_site_label
_atom_site_type_symbol
_atom_type_description
_atom_site_fract_x
_atom_site_fract_y
_atom_site_fract_z
_atom_type_partial_charge
O1    O     O_R   0.448470 0.506130 0.415700 -0.532295
O2    O     O_R   0.551530 0.006130 0.584300 -0.532295
O3    O     O_R   0.436320 0.174490 0.555800 -0.536366
O4    O     O_R   0.563680 0.674490 0.444200 -0.536366
C1    C     C_R   0.422085 0.343230 0.576326 0.692482
C2    C     C_R   0.577915 0.843230 0.423674 0.692480
O5    O     O_R   0.441350 0.176340 0.414480 -0.544475
O6    O     O_R   0.558650 0.676340 0.585520 -0.544474
O7    O     O_R   0.556600 0.007100 0.441970 -0.526873
O8    O     O_R   0.443400 0.507100 0.558030 -0.526872
C3    C     C_R   0.425229 0.344506 0.390327 0.687457
C4    C     C_R   0.574770 0.844506 0.609673 0.687458
O9    O     O_3   0.537810 0.339550 0.509190 -0.370748
O10   O     O_3   0.462190 0.839550 0.490810 -0.370749
V1    V     V_3+5 0.492990 0.064280 0.498300 1.393910
V2    V     V_3+5 0.507010 0.564280 0.501700 1.393911
C5    C     C_R   0.874597 0.957960 0.691950 0.134240
C6    C     C_R   0.125401 0.457947 0.308050 0.134239
H1    H     H_    0.794512 0.837817 0.581938 0.148632
H2    H     H_    0.205487 0.337804 0.418061 0.148628
C7    C     C_R   0.888594 0.943605 0.819705 -0.092410
C8    C     C_R   0.111405 0.443603 0.180295 -0.092412
C9    C     C_R   0.589382 0.875958 0.739249 0.123662
C10   C     C_R   0.410618 0.375962 0.260751 0.123664
C11   C     C_R   0.627077 0.916854 0.803428 0.171506
C12   C     C_R   0.372923 0.416861 0.196573 0.171504
C13   C     C_R   0.690479 0.933151 0.806122 -0.221450
C14   C     C_R   0.309520 0.433156 0.193878 -0.221450
C15   C     C_R   0.719692 0.896655 0.748074 0.054933
C16   C     C_R   0.280307 0.396655 0.251927 0.054933
C17   C     C_R   0.682682 0.847967 0.683414 -0.022304
C18   C     C_R   0.317317 0.347966 0.316586 -0.022305
C19   C     C_R   0.785129 0.911721 0.752621 0.066089
C20   C     C_R   0.214871 0.411719 0.247379 0.066088
C21   C     C_R   0.811320 0.912697 0.690534 0.049323
C22   C     C_R   0.188679 0.412688 0.309466 0.049322
C23   C     C_R   0.774670 0.854658 0.628722 -0.180855
C24   C     C_R   0.225330 0.354649 0.371278 -0.180853
C25   C     C_R   0.713892 0.797861 0.627151 0.072025
C26   C     C_R   0.286107 0.297855 0.372849 0.072024
C27   C     C_R   0.825263 0.922116 0.816860 -0.256234
C28   C     C_R   0.174737 0.422117 0.183140 -0.256234
C29   C     C_R   0.913955 0.968187 0.757656 0.096626
C30   C     C_R   0.086044 0.468179 0.242343 0.096628
C31   C     C_R   0.616720 0.850684 0.678139 -0.148575
C32   C     C_R   0.383279 0.350684 0.321861 -0.148572
H3    H     H_    0.808838 0.905155 0.866041 0.107796
H4    H     H_    0.191162 0.405159 0.133959 0.107796
H5    H     H_    0.716313 0.979624 0.854834 0.121876
H6    H     H_    0.283686 0.479632 0.145167 0.121876
C33   C     C_3   0.776493 0.800441 0.304320 0.136061
C34   C     C_3   0.223507 0.300438 0.695680 0.136060
C35   C     C_3   0.796965 0.994215 0.283751 0.138083
C36   C     C_3   0.203035 0.494213 0.716248 0.138083
C37   C     C_1   0.874771 0.948885 0.120629 -0.187375
C38   C     C_1   0.125229 0.448885 0.879371 -0.187371
C39   C     C_1   0.624129 0.846093 0.378229 -0.180491
C40   C     C_1   0.375871 0.346093 0.621771 -0.180493
C41   C     C_3   0.769591 0.739256 0.227026 0.139096
C42   C     C_3   0.230409 0.239254 0.772975 0.139096
C43   C     C_3   0.789933 0.933272 0.206514 -0.003613
C44   C     C_3   0.210066 0.433271 0.793486 -0.003614
C45   C     C_3   0.701848 0.803813 0.214883 0.127162
C46   C     C_3   0.298153 0.303812 0.785117 0.127164
C47   C     C_3   0.708883 0.864962 0.292376 0.042817
C48   C     C_3   0.291117 0.364960 0.707624 0.042818
C49   C     C_3   0.722099 0.998579 0.194246 0.103242
C50   C     C_3   0.277901 0.498578 0.805753 0.103242
C51   C     C_3   0.729324 0.059662 0.271934 0.124569
C52   C     C_3   0.270676 0.559660 0.728066 0.124569
C53   C     C_1   0.836342 0.948442 0.159053 -0.020569
C54   C     C_1   0.163658 0.448440 0.840947 -0.020569
C55   C     C_1   0.662594 0.847908 0.339870 -0.001506
C56   C     C_1   0.337406 0.347907 0.660130 -0.001507
O11   O     O_R   0.056650 0.288730 0.942060 -0.530311
O12   O     O_R   0.943350 0.788730 0.057940 -0.530308
O13   O     O_R   0.058660 0.616870 0.085540 -0.533580
O14   O     O_R   0.941340 0.116870 0.914460 -0.533582
C57   C     C_R   0.072331 0.449084 0.111113 0.700479
C58   C     C_R   0.927669 0.949084 0.888886 0.700478
O15   O     O_R   0.063700 0.618520 0.944220 -0.536352
O16   O     O_R   0.936300 0.118520 0.055780 -0.536353
O17   O     O_R   0.948460 0.787610 0.915680 -0.537532
O18   O     O_R   0.051540 0.287610 0.084320 -0.537532
C59   C     C_R   0.078967 0.451161 0.924764 0.709555
C60   C     C_R   0.921033 0.951161 0.075236 0.709562
O19   O     O_3   0.962230 0.453430 0.990860 -0.373156
O20   O     O_3   0.037770 0.953430 0.009140 -0.373155
V3    V     V_3+5 0.007010 0.728750 0.001700 1.404887
V4    V     V_3+5 0.992990 0.228750 0.998300 1.404884
C61   C     C_3   0.982953 0.999375 0.762624 -0.358920
C62   C     C_3   0.998207 0.204573 0.757022 -0.732107
H7    H     H_    0.975602 0.264254 0.706952 0.224222
H8    H     H_    0.983055 0.282852 0.800524 0.233095
H9    H     H_    0.048473 0.221931 0.760132 0.209808
H10   H     H_    0.008598 0.947319 0.812568 0.173355
H11   H     H_    0.002258 0.916576 0.723125 0.159582
C63   C     C_3   0.017046 0.499371 0.237375 -0.358911
C64   C     C_3   0.001794 0.704569 0.242982 -0.732145
H12   H     H_    0.024388 0.764234 0.293056 0.224225
H13   H     H_    0.016956 0.782858 0.199491 0.233098
H14   H     H_    0.951529 0.721933 0.239859 0.209815
H15   H     H_    0.991402 0.447324 0.187430 0.173356
H16   H     H_    0.997739 0.416567 0.276872 0.159582
C65   C     C_3   0.807528 0.687860 0.366046 -0.786813
H17   H     H_    0.854789 0.651832 0.358146 0.216995
H18   H     H_    0.809617 0.770671 0.414495 0.206860
H19   H     H_    0.781278 0.559048 0.370914 0.215987
C66   C     C_3   0.192473 0.187856 0.633954 -0.786814
H20   H     H_    0.145211 0.151827 0.641854 0.216994
H21   H     H_    0.190384 0.270666 0.585505 0.206860
H22   H     H_    0.218723 0.059045 0.629086 0.215987
C67   C     C_3   0.704039 0.230682 0.304229 -0.780145
H23   H     H_    0.714276 0.358717 0.278040 0.214842
H24   H     H_    0.653548 0.220297 0.300022 0.207141
H25   H     H_    0.723919 0.239555 0.360315 0.212517
C68   C     C_3   0.295961 0.730681 0.695770 -0.780146
H26   H     H_    0.285724 0.858715 0.721960 0.214843
H27   H     H_    0.346452 0.720296 0.699977 0.207140
H28   H     H_    0.276080 0.739554 0.639685 0.212517
C69   C     C_3   0.695647 0.113109 0.130128 -0.329004
C70   C     C_3   0.627967 0.159112 0.127750 -0.753083
H29   H     H_    0.599575 0.032407 0.119463 0.228795
H30   H     H_    0.619979 0.227738 0.176547 0.231825
H31   H     H_    0.613046 0.254651 0.083540 0.213619
H32   H     H_    0.721992 0.243854 0.130526 0.182089
H33   H     H_    0.701429 0.034979 0.082279 0.175453
C71   C     C_3   0.304353 0.613109 0.869872 -0.329004
C72   C     C_3   0.372033 0.659110 0.872250 -0.753083
H34   H     H_    0.400425 0.532405 0.880538 0.228795
H35   H     H_    0.380022 0.727733 0.823452 0.231827
H36   H     H_    0.386954 0.754651 0.916459 0.213618
H37   H     H_    0.278009 0.743854 0.869473 0.182089
H38   H     H_    0.298571 0.534980 0.917720 0.175452
C73   C     C_3   0.648555 0.690383 0.177646 -0.782736
H39   H     H_    0.652594 0.676826 0.121573 0.213151
H40   H     H_    0.649048 0.551052 0.201351 0.214507
H41   H     H_    0.604546 0.758208 0.183137 0.207036
C74   C     C_3   0.351445 0.190382 0.822354 -0.782738
H42   H     H_    0.347406 0.176827 0.878428 0.213150
H43   H     H_    0.350952 0.051051 0.798650 0.214508
H44   H     H_    0.395454 0.258207 0.816863 0.207036
C75   C     C_3   0.796900 0.567218 0.197818 -0.776453
H45   H     H_    0.783351 0.439535 0.221844 0.212966
H46   H     H_    0.781813 0.559990 0.140575 0.208812
H47   H     H_    0.847645 0.575045 0.208430 0.210806
C76   C     C_3   0.203100 0.067216 0.802183 -0.776453
H48   H     H_    0.216648 0.939533 0.778156 0.212966
H49   H     H_    0.218188 0.059987 0.859425 0.208812
H50   H     H_    0.152356 0.075043 0.791571 0.210805
C77   C     C_3   0.899048 0.996896 0.623576 -0.364822
C78   C     C_3   0.870175 0.171200 0.587483 -0.768215
H51   H     H_    0.820085 0.155181 0.571250 0.228303
H52   H     H_    0.878560 0.292027 0.623054 0.228662
H53   H     H_    0.891009 0.199741 0.540048 0.215426
H54   H     H_    0.948993 0.018669 0.630410 0.192049
H55   H     H_    0.891541 0.876131 0.588014 0.161291
C79   C     C_3   0.100950 0.496876 0.376424 -0.364819
C80   C     C_3   0.129820 0.671182 0.412518 -0.768183
H56   H     H_    0.179910 0.655153 0.428762 0.228295
H57   H     H_    0.121443 0.792006 0.376941 0.228662
H58   H     H_    0.108977 0.699738 0.459947 0.215419
H59   H     H_    0.051005 0.518642 0.369590 0.192046
H60   H     H_    0.108458 0.376110 0.411986 0.161288
C81   C     C_3   0.520245 0.851394 0.736093 -0.362446
C82   C     C_3   0.504400 0.648134 0.745450 -0.761953
H61   H     H_    0.519591 0.562117 0.703945 0.238555
H62   H     H_    0.526877 0.596835 0.797111 0.219357
H63   H     H_    0.454102 0.632293 0.742271 0.213546
H64   H     H_    0.501997 0.935057 0.775999 0.183396
H65   H     H_    0.494300 0.902369 0.686166 0.182057
C83   C     C_3   0.479754 0.351399 0.263906 -0.362447
C84   C     C_3   0.495600 0.148139 0.254550 -0.761962
H66   H     H_    0.480414 0.062126 0.296060 0.238558
H67   H     H_    0.473118 0.096834 0.202892 0.219361
H68   H     H_    0.545897 0.132300 0.257721 0.213547
H69   H     H_    0.498002 0.435061 0.224000 0.183398
H70   H     H_    0.505700 0.402375 0.313833 0.182058
C85   C     C_3   0.601566 0.950851 0.870610 -0.362031
C86   C     C_3   0.583856 0.153676 0.877056 -0.770884
H71   H     H_    0.624901 0.243316 0.878703 0.230258
H72   H     H_    0.549015 0.196538 0.832352 0.221832
H73   H     H_    0.564578 0.174043 0.926057 0.217709
H74   H     H_    0.561983 0.859568 0.874859 0.184247
H75   H     H_    0.636438 0.914968 0.916446 0.170881
C87   C     C_3   0.398433 0.450860 0.129390 -0.362032
C88   C     C_3   0.416143 0.653685 0.122946 -0.770884
H76   H     H_    0.375099 0.743326 0.121299 0.230258
H77   H     H_    0.450985 0.696545 0.167650 0.221831
H78   H     H_    0.435422 0.674053 0.073944 0.217709
H79   H     H_    0.438016 0.359576 0.125141 0.184248
H80   H     H_    0.363561 0.414980 0.083554 0.170881
C89   C     C_3   0.686277 0.664939 0.570175 -0.304083
C90   C     C_3   0.731701 0.548628 0.536294 -0.790749
H81   H     H_    0.754606 0.634164 0.500583 0.221769
H82   H     H_    0.766382 0.484092 0.576792 0.234903
H83   H     H_    0.706584 0.436736 0.504564 0.224583
H84   H     H_    0.658603 0.561713 0.593796 0.205434
H85   H     H_    0.657906 0.745144 0.529113 0.170536
C91   C     C_3   0.313723 0.164932 0.429825 -0.304081
C92   C     C_3   0.268299 0.048617 0.463705 -0.790747
H86   H     H_    0.245394 0.134151 0.499417 0.221768
H87   H     H_    0.233618 0.984081 0.423207 0.234902
H88   H     H_    0.293417 0.936726 0.495435 0.224583
H89   H     H_    0.341398 0.061708 0.406203 0.205434
H90   H     H_    0.342093 0.245137 0.470887 0.170536
C93   C     C_3   0.850964 0.102484 0.322232 -0.779352
H91   H     H_    0.843609 0.129336 0.376639 0.213266
H92   H     H_    0.893695 0.021291 0.322988 0.210518
H93   H     H_    0.855500 0.236162 0.295471 0.212318
C94   C     C_3   0.149036 0.602480 0.677767 -0.779352
H94   H     H_    0.156391 0.629332 0.623360 0.213266
H95   H     H_    0.106305 0.521288 0.677011 0.210517
H96   H     H_    0.144500 0.736159 0.704528 0.212318

loop_
_geom_bond_atom_site_label_1
_geom_bond_atom_site_label_2
_ccdc_geom_bond_type
C83   H69   S    
C81   H65   S    
C75   H47   S    
C90   H82   S    
C45   C47   S    
C91   H89   S    
C9    C31   A    
C75   H46   S    
O12   C60   A    
C13   C15   A    
C68   H26   S    
C74   H43   S    
C92   H86   S    
C76   H48   S    
O1    C3    A    
O2    C4    A    
C71   C72   S    
C2    O7    A    
O3    V1    S    
C73   H39   S    
C48   C52   S    
C84   H66   S    
O14   V4    S    
O5    C3    A    
C25   C89   S    
C51   C67   S    
C81   C82   S    
O18   V4    S    
C1    C40   S    
C46   C50   S    
C21   C23   A    
C10   C12   A    
C8    C57   S    
C69   H33   S    
C6    C30   A    
C68   H27   S    
C57   O18   A    
C74   H44   S    
C47   C51   S    
C90   H83   S    
C52   C68   S    
C63   H15   S    
C48   C56   S    
C15   C19   A    
C47   C55   S    
C42   C44   S    
C33   C47   S    
C39   C55   T    
C87   H79   S    
C88   H78   S    
C34   C42   S    
O11   V4    S    
C35   C93   S    
C61   H10   S    
C7    C29   A    
C30   C63   S    
O11   C59   A    
C8    C30   A    
C80   H56   S    
C86   H72   S    
C91   C92   S    
C38   C54   T    
C20   C28   A    
C93   H93   S    
C77   C78   S    
C80   H57   S    
C42   C76   S    
H1    C23   S    
C50   C71   S    
O19   V4    S    
C86   H73   S    
C79   H60   S    
O12   V3    S    
C72   H36   S    
O15   V3    S    
C43   C53   S    
O5    V1    S    
C90   H81   S    
C41   C75   S    
O6    V2    S    
C24   C26   A    
C9    C81   S    
C82   H62   S    
C92   H87   S    
C2    C39   S    
C82   H61   S    
C5    C77   S    
C35   C43   S    
C58   O17   A    
C49   C69   S    
C12   C14   A    
C34   C36   S    
C84   H67   S    
O17   V3    S    
C65   H19   S    
C45   C49   S    
C41   C43   S    
C16   C20   A    
C93   H91   S    
C87   H80   S    
C76   H50   S    
O4    C2    A    
C66   H22   S    
C61   C62   S    
C14   H6    S    
C26   C91   S    
C35   C51   S    
O16   C60   A    
C62   H9    S    
C29   C61   S    
C67   H24   S    
C49   C51   S    
C46   C48   S    
O4    V2    S    
C5    C29   A    
C80   H58   S    
C6    C79   S    
C71   H38   S    
C65   H18   S    
C23   C25   A    
H2    C24   S    
C43   C49   S    
C94   H94   S    
C36   C52   S    
C78   H53   S    
O6    C4    A    
O13   V3    S    
C64   H14   S    
C62   H8    S    
C27   H3    S    
O13   C57   A    
C44   C54   S    
O1    V2    S    
C28   H4    S    
C77   H54   S    
C61   H11   S    
O2    V1    S    
O14   C58   A    
C69   C70   S    
C73   H41   S    
C79   H59   S    
C7    C27   A    
C36   C94   S    
C94   H95   S    
C78   H52   S    
C89   C90   S    
C79   C80   S    
C92   H88   S    
C68   H28   S    
C33   C41   S    
C70   H30   S    
C77   H55   S    
C34   C48   S    
C83   C84   S    
C40   C56   T    
C67   H23   S    
C85   H74   S    
C84   H68   S    
C83   H70   S    
C81   H64   S    
C73   H40   S    
C91   H90   S    
C64   H13   S    
C9    C11   A    
C18   C32   A    
C4    C31   S    
O3    C1    A    
C74   H42   S    
C11   C85   S    
C70   H29   S    
C85   H75   S    
C11   C13   A    
C36   C44   S    
C65   H17   S    
C41   C45   S    
O16   V4    S    
C64   H12   S    
C44   C50   S    
C42   C46   S    
C19   C27   A    
C67   H25   S    
C37   C60   S    
C14   C16   A    
C75   H45   S    
C72   H34   S    
C10   C32   A    
C1    O8    A    
C15   C17   A    
C89   H85   S    
C71   H37   S    
C16   C18   A    
C12   C87   S    
C38   C59   S    
C8    C28   A    
C34   C66   S    
C70   H31   S    
C63   H16   S    
C66   H21   S    
C7    C58   S    
C22   C24   A    
C62   H7    S    
C19   C21   A    
C17   C25   A    
C20   C22   A    
C18   C26   A    
O7    V1    S    
C76   H49   S    
C10   C83   S    
C37   C53   T    
C33   C65   S    
C88   H77   S    
C85   C86   S    
C13   H5    S    
C69   H32   S    
C94   H96   S    
O20   V3    S    
C88   H76   S    
C82   H63   S    
C50   C52   S    
C63   C64   S    
C17   C31   A    
O9    V2    S    
C93   H92   S    
O10   V1    S    
C3    C32   S    
O8    V2    S    
C78   H51   S    
C5    C21   A    
C33   C35   S    
C87   C88   S    
C66   H20   S    
C6    C22   A    
O15   C59   A    
C86   H71   S    
C89   H84   S    
C45   C73   S    
C72   H35   S    
C46   C74   S    
