data_mof_unit_4871.cif
_audit_creation_date              2013-03-05T16:04:38-0500
_audit_creation_method            fapswitch 2.2
_symmetry_space_group_name_H-M    P1
_symmetry_Int_Tables_number       1
_space_group_crystal_system       triclinic
_cell_length_a                    9.549828
_cell_length_b                    10.851921
_cell_length_c                    15.31711
_cell_angle_alpha                 88.742577
_cell_angle_beta                  74.033975
_cell_angle_gamma                 88.658399
_cell_volume                      1525.52323333

loop_
_atom_site_label
_atom_site_type_symbol
_atom_site_description
_atom_site_fract_x
_atom_site_fract_y
_atom_site_fract_z
_atom_type_partial_charge
O1    O     O_R   0.118740 0.319660 0.500000 -0.537658
O2    O     O_R   0.881260 0.680340 0.500000 -0.597151
O3    O     O_R   0.881170 0.319630 0.500010 -0.583369
O4    O     O_R   0.118830 0.680370 0.499990 -0.589839
C1    C     C_R   0.001567 0.262145 0.500476 0.851543
C2    C     C_R   0.998897 0.737830 0.498349 0.811431
O5    O     O_R   0.055570 0.500030 0.629830 -0.513245
O6    O     O_R   0.944430 0.499970 0.370170 -0.576244
O7    O     O_R   0.818000 0.500000 0.629840 -0.566199
O8    O     O_R   0.182000 0.500000 0.370160 -0.533608
C3    C     C_R   0.917654 0.505751 0.672353 0.924266
C4    C     C_R   0.082610 0.496355 0.326860 0.894284
Cu1   Cu    Cu3+1 0.140660 0.500020 0.500000 1.040659
Cu2   Cu    Cu3+1 0.859340 0.499980 0.500000 0.993862
C5    C     C_R   0.869383 0.539578 0.768549 -0.239480
C6    C     C_R   0.128691 0.483084 0.226428 -0.228971
C7    C     C_R   0.863956 0.686127 0.887533 0.337545
C8    C     C_R   0.092387 0.392772 0.089529 0.365176
C9    C     C_R   0.931443 0.639513 0.800210 0.244920
C10   C     C_R   0.036862 0.426759 0.181540 0.290621
C11   C     C_R   0.742703 0.487106 0.823504 0.324332
C12   C     C_R   0.269577 0.517534 0.176122 0.337237
C13   C     C_R   0.653992 0.555135 0.897218 -0.135793
C14   C     C_R   0.309986 0.513273 0.079749 -0.149815
C15   C     C_R   0.718752 0.652918 0.931805 -0.179171
C16   C     C_R   0.227543 0.439753 0.037269 -0.162571
C17   C     C_R   0.504470 0.527757 0.938100 -0.121235
C18   C     C_R   0.436831 0.572675 0.025666 -0.137483
C19   C     C_R   0.495157 0.679264 0.054220 0.322284
C20   C     C_R   0.417255 0.462071 0.893665 0.318988
C21   C     C_R   0.634735 0.718516 0.007667 0.500911
C22   C     C_R   0.281764 0.416701 0.943146 0.500443
C23   C     C_R   0.870719 0.067852 0.528745 -0.218680
C24   C     C_R   0.129954 0.932098 0.468719 -0.237264
H1    H     H_    0.769132 0.119438 0.552244 0.194197
H2    H     H_    0.231509 0.880382 0.445570 0.202767
C25   C     C_R   0.865255 0.940909 0.525061 0.390720
C26   C     C_R   0.135432 0.059087 0.472577 0.406814
C27   C     C_R   0.996513 0.871857 0.496053 -0.208610
C28   C     C_R   0.004145 0.128126 0.501545 -0.194310
C29   C     C_R   0.551778 0.423209 0.557109 -0.156255
C30   C     C_R   0.446585 0.576802 0.443677 -0.051884
H3    H     H_    0.590772 0.362149 0.602467 0.180666
H4    H     H_    0.407510 0.638451 0.398664 0.199207
C31   C     C_R   0.401784 0.423154 0.557752 0.527971
C32   C     C_R   0.593997 0.578277 0.443203 0.475936
N1    N     N_R   0.352080 0.500030 0.499980 -0.211188
N2    N     N_R   0.647920 0.499970 0.500020 -0.226153
O9    O     O_3   0.687759 0.822260 0.037843 -0.493944
C33   C     C_3   0.650394 0.926522 0.991661 -0.135819
H5    H     H_    0.530181 0.939843 0.007488 0.157538
H6    H     H_    0.698742 0.920383 0.916910 0.138795
H7    H     H_    0.694918 0.009478 0.014723 0.189012
O10   O     O_3   0.209096 0.340886 0.899389 -0.512355
C34   C     C_3   0.120193 0.414517 0.858805 -0.118904
H8    H     H_    0.058121 0.353020 0.826747 0.189765
H9    H     H_    0.186085 0.475680 0.804477 0.201233
H10   H     H_    0.039923 0.470020 0.910260 0.140473
O11   O     O_3   0.368235 0.549455 0.222631 -0.676999
H11   H     H_    0.466766 0.521709 0.187325 0.329721
O12   O     O_3   0.711504 0.368874 0.804012 -0.698241
H12   H     H_    0.655328 0.328793 0.861309 0.345325
O13   O     O_3   0.898120 0.392589 0.230180 -0.566611
C35   C     C_3   0.796711 0.475301 0.207558 -0.218509
H13   H     H_    0.820904 0.572864 0.218146 0.192390
H14   H     H_    0.686817 0.455425 0.252651 0.198935
H15   H     H_    0.792757 0.463512 0.136344 0.152880
O14   O     O_3   0.059775 0.688607 0.746537 -0.579920
C36   C     C_3   0.029455 0.806401 0.714433 -0.247381
H16   H     H_    0.934297 0.805769 0.685693 0.151642
H17   H     H_    0.125583 0.835780 0.659468 0.194245
H18   H     H_    0.010464 0.875873 0.768807 0.181787
O15   O     O_3   0.935830 0.765926 0.928817 -0.682352
H19   H     H_    0.041588 0.761878 0.897917 0.346646
O16   O     O_3   0.015878 0.314716 0.049935 -0.686666
H20   H     H_    0.937982 0.274038 0.097369 0.360608
O17   O     O_3   0.414708 0.753949 0.122564 -0.659862
H21   H     H_    0.310242 0.746307 0.125697 0.337182
O18   O     O_3   0.454297 0.449095 0.800606 -0.694667
H22   H     H_    0.509403 0.522694 0.772228 0.343859
O19   O     O_3   0.731062 0.887256 0.553442 -0.709790
H23   H     H_    0.715403 0.847835 0.499235 0.361789
O20   O     O_3   0.269720 0.112726 0.445083 -0.690641
H24   H     H_    0.284483 0.151994 0.499604 0.351848
O21   O     O_3   0.304277 0.346745 0.616118 -0.708072
H25   H     H_    0.356178 0.298295 0.653620 0.323124
O22   O     O_3   0.677345 0.662461 0.384015 -0.759694
H26   H     H_    0.778445 0.654319 0.385380 0.371024

loop_
_geom_bond_atom_site_label_1
_geom_bond_atom_site_label_2
_geom_bond_distance
_ccdc_geom_bond_type
C15   C21   1.413292 A    
C26   C28   1.412333 A    
O22   H26   0.973363 S    
C16   C22   1.417131 A    
C8    O16   1.383638 S    
C26   O20   1.373999 S    
O15   H19   0.990884 S    
C8    C16   1.418147 A    
C34   H8    1.109469 S    
O19   H23   0.990782 S    
O21   H25   0.991591 S    
C5    C9    1.404932 A    
O1    C1    1.292187 A    
C18   C19   1.423340 A    
C14   C16   1.419091 A    
C30   C32   1.406243 A    
O4    Cu1   1.963357 S    
C36   H17   1.109013 S    
C23   H1    1.084168 S    
C3    C5    1.469847 S    
C4    C6    1.488347 S    
O14   C36   1.411769 S    
C33   H6    1.113400 S    
C13   C17   1.427970 A    
C11   O12   1.381214 S    
O12   H12   0.991145 S    
C6    C10   1.410904 A    
O11   H11   0.991184 S    
Cu1   Cu2   2.686569 S    
C17   C20   1.423376 A    
C7    O15   1.382581 S    
C29   H3    1.082128 S    
C25   O19   1.373906 S    
O2    C2    1.291671 A    
C30   H4    1.082493 S    
C21   O9    1.384129 S    
C22   O10   1.383662 S    
O5    C3    1.299532 A    
C31   N1    1.372754 A    
C32   N2    1.392221 A    
C33   H7    1.109278 S    
C24   C27   1.400028 A    
C23   C28   1.400004 A    
C35   H15   1.112049 S    
O4    C2    1.297292 A    
C12   O11   1.382218 S    
Cu1   N1    2.018942 S    
O7    Cu2   1.918113 S    
Cu2   N2    2.018942 S    
O17   H21   0.990861 S    
C23   C25   1.382763 A    
O13   C35   1.412030 S    
C6    C12   1.408645 A    
C35   H14   1.109171 S    
C36   H18   1.110392 S    
C31   O21   1.378231 S    
O16   H20   0.989992 S    
O20   H24   0.990992 S    
C5    C11   1.395469 A    
O6    C4    1.303870 A    
C33   H5    1.112778 S    
C9    O14   1.385188 S    
O7    C3    1.295799 A    
O3    Cu2   1.963357 S    
O8    C4    1.300599 A    
C20   O18   1.380508 S    
C34   H9    1.111847 S    
C12   C14   1.420859 A    
C34   H10   1.112839 S    
O1    Cu1   1.973282 S    
C32   O22   1.375048 S    
O10   C34   1.408003 S    
O6    Cu2   1.930270 S    
C24   C26   1.383464 A    
C14   C18   1.424857 A    
O3    C1    1.296887 A    
O8    Cu1   1.918114 S    
C7    C15   1.417024 A    
C35   H13   1.113654 S    
C10   O13   1.384165 S    
C11   C13   1.420785 A    
C25   C27   1.412238 A    
C20   C22   1.401785 A    
C7    C9    1.414374 A    
C29   N2    1.365164 A    
C8    C10   1.416316 A    
C30   N1    1.351977 A    
C13   C15   1.422955 A    
C36   H16   1.113626 S    
O2    Cu2   1.973282 S    
O18   H22   0.991155 S    
O5    Cu1   1.930270 S    
C19   O17   1.381518 S    
C24   H2    1.084126 S    
C19   C21   1.398930 A    
O9    C33   1.411626 S    
C1    C28   1.453802 S    
C17   C18   1.411078 A    
C29   C31   1.429758 A    
C2    C27   1.453897 S    
