data_mof_unit_691.cif
_audit_creation_date              2012-10-26T21:00:15-0400
_audit_creation_method            fapswitch 2.2
_symmetry_space_group_name_H-M    P1
_symmetry_Int_Tables_number       1
_space_group_crystal_system       triclinic
_cell_length_a                    19.348346
_cell_length_b                    8.674945
_cell_length_c                    7.522306
_cell_angle_alpha                 102.464734
_cell_angle_beta                  96.580749
_cell_angle_gamma                 93.358089
_cell_volume                      1220.17901142

loop_
_atom_site_label
_atom_site_type_symbol
_atom_type_description
_atom_site_fract_x
_atom_site_fract_y
_atom_site_fract_z
_atom_type_partial_charge
C1    C     C_R   0.497619 0.199951 0.453584 0.545282
C2    C     C_R   0.806872 0.430762 0.337304 -0.134154
C3    C     C_R   0.145238 0.484964 0.493472 0.021810
C4    C     C_R   0.853873 0.485974 0.497335 0.020689
C5    C     C_R   0.174492 0.531066 0.349281 -0.103517
C6    C     C_R   0.828897 0.554581 0.660946 -0.103197
C7    C     C_R   0.246955 0.544322 0.347844 0.004905
C8    C     C_R   0.757436 0.568477 0.668251 0.007404
C9    C     C_R   0.291020 0.504429 0.494043 0.027390
C10   C     C_R   0.709454 0.505848 0.506146 0.024396
C11   C     C_R   0.929300 0.476971 0.494331 0.341991
C12   C     C_R   0.503417 0.799884 0.546144 0.534743
C13   C     C_R   0.069180 0.476618 0.493008 0.342663
C14   C     C_3   0.273670 0.606393 0.191789 -0.261911
C15   C     C_3   0.310585 0.772983 0.259253 -0.404735
C16   C     C_3   0.736415 0.654980 0.849521 -0.265432
C17   C     C_3   0.710135 0.815607 0.836830 -0.421118
C18   C     C_2   0.494714 0.031776 0.427396 -0.158640
C19   C     C_2   0.507935 0.967613 0.571033 -0.161768
C20   C     C_R   0.367503 0.503048 0.498541 0.531406
C21   C     C_R   0.632778 0.503975 0.502273 0.536704
C22   C     C_R   0.260878 0.460697 0.639276 -0.153149
C23   C     C_R   0.735560 0.439761 0.341964 -0.156252
C24   C     C_R   0.188929 0.451900 0.639576 -0.130861
Cu1   Cu    Cu3+1 0.507710 0.517380 0.684380 0.934963
Cu2   Cu    Cu3+1 0.492290 0.482620 0.315620 1.001818
H1    H     H_    0.293011 0.430417 0.752360 0.120904
H2    H     H_    0.330646 0.812724 0.142551 0.143898
H3    H     H_    0.273309 0.856977 0.316522 0.149468
H4    H     H_    0.307673 0.523768 0.117384 0.178604
H5    H     H_    0.229740 0.613565 0.085555 0.130086
H6    H     H_    0.751523 0.890947 0.797286 0.155684
H7    H     H_    0.662911 0.802427 0.734558 0.170007
H8    H     H_    0.696862 0.876686 0.972641 0.127842
H9    H     H_    0.697815 0.580398 0.898877 0.166941
H10   H     H_    0.781760 0.678369 0.959633 0.136350
H11   H     H_    0.496833 0.238816 0.914457 0.238969
H12   H     H_    0.700609 0.392295 0.216255 0.130168
H13   H     H_    0.421584 0.313816 0.822755 0.256683
H14   H     H_    0.604304 0.686104 0.055091 0.207513
H15   H     H_    0.530241 0.776339 0.034714 0.226640
H16   H     H_    0.167454 0.416786 0.753093 0.134723
H17   H     H_    0.825101 0.378150 0.208826 0.137194
H18   H     H_    0.140529 0.561040 0.239108 0.138128
H19   H     H_    0.865749 0.601515 0.783247 0.137842
H20   H     H_    0.480766 0.960311 0.288730 0.126918
H21   H     H_    0.523007 0.038184 0.708820 0.112051
H22   H     H_    0.355135 0.776119 0.366875 0.170825
N1    N     N_R   0.025869 0.465272 0.334538 -0.222033
N2    N     N_R   0.972553 0.486593 0.652458 -0.222472
N3    N     N_R   0.957168 0.465001 0.335027 -0.223989
N4    N     N_R   0.041204 0.485993 0.651815 -0.224710
N5    N     N_2   0.480680 0.456420 0.038530 -0.010637
N6    N     N_2   0.519320 0.543580 0.961470 -0.053629
N7    N     N_3   0.454823 0.306598 0.938956 -0.492174
N8    N     N_3   0.552071 0.680971 0.077151 -0.448158
O1    O     O_R   0.505010 0.286130 0.619770 -0.529224
O2    O     O_R   0.494990 0.713870 0.380230 -0.476327
O3    O     O_R   0.491990 0.256780 0.308370 -0.481930
O4    O     O_R   0.508010 0.743220 0.691630 -0.520566
O5    O     O_R   0.406650 0.514660 0.655750 -0.520034
O6    O     O_R   0.593350 0.485340 0.344250 -0.486871
O7    O     O_R   0.393640 0.485310 0.344340 -0.494642
O8    O     O_R   0.606360 0.514690 0.655660 -0.511475

loop_
_geom_bond_atom_site_label_1
_geom_bond_atom_site_label_2
_ccdc_geom_bond_type
N2    N4    A    
Cu2   O7    S    
C5    C7    A    
H15   N8    S    
Cu1   O4    S    
C1    O1    A    
C10   C23   A    
C23   H12   S    
C24   H16   S    
Cu2   O3    S    
C14   H5    S    
C9    C20   S    
C2    C4    A    
C3    C13   S    
C2    H17   S    
C12   O2    A    
C20   O7    A    
N5    N7    S    
C1    C18   S    
C8    C16   S    
C11   N2    A    
Cu1   O5    S    
N5    N6    D    
C16   H10   S    
C4    C11   S    
Cu2   O2    S    
C3    C24   A    
C17   H7    S    
C15   H22   S    
C14   H4    S    
C13   N1    A    
C18   H20   S    
C12   C19   S    
C4    C6    A    
C16   H9    S    
C6    H19   S    
C5    H18   S    
C15   H3    S    
C22   C24   A    
C22   H1    S    
C1    O3    A    
C10   C21   S    
Cu2   O6    S    
N6    N8    S    
C9    C22   A    
C11   N3    A    
C17   H8    S    
C13   N4    A    
C15   H2    S    
C12   O4    A    
Cu2   N5    S    
C3    C5    A    
Cu1   O1    S    
C20   O5    A    
Cu1   N6    S    
C8    C10   A    
C18   C19   D    
C19   H21   S    
C2    C23   A    
C7    C9    A    
C17   H6    S    
C14   C15   S    
C21   O8    A    
C6    C8    A    
C21   O6    A    
Cu1   Cu2   S    
C7    C14   S    
H13   N7    S    
N1    N3    A    
C16   C17   S    
H14   N8    S    
Cu1   O8    S    
H11   N7    S    
