data_mof_unit_2216.cif
_audit_creation_date              2012-12-10T17:23:09-0500
_audit_creation_method            fapswitch 2.2
_symmetry_space_group_name_H-M    P1
_symmetry_Int_Tables_number       1
_space_group_crystal_system       triclinic
_cell_length_a                    15.858295
_cell_length_b                    10.77934
_cell_length_c                    9.614941
_cell_angle_alpha                 90.025317
_cell_angle_beta                  90.03284
_cell_angle_gamma                 92.595241
_cell_volume                      1641.91056778

loop_
_atom_site_label
_atom_site_type_symbol
_atom_type_description
_atom_site_fract_x
_atom_site_fract_y
_atom_site_fract_z
_atom_type_partial_charge
C1    C     C_R   0.497107 0.262609 0.500008 0.786768
C2    C     C_3   0.083027 0.501791 0.500533 0.149842
C3    C     C_3   0.975631 0.586333 0.586784 0.318106
C4    C     C_3   0.917160 0.501371 0.499735 0.129087
C5    C     C_3   0.031985 0.614546 0.459745 -0.164778
C6    C     C_3   0.972958 0.526937 0.371023 -0.197755
C7    C     C_1   0.174694 0.501109 0.500260 -0.062855
C8    C     C_1   0.825412 0.501544 0.500046 -0.063797
C9    C     C_R   0.362120 0.120181 0.644351 -0.186935
C10   C     C_R   0.299052 0.051014 0.714396 -0.143293
C11   C     C_R   0.299103 0.921995 0.714383 -0.138774
C12   C     C_R   0.339981 0.499692 0.499967 0.802695
C13   C     C_R   0.362295 0.861326 0.644474 -0.170458
C14   C     C_R   0.427712 0.929514 0.574449 0.099270
C15   C     C_R   0.427597 0.060760 0.574367 0.097238
C16   C     C_R   0.491416 0.128397 0.499861 -0.099821
C17   C     C_R   0.551280 0.067471 0.422224 -0.193609
C18   C     C_R   0.551423 0.939482 0.422331 -0.206918
C19   C     C_R   0.491676 0.870486 0.500033 -0.086892
C20   C     C_R   0.611982 0.665490 0.143942 -0.134942
C21   C     C_R   0.666584 0.746569 0.071931 -0.214300
C22   C     C_R   0.666605 0.746576 0.928616 -0.204245
C23   C     C_R   0.497511 0.737073 0.500034 0.762512
C24   C     C_R   0.611965 0.665581 0.856374 -0.130574
C25   C     C_R   0.554951 0.581441 0.925333 0.206438
C26   C     C_R   0.554950 0.581386 0.074804 0.210680
C27   C     C_R   0.447735 0.422491 0.073733 -0.055357
C28   C     C_R   0.447752 0.422524 0.925962 -0.055433
C29   C     C_R   0.660030 0.500534 0.500062 0.806993
C30   C     C_3   0.968650 0.389149 0.540139 -0.201490
C31   C     C_3   0.025741 0.414569 0.411269 -0.142267
C32   C     C_1   0.250259 0.500416 0.500041 -0.185926
C33   C     C_1   0.749807 0.501213 0.500136 -0.175412
C34   C     C_3   0.027650 0.475899 0.629888 -0.206782
Cu1   Cu    Cu3+1 0.499990 0.499990 0.640660 0.929172
Cu2   Cu    Cu3+1 0.500010 0.500010 0.359340 0.937582
H1    H     H_    0.048060 0.343214 0.338392 0.133846
H2    H     H_    0.249334 0.868589 0.767249 0.133568
H3    H     H_    0.358101 0.761024 0.643829 0.153029
H4    H     H_    0.599661 0.894001 0.363932 0.136811
H5    H     H_    0.404861 0.358862 0.128662 0.138142
H6    H     H_    0.617526 0.672943 0.253558 0.190957
H7    H     H_    0.709344 0.809781 0.128092 0.145453
H8    H     H_    0.709419 0.809749 0.872650 0.151687
H9    H     H_    0.617458 0.673130 0.746744 0.196210
H10   H     H_    0.404890 0.358910 0.870839 0.133716
H11   H     H_    0.941553 0.296789 0.572161 0.143234
H12   H     H_    0.949368 0.547048 0.265043 0.141695
H13   H     H_    0.058812 0.707159 0.428069 0.130377
H14   H     H_    0.050898 0.456649 0.736294 0.132162
H15   H     H_    0.599396 0.119529 0.363729 0.151992
H16   H     H_    0.357784 0.219953 0.643472 0.136876
H17   H     H_    0.249277 0.097722 0.767343 0.130384
N1    N     N_R   0.500800 0.501210 0.147910 -0.198827
N2    N     N_R   0.500830 0.501290 0.852040 -0.198568
O1    O     O_R   0.499990 0.319640 0.618810 -0.576590
O2    O     O_R   0.500000 0.319660 0.381240 -0.574619
O3    O     O_R   0.379070 0.499980 0.618770 -0.587907
O4    O     O_R   0.379080 0.500000 0.381190 -0.568486
O5    O     O_R   0.500000 0.680340 0.618760 -0.602287
O6    O     O_R   0.500010 0.680360 0.381190 -0.589974
O7    O     O_R   0.620920 0.500000 0.618810 -0.588312
O8    O     O_R   0.620930 0.500020 0.381230 -0.591310
N3    N     N_2   0.945718 0.678716 0.681780 -0.432299
H18   H     H_    0.900548 0.643166 0.749752 0.250504
C35   C     C_3   0.011326 0.753776 0.749931 -0.718062
H19   H     H_    0.982234 0.825547 0.814802 0.228743
H20   H     H_    0.052806 0.801602 0.671756 0.234040
H21   H     H_    0.049719 0.695035 0.818005 0.220044

loop_
_geom_bond_atom_site_label_1
_geom_bond_atom_site_label_2
_ccdc_geom_bond_type
Cu1   O1    S    
C11   H2    S    
C35   H20   S    
C24   C25   A    
C29   O8    A    
Cu2   O6    S    
C1    O2    A    
Cu2   O8    S    
C9    C10   A    
C27   H5    S    
C19   C23   S    
C2    C7    S    
C14   C15   A    
C4    C8    S    
Cu2   O4    S    
C12   O3    A    
N3    H18   S    
C17   H15   S    
C17   C18   A    
C9    C15   A    
C27   N1    A    
C4    C30   S    
C20   C26   A    
C1    C16   S    
C13   C14   A    
C12   C32   S    
C20   H6    S    
C11   C13   A    
C28   H10   S    
Cu1   O5    S    
C23   O5    A    
C9    H16   S    
C6    H12   S    
Cu1   O3    S    
C5    C6    S    
C24   H9    S    
C26   N1    A    
C21   C22   A    
C28   N2    A    
C35   H19   S    
Cu1   O7    S    
C8    C33   T    
C3    N3    S    
C30   C31   S    
C2    C34   S    
C22   C24   A    
C5    H13   S    
C34   H14   S    
C2    C5    S    
C13   H3    S    
C10   C11   A    
C30   C34   S    
Cu1   N2    S    
C15   C16   A    
C35   H21   S    
C29   C33   S    
C30   H11   S    
C23   O6    A    
Cu2   N1    S    
C20   C21   A    
Cu2   O2    S    
C4    C6    S    
C18   C19   A    
C27   C28   A    
C10   H17   S    
C18   H4    S    
C29   O7    A    
C16   C17   A    
C6    C31   S    
C7    C32   T    
C3    C34   S    
C25   C26   A    
C21   H7    S    
C12   O4    A    
C14   C19   A    
C1    O1    A    
C22   H8    S    
C3    C4    S    
C25   N2    A    
C31   H1    S    
C2    C31   S    
C3    C5    S    
Cu1   Cu2   S    
N3    C35   S    
