data_mof_unit_2496.cif
_audit_creation_date              2012-12-11T15:31:34-0500
_audit_creation_method            fapswitch 2.2
_symmetry_space_group_name_H-M    P1
_symmetry_Int_Tables_number       1
_space_group_crystal_system       triclinic
_cell_length_a                    6.942266
_cell_length_b                    14.759195
_cell_length_c                    21.314248
_cell_angle_alpha                 74.882636
_cell_angle_beta                  90.365631
_cell_angle_gamma                 90.333881
_cell_volume                      2108.26639797

loop_
_atom_site_label
_atom_site_type_symbol
_atom_type_description
_atom_site_fract_x
_atom_site_fract_y
_atom_site_fract_z
_atom_type_partial_charge
O1    O     O_R   0.648150 0.130050 0.214300 -0.533601
O2    O     O_R   0.351850 0.869950 0.785700 -0.533601
O3    O     O_R   0.320490 0.006660 0.340150 -0.547404
O4    O     O_R   0.679510 0.993340 0.659850 -0.547405
O5    O     O_R   0.146100 0.869940 0.285700 -0.539942
O6    O     O_R   0.853900 0.130060 0.714300 -0.539942
C1    C     C_R   0.489340 0.001580 0.367155 0.661883
C2    C     C_R   0.510660 0.998420 0.632845 0.661883
O7    O     O_R   0.318690 0.137980 0.218120 -0.543958
O8    O     O_R   0.681310 0.862020 0.781880 -0.543958
O9    O     O_R   0.144280 0.002190 0.162800 -0.540601
O10   O     O_R   0.855720 0.997810 0.837200 -0.540602
C3    C     C_R   0.487715 0.175615 0.206095 0.704010
C4    C     C_R   0.512285 0.824385 0.793905 0.704010
O11   O     O_R   0.649960 0.997790 0.337200 -0.546217
O12   O     O_R   0.350040 0.002210 0.662800 -0.546217
O13   O     O_3   0.479300 0.955290 0.231990 -0.362312
O14   O     O_3   0.520700 0.044710 0.768010 -0.362312
V1    V     V_3+5 0.206040 0.008290 0.253340 1.448827
V2    V     V_3+5 0.793960 0.991710 0.746660 1.448827
O15   O     O_R   0.814320 0.993320 0.159850 -0.531519
O16   O     O_R   0.185680 0.006680 0.840150 -0.531519
C5    C     C_R   0.982789 0.998169 0.132955 0.786450
C6    C     C_R   0.017211 0.001831 0.867045 0.786450
O17   O     O_R   0.816120 0.862000 0.281880 -0.539020
O18   O     O_R   0.183880 0.138000 0.718120 -0.539020
C7    C     C_R   0.984955 0.824360 0.294026 0.699528
C8    C     C_R   0.015044 0.175640 0.705974 0.699528
V3    V     V_3+5 0.705540 0.991700 0.246660 1.482160
V4    V     V_3+5 0.294460 0.008300 0.753340 1.482160
O19   O     O_3   0.982150 0.044700 0.268010 -0.380031
O20   O     O_3   0.017850 0.955300 0.731990 -0.380031
C9    C     C_R   0.995457 0.722438 0.320947 -0.075667
C10   C     C_R   0.004543 0.277562 0.679052 -0.075667
C11   C     C_R   0.053202 0.566218 0.309403 -0.194864
C12   C     C_R   0.946797 0.433782 0.690597 -0.194864
C13   C     C_R   0.033778 0.662295 0.281284 -0.040899
C14   C     C_R   0.966222 0.337705 0.718716 -0.040899
C15   C     C_R   0.977481 0.686130 0.388204 -0.226165
C16   C     C_R   0.022519 0.313870 0.611796 -0.226165
C17   C     C_R   0.999424 0.589047 0.417948 0.087526
C18   C     C_R   0.000576 0.410953 0.582052 0.087526
C19   C     C_R   0.037524 0.529467 0.376937 0.129721
C20   C     C_R   0.962476 0.470533 0.623063 0.129721
C21   C     C_R   0.986968 0.549431 0.486776 0.062871
C22   C     C_R   0.013032 0.450569 0.513224 0.062871
C23   C     C_R   0.050147 0.394684 0.469955 -0.193873
C24   C     C_R   0.949853 0.605316 0.530045 -0.193873
C25   C     C_R   0.061683 0.433508 0.403424 -0.197764
C26   C     C_R   0.938317 0.566492 0.596575 -0.197764
H1    H     H_    0.090986 0.387667 0.372304 0.120925
H2    H     H_    0.909014 0.612333 0.627695 0.120925
H3    H     H_    0.050175 0.263670 0.584282 0.095207
H4    H     H_    0.949825 0.736329 0.415718 0.095207
H5    H     H_    0.082940 0.519964 0.278553 0.121237
H6    H     H_    0.917060 0.480036 0.721447 0.121238
H7    H     H_    0.071773 0.320050 0.485675 0.117881
H8    H     H_    0.928227 0.679950 0.514325 0.117881
C27   C     C_3   0.819445 0.999323 0.976347 -0.259137
C28   C     C_3   0.180555 0.000677 0.023653 -0.259137
C29   C     C_3   0.906839 0.921646 0.033065 -0.257695
C30   C     C_3   0.093161 0.078353 0.966935 -0.257696
H9    H     H_    0.831628 0.856827 0.060236 0.178154
H10   H     H_    0.168372 0.143173 0.939764 0.178154
H11   H     H_    0.670546 0.000057 0.956877 0.167772
H12   H     H_    0.329453 0.999943 0.043123 0.167772
C31   C     C_3   0.992335 0.998269 0.062581 -0.195002
C32   C     C_3   0.007665 0.001731 0.937419 -0.195002
C33   C     C_3   0.906546 0.074734 0.006564 0.710678
C34   C     C_3   0.093454 0.925266 0.993435 0.710678
C35   C     C_3   0.681208 0.994422 0.479553 -0.120914
C36   C     C_3   0.318792 0.005578 0.520447 -0.120914
C37   C     C_3   0.602961 0.073440 0.507946 -0.136989
C38   C     C_3   0.397039 0.926560 0.492053 -0.136989
H13   H     H_    0.687828 0.134059 0.514983 0.101197
H14   H     H_    0.312172 0.865941 0.485017 0.101197
H15   H     H_    0.830730 0.989878 0.462472 0.106236
H16   H     H_    0.169270 0.010122 0.537528 0.106236
C39   C     C_3   0.502451 0.998998 0.562247 -0.001030
C40   C     C_3   0.497549 0.001002 0.437753 -0.001030
C41   C     C_3   0.580758 0.919994 0.534666 -0.143766
C42   C     C_3   0.419241 0.080006 0.465334 -0.143766
H17   H     H_    0.647011 0.853915 0.563707 0.097823
H18   H     H_    0.352988 0.146085 0.436293 0.097823
C43   C     C_R   0.497378 0.277028 0.178509 -0.039421
C44   C     C_R   0.502622 0.722972 0.821491 -0.039421
C45   C     C_R   0.521749 0.433459 0.192255 -0.153651
C46   C     C_R   0.478251 0.566541 0.807745 -0.153651
C47   C     C_R   0.511685 0.337014 0.218978 -0.183042
C48   C     C_R   0.488315 0.662986 0.781022 -0.183043
C49   C     C_R   0.492137 0.313200 0.111163 -0.164575
C50   C     C_R   0.507863 0.686800 0.888837 -0.164575
C51   C     C_R   0.500825 0.411212 0.082144 0.084366
C52   C     C_R   0.499175 0.588788 0.917855 0.084366
C53   C     C_R   0.517086 0.471849 0.124183 0.078499
C54   C     C_R   0.482914 0.528150 0.875816 0.078499
C55   C     C_R   0.494333 0.450351 0.013085 0.038641
C56   C     C_R   0.505667 0.549649 0.986915 0.038641
C57   C     C_R   0.523666 0.606835 0.030563 -0.167339
C58   C     C_R   0.476333 0.393165 0.969437 -0.167339
C59   C     C_R   0.528904 0.569425 0.097600 -0.063614
C60   C     C_R   0.471096 0.430575 0.902400 -0.063614
H19   H     H_    0.518225 0.737946 0.916602 0.126281
H20   H     H_    0.481775 0.262054 0.083398 0.126281
H21   H     H_    0.484450 0.690902 0.728698 0.100969
H22   H     H_    0.515550 0.309098 0.271302 0.100969
H23   H     H_    0.533313 0.477662 0.225450 0.127355
H24   H     H_    0.466687 0.522337 0.774549 0.127355
H25   H     H_    0.534714 0.682048 0.014263 0.153585
H26   H     H_    0.465286 0.317952 0.985737 0.153585
C61   C     C_1   0.547839 0.634119 0.138071 0.336950
N1    N     N_1   0.563018 0.685887 0.170333 -0.346998
C62   C     C_1   0.452161 0.365881 0.861929 0.336950
N2    N     N_1   0.436982 0.314113 0.829667 -0.346998
C63   C     C_1   0.944902 0.302129 0.788190 0.310711
N3    N     N_1   0.927706 0.273651 0.843845 -0.321837
C64   C     C_1   0.055098 0.697871 0.211810 0.310712
N4    N     N_1   0.072294 0.726349 0.156155 -0.321837
F1    F     F_    0.808627 0.152623 0.013889 -0.688595
F2    F     F_    0.191373 0.847377 0.986111 -0.688595

loop_
_geom_bond_atom_site_label_1
_geom_bond_atom_site_label_2
_ccdc_geom_bond_type
C29   C34   S    
C46   C54   A    
C58   H26   S    
C54   C60   A    
O13   V3    S    
C61   N1    T    
C49   H20   S    
O4    C2    A    
V1    O19   S    
C55   C56   A    
C43   C49   A    
C23   C25   A    
C21   C22   A    
C7    C9    S    
O9    V1    S    
C9    C15   A    
C38   H14   S    
C10   C16   A    
C11   C13   A    
C36   C39   S    
O3    C1    A    
C46   H24   S    
C15   H4    S    
C49   C51   A    
C52   C56   A    
O12   V4    S    
C63   N3    T    
C57   H25   S    
C28   C30   S    
C18   C22   A    
C5    C31   S    
C29   H9    S    
O7    C3    A    
C36   H16   S    
C50   H19   S    
O5    C7    A    
O7    V1    S    
O6    C8    A    
C28   C31   S    
C34   F2    S    
C25   H1    S    
C45   C53   A    
C47   H22   S    
C2    C39   S    
C26   H2    S    
O3    V1    S    
O14   V4    S    
C11   C19   A    
C30   H10   S    
C24   C26   A    
C28   H12   S    
C2    O12   A    
C38   C40   S    
C17   C19   A    
C18   C20   A    
O1    V3    S    
C35   C40   S    
C41   H17   S    
O11   V3    S    
O17   V3    S    
C27   C29   S    
C11   H5    S    
C4    C44   S    
C36   C38   S    
C44   C48   A    
O8    V2    S    
C39   C41   S    
C43   C47   A    
C19   C25   A    
C1    O11   A    
O15   V3    S    
C33   F1    S    
C9    C13   A    
C30   C33   S    
C31   C33   S    
C12   H6    S    
C27   C32   S    
C23   H7    S    
C29   C31   S    
C28   C34   S    
O10   V2    S    
C58   C60   A    
C37   C39   S    
C13   C64   S    
C52   C54   A    
C27   C33   S    
C40   C42   S    
C57   C59   A    
C46   C48   A    
C16   H3    S    
C42   H18   S    
O15   C5    A    
O8    C4    A    
O16   C6    A    
C12   C20   A    
O1    C3    A    
C37   H13   S    
C38   C41   S    
C12   C14   A    
C51   C55   A    
C37   C42   S    
C35   H15   S    
C55   C58   A    
C35   C37   S    
C62   N2    T    
V2    O20   S    
C21   C24   A    
C20   C26   A    
C22   C23   A    
O16   V4    S    
C10   C14   A    
C48   H21   S    
C16   C18   A    
C24   H8    S    
O5    V1    S    
O17   C7    A    
O6    V2    S    
O10   C6    A    
O18   C8    A    
C30   C32   S    
O2    V4    S    
C45   C47   A    
V3    O19   S    
C60   C62   S    
C44   C50   A    
C64   N4    T    
C27   H11   S    
V4    O20   S    
C14   C63   S    
C50   C52   A    
C59   C61   S    
O9    C5    A    
O13   V1    S    
O14   V2    S    
O2    C4    A    
C6    C32   S    
C8    C10   S    
O4    V2    S    
C45   H23   S    
C15   C17   A    
C51   C53   A    
C56   C57   A    
C3    C43   S    
C32   C34   S    
C17   C21   A    
C36   C42   S    
C53   C59   A    
C1    C40   S    
C35   C41   S    
O18   V4    S    
