data_mof_unit_3919.cif
_audit_creation_date              2013-03-05T16:44:35-0500
_audit_creation_method            fapswitch 2.2
_symmetry_space_group_name_H-M    P1
_symmetry_Int_Tables_number       1
_space_group_crystal_system       triclinic
_cell_length_a                    27.757761
_cell_length_b                    10.682105
_cell_length_c                    9.83249
_cell_angle_alpha                 90.074053
_cell_angle_beta                  90.117595
_cell_angle_gamma                 89.970324
_cell_volume                      2915.43560217

loop_
_atom_site_label
_atom_site_type_symbol
_atom_site_description
_atom_site_fract_x
_atom_site_fract_y
_atom_site_fract_z
_atom_type_partial_charge
O1    O     O_R   0.500010 0.316790 0.614690 -0.616264
O2    O     O_R   0.500000 0.316760 0.385350 -0.623708
C1    C     C_R   0.498550 0.259930 0.500006 0.889464
O3    O     O_R   0.428760 0.500040 0.614660 -0.624475
O4    O     O_R   0.428750 0.500000 0.385310 -0.624262
C2    C     C_R   0.405990 0.500407 0.499785 0.871294
Zn1   Zn    Zn3+2 0.500000 0.500020 0.653130 0.955006
Zn2   Zn    Zn3+2 0.500000 0.499980 0.346870 0.947632
O5    O     O_R   0.500000 0.683240 0.614650 -0.608716
O6    O     O_R   0.499990 0.683210 0.385310 -0.633653
O7    O     O_R   0.571250 0.500000 0.614690 -0.618310
O8    O     O_R   0.571240 0.499960 0.385340 -0.621224
C3    C     C_R   0.498723 0.740123 0.500060 0.907899
C4    C     C_R   0.593997 0.499857 0.500148 0.886630
C5    C     C_R   0.178013 0.401109 0.443394 0.504739
O9    O     O_2   0.203315 0.301586 0.397873 -0.555007
N1    N     N_R   0.201593 0.503275 0.493990 -0.357061
C6    C     C_R   0.177318 0.605312 0.542048 0.505042
C7    C     C_R   0.277559 0.497830 0.619844 -0.096843
C8    C     C_R   0.327614 0.497121 0.621480 -0.214311
C9    C     C_R   0.328317 0.508160 0.374697 -0.213606
C10   C     C_R   0.278311 0.509101 0.373390 -0.097433
C11   C     C_R   0.252930 0.503612 0.495827 0.315007
C12   C     C_R   0.101702 0.502821 0.489071 -0.051622
C13   C     C_R   0.127657 0.399061 0.439677 -0.021573
C14   C     C_R   0.103005 0.296000 0.387260 -0.135987
C15   C     C_R   0.126930 0.606951 0.540693 -0.021628
C16   C     C_R   0.353341 0.501777 0.498794 -0.040150
H1    H     H_    0.347258 0.512782 0.278742 0.154839
H2    H     H_    0.259188 0.514135 0.277431 0.142375
H3    H     H_    0.122224 0.216021 0.346538 0.192129
C17   C     C_R   0.646629 0.497964 0.500372 -0.053328
C18   C     C_R   0.974820 0.391723 0.444028 0.046302
C19   C     C_R   0.974077 0.610137 0.527644 0.045611
C20   C     C_R   0.949248 0.500183 0.486328 0.069351
C21   C     C_R   0.948285 0.282948 0.409977 -0.220089
C22   C     C_R   0.898383 0.282160 0.413014 -0.149356
C23   C     C_R   0.873001 0.389215 0.451034 -0.019801
C24   C     C_R   0.898210 0.498529 0.487841 -0.052309
C25   C     C_R   0.872253 0.606141 0.526353 -0.021718
C26   C     C_R   0.821925 0.601980 0.528828 0.518006
N2    N     N_R   0.798426 0.493956 0.495369 -0.355430
C27   C     C_R   0.822664 0.389092 0.455022 0.468355
C28   C     C_R   0.721670 0.492700 0.376948 -0.119548
C29   C     C_R   0.671775 0.495743 0.376962 -0.218158
C30   C     C_R   0.672034 0.496955 0.623943 -0.264624
C31   C     C_R   0.722345 0.492889 0.625093 0.050651
C32   C     C_R   0.747081 0.491382 0.499781 0.284060
O10   O     O_2   0.798017 0.284801 0.420556 -0.567367
C33   C     C_R   0.025817 0.394836 0.438693 0.044525
C34   C     C_R   0.050652 0.502322 0.487131 0.070688
C35   C     C_R   0.025078 0.609160 0.534010 0.044825
C36   C     C_R   0.053095 0.293871 0.386127 -0.217753
H4    H     H_    0.652972 0.496643 0.280332 0.165753
H5    H     H_    0.740833 0.492407 0.281169 0.139009
H6    H     H_    0.879758 0.196472 0.386124 0.190451
H7    H     H_    0.964860 0.195251 0.383202 0.141556
H8    H     H_    0.037123 0.211973 0.340918 0.142785
O11   O     O_2   0.201957 0.705063 0.589917 -0.554917
C37   C     C_R   0.101530 0.709908 0.590301 -0.136342
H9    H     H_    0.346028 0.492735 0.718425 0.153632
H10   H     H_    0.257840 0.493430 0.714640 0.142831
H11   H     H_    0.120157 0.790359 0.632205 0.192022
C38   C     C_R   0.946794 0.717831 0.560922 -0.218252
C39   C     C_R   0.896881 0.715428 0.560754 -0.140320
O12   O     O_2   0.796547 0.704858 0.564013 -0.563959
C40   C     C_R   0.051613 0.711102 0.587560 -0.217216
H12   H     H_    0.962780 0.806792 0.585618 0.141133
H13   H     H_    0.652785 0.497769 0.719748 0.163540
H14   H     H_    0.877647 0.800073 0.588089 0.189833
H15   H     H_    0.035012 0.792815 0.631257 0.143019
C41   C     C_R   0.492013 0.064273 0.623664 0.090536
C42   C     C_R   0.491106 0.128690 0.500764 -0.092150
C43   C     C_R   0.481467 0.064591 0.379171 -0.216559
H16   H     H_    0.477131 0.113357 0.283436 0.163700
C44   C     C_R   0.481622 0.935152 0.379219 -0.225374
H17   H     H_    0.477199 0.886024 0.283537 0.170278
C45   C     C_R   0.491598 0.871531 0.500774 -0.103460
C46   C     C_R   0.492575 0.936578 0.623600 0.122294
C47   C     C_3   0.526983 0.931511 0.741474 -0.113362
C48   C     C_3   0.526132 0.074036 0.741265 -0.520485
H18   H     H_    0.511001 0.888594 0.833935 0.162124
H19   H     H_    0.508466 0.114039 0.832889 0.190570
H20   H     H_    0.560873 0.119068 0.713463 0.206249
C49   C     C_R   0.482453 0.399433 0.071080 0.215114
N3    N     N_R   0.499670 0.499140 0.142800 -0.106191
C50   C     C_R   0.521761 0.593240 0.072347 -0.138205
H21   H     H_    0.538542 0.669592 0.127059 0.148402
C51   C     C_R   0.521862 0.593063 0.928149 -0.140642
H22   H     H_    0.538925 0.668840 0.873840 0.159793
N4    N     N_R   0.499670 0.499180 0.857150 -0.106506
C52   C     C_R   0.482445 0.399490 0.928327 0.214546
C53   C     C_3   0.432423 0.349318 0.921976 -0.504374
C54   C     C_3   0.432395 0.349274 0.076411 -0.505145
H23   H     H_    0.406508 0.417181 0.877509 0.214949
H24   H     H_    0.431147 0.253812 0.877112 0.202217
H25   H     H_    0.406435 0.417021 0.120882 0.216412
H26   H     H_    0.431044 0.253685 0.120636 0.197246
C55   C     C_R   0.748180 0.490692 0.757366 0.117695
C56   C     C_R   0.738713 0.582822 0.856051 -0.105687
C57   C     C_R   0.762832 0.580792 0.981071 -0.150590
C58   C     C_R   0.796425 0.486729 0.008847 -0.099549
C59   C     C_R   0.805787 0.394200 0.911861 -0.116537
C60   C     C_R   0.781678 0.395704 0.786841 -0.165404
H27   H     H_    0.712961 0.656723 0.835742 0.135491
H28   H     H_    0.755481 0.652194 0.056449 0.137977
H29   H     H_    0.815054 0.485249 0.105690 0.134182
H30   H     H_    0.831562 0.320863 0.933827 0.142531
H31   H     H_    0.788699 0.321932 0.714027 0.160250
N5    N     N_3   0.573960 0.878448 0.705239 -0.443123
H32   H     H_    0.587895 0.923855 0.619629 0.205095
H33   H     H_    0.597606 0.895814 0.785966 0.192017

loop_
_geom_bond_atom_site_label_1
_geom_bond_atom_site_label_2
_geom_bond_distance
_ccdc_geom_bond_type
C50   H21   1.081574 S    
C53   C54   1.518489 S    
C26   N2    1.365336 A    
C20   C24   1.416926 A    
C7    C8    1.389492 A    
C12   C15   1.408257 A    
C49   N3    1.362821 A    
Zn1   O7    2.014294 S    
C56   H27   1.083160 S    
N1    C11   1.425103 S    
C43   C44   1.382681 A    
C37   H11   1.083657 S    
O4    C2    1.291879 A    
C38   H12   1.076264 S    
C21   C22   1.385578 A    
C44   C45   1.402701 A    
C41   C46   1.364136 A    
C15   C37   1.394204 A    
C60   H31   1.081910 S    
O7    C4    1.292279 A    
C5    C13   1.398357 A    
C54   H26   1.111020 S    
C7    H10   1.082963 S    
C39   H14   1.083639 S    
C18   C21   1.415486 A    
C31   C55   1.484094 S    
C5    N1    1.365626 A    
C19   C20   1.420577 A    
C17   C29   1.401270 A    
C8    H9    1.081739 S    
O5    C3    1.281214 A    
N5    H32   1.046908 S    
C52   C53   1.489764 S    
C30   H13   1.083961 S    
C3    C45   1.417493 S    
C22   H6    1.083649 S    
C2    C16   1.461519 S    
C31   C32   1.411816 A    
C37   C40   1.385832 A    
C59   H30   1.082342 S    
C51   N4    1.367344 A    
C40   H15   1.076224 S    
C41   C48   1.496712 S    
C41   C42   1.391538 A    
C12   C34   1.417130 A    
C55   C60   1.406002 A    
C14   H3    1.083662 S    
C53   H23   1.110454 S    
O1    Zn1   1.992963 S    
C9    C10   1.388138 A    
O3    Zn1   2.012552 S    
C48   H19   1.111416 S    
C49   C52   1.403621 A    
C33   C34   1.420707 A    
C42   C43   1.402336 A    
C33   C36   1.415275 A    
C43   H16   1.082889 S    
C34   C35   1.420559 A    
C57   C58   1.397290 A    
C12   C13   1.408065 A    
O3    C2    1.293190 A    
C21   H7    1.076088 S    
N4    C52   1.362433 A    
C45   C46   1.392746 A    
C27   O10   1.350132 S    
C8    C16   1.404047 A    
C54   H25   1.110902 S    
C18   C33   1.417056 A    
C9    H1    1.082209 S    
O1    C1    1.280692 A    
C7    C11   1.398144 A    
C22   C23   1.393920 A    
C49   C54   1.490534 S    
C55   C56   1.406210 A    
Zn2   O8    2.012552 S    
Zn1   N4    2.006096 S    
C19   C38   1.415325 A    
N1    C6    1.365482 A    
C58   H29   1.082751 S    
N2    C32   1.426266 S    
C44   H17   1.083456 S    
C35   C40   1.415385 A    
C47   H18   1.111944 S    
C25   C26   1.397982 A    
C9    C16   1.404512 A    
O8    C4    1.292447 A    
C29   H4    1.083124 S    
C53   H24   1.111512 S    
C25   C39   1.394089 A    
C50   C51   1.417828 A    
N2    C27   1.365279 A    
C14   C36   1.385613 A    
C24   C25   1.408211 A    
C48   H20   1.112659 S    
C28   C29   1.385363 A    
C57   H28   1.082440 S    
Zn1   O5    1.993890 S    
C30   C31   1.397191 A    
C10   H2    1.083012 S    
N3    C50   1.367656 A    
C17   C30   1.403631 A    
O2    Zn2   1.993891 S    
C6    C15   1.398787 A    
C4    C17   1.461059 S    
C47   C48   1.522644 S    
O6    C3    1.281494 A    
O4    Zn2   2.014297 S    
C36   H8    1.076155 S    
C26   O12   1.350117 S    
C19   C35   1.416973 A    
C38   C39   1.385722 A    
O2    C1    1.281815 A    
C13   C14   1.394176 A    
C23   C27   1.397880 A    
C28   H5    1.082529 S    
C23   C24   1.408146 A    
C56   C57   1.398727 A    
C18   C20   1.420648 A    
Zn2   N3    2.006527 S    
C58   C59   1.397195 A    
C1    C42   1.417209 S    
N5    H33   1.045392 S    
C46   C47   1.501321 S    
C28   C32   1.397462 A    
C6    O11   1.350130 S    
Zn2   O6    1.992961 S    
C47   N5    1.466020 S    
C59   C60   1.398509 A    
C10   C11   1.397404 A    
C51   H22   1.080394 S    
C5    O9    1.350211 S    
