data_mof_unit_2856.cif
_audit_creation_date              2012-12-11T15:10:45-0500
_audit_creation_method            fapswitch 2.2
_symmetry_space_group_name_H-M    P1
_symmetry_Int_Tables_number       1
_space_group_crystal_system       triclinic
_cell_length_a                    21.153523
_cell_length_b                    7.226395
_cell_length_c                    18.326879
_cell_angle_alpha                 89.999238
_cell_angle_beta                  93.18322
_cell_angle_gamma                 89.999874
_cell_volume                      2797.19222613

loop_
_atom_site_label
_atom_site_type_symbol
_atom_type_description
_atom_site_fract_x
_atom_site_fract_y
_atom_site_fract_z
_atom_type_partial_charge
O1    O     O_R   0.448880 0.506250 0.415280 -0.527796
O2    O     O_R   0.551120 0.006250 0.584720 -0.527788
O3    O     O_R   0.434830 0.174000 0.557310 -0.533982
O4    O     O_R   0.565170 0.674000 0.442690 -0.533990
C1    C     C_R   0.416989 0.344570 0.579699 0.759268
C2    C     C_R   0.583011 0.844571 0.420302 0.759243
O5    O     O_R   0.441680 0.176440 0.414130 -0.538312
O6    O     O_R   0.558320 0.676440 0.585870 -0.538316
O7    O     O_R   0.558020 0.007570 0.440520 -0.513319
O8    O     O_R   0.441980 0.507570 0.559480 -0.513323
C3    C     C_R   0.427190 0.345177 0.389174 0.818810
C4    C     C_R   0.572810 0.845174 0.610826 0.818800
O9    O     O_3   0.538160 0.339670 0.508820 -0.382619
O10   O     O_3   0.461840 0.839670 0.491180 -0.382618
V1    V     V_3+5 0.492920 0.064260 0.498360 1.408986
V2    V     V_3+5 0.507080 0.564260 0.501640 1.408961
C5    C     C_R   0.882667 0.881193 0.689983 0.424310
C6    C     C_R   0.117335 0.381092 0.310011 0.424365
H1    H     H_    0.967519 0.901356 0.758246 0.154713
H2    H     H_    0.032482 0.401228 0.241747 0.154716
C7    C     C_R   0.885551 0.933467 0.821286 -0.230429
C8    C     C_R   0.114448 0.433454 0.178712 -0.230444
C9    C     C_R   0.583153 0.806128 0.745313 0.165759
C10   C     C_R   0.416849 0.306160 0.254687 0.165750
C11   C     C_R   0.620593 0.756800 0.808223 0.330038
C12   C     C_R   0.379411 0.256841 0.191775 0.330048
C13   C     C_R   0.686571 0.765633 0.807910 0.476860
C14   C     C_R   0.313432 0.265666 0.192087 0.476861
C15   C     C_R   0.716688 0.846609 0.748479 -0.124616
C16   C     C_R   0.283314 0.346628 0.251518 -0.124624
C17   C     C_R   0.680228 0.873322 0.681559 -0.190743
C18   C     C_R   0.319772 0.373327 0.318440 -0.190734
C19   C     C_R   0.783337 0.883868 0.752192 -0.060766
C20   C     C_R   0.216664 0.383873 0.247805 -0.060766
C21   C     C_R   0.815397 0.883520 0.686175 -0.193506
C22   C     C_R   0.184604 0.383489 0.313821 -0.193524
C23   C     C_R   0.779439 0.895701 0.618713 0.386936
C24   C     C_R   0.220557 0.395697 0.381283 0.386920
C25   C     C_R   0.712921 0.916027 0.618291 0.352905
C26   C     C_R   0.287076 0.416017 0.381709 0.352946
C27   C     C_R   0.817833 0.927485 0.819490 0.471971
C28   C     C_R   0.182167 0.427499 0.180508 0.471971
C29   C     C_R   0.916194 0.904611 0.756826 -0.243525
C30   C     C_R   0.083806 0.404530 0.243169 -0.243502
C31   C     C_R   0.612777 0.851123 0.680031 -0.197734
C32   C     C_R   0.387223 0.351134 0.319969 -0.197738
C33   C     C_1   0.865173 0.938963 0.132983 -0.206968
C34   C     C_1   0.134828 0.438966 0.867018 -0.206972
C35   C     C_1   0.822320 0.924913 0.176732 0.014080
C36   C     C_1   0.177682 0.424916 0.823269 0.014076
C37   C     C_1   0.771733 0.905809 0.228814 0.016728
C38   C     C_1   0.228269 0.405810 0.771189 0.016731
C39   C     C_1   0.729103 0.889191 0.272725 0.015316
C40   C     C_1   0.270899 0.389190 0.727278 0.015321
C41   C     C_1   0.678415 0.870077 0.324662 0.007136
C42   C     C_1   0.321588 0.370075 0.675342 0.007061
C43   C     C_1   0.635419 0.855985 0.368216 -0.184429
C44   C     C_1   0.364583 0.355983 0.631787 -0.184476
O11   O     O_R   0.058070 0.289240 0.940580 -0.519872
O12   O     O_R   0.941930 0.789240 0.059420 -0.519873
O13   O     O_R   0.058330 0.616740 0.085880 -0.527315
O14   O     O_R   0.941670 0.116740 0.914120 -0.527318
C45   C     C_R   0.072860 0.448037 0.111015 0.715066
C46   C     C_R   0.927139 0.948039 0.888984 0.715057
O15   O     O_R   0.065180 0.619040 0.942700 -0.523491
O16   O     O_R   0.934820 0.119040 0.057300 -0.523490
O17   O     O_R   0.948870 0.787780 0.915270 -0.535073
O18   O     O_R   0.051130 0.287780 0.084730 -0.535074
C47   C     C_R   0.082629 0.450383 0.919421 0.687858
C48   C     C_R   0.917372 0.950382 0.080579 0.687863
O19   O     O_3   0.961870 0.453310 0.991210 -0.366260
O20   O     O_3   0.038130 0.953310 0.008790 -0.366259
V3    V     V_3+5 0.007070 0.728770 0.001630 1.419127
V4    V     V_3+5 0.992930 0.228770 0.998370 1.419127
O21   O     O_3   0.809655 0.918669 0.554095 -0.530433
C49   C     C_3   0.796092 0.765904 0.507625 -0.187261
H3    H     H_    0.748232 0.777805 0.480074 0.169159
H4    H     H_    0.800857 0.631124 0.537034 0.091866
H5    H     H_    0.830626 0.765194 0.464243 0.171722
O22   O     O_3   0.190332 0.418686 0.445894 -0.530467
C50   C     C_3   0.203928 0.266022 0.492409 -0.187204
H6    H     H_    0.251719 0.278335 0.520100 0.169326
H7    H     H_    0.199356 0.131186 0.463010 0.091783
H8    H     H_    0.169290 0.265039 0.535677 0.171658
O23   O     O_3   0.917718 0.852652 0.629984 -0.605848
H9    H     H_    0.899171 0.743959 0.603805 0.314768
O24   O     O_3   0.082286 0.352434 0.370005 -0.605857
H10   H     H_    0.100869 0.243798 0.396192 0.314774
O25   O     O_3   0.783223 0.004973 0.874439 -0.555720
C51   C     C_3   0.800761 0.937952 0.944864 -0.126766
H11   H     H_    0.831668 0.040892 0.973644 0.106043
H12   H     H_    0.822924 0.798086 0.945107 0.125276
H13   H     H_    0.757492 0.926888 0.976120 0.186245
O26   O     O_3   0.216774 0.505006 0.125560 -0.555722
C52   C     C_3   0.199240 0.437984 0.055135 -0.126770
H14   H     H_    0.168332 0.540922 0.026353 0.106054
H15   H     H_    0.177078 0.298116 0.054891 0.125267
H16   H     H_    0.242510 0.426925 0.023881 0.186249
O27   O     O_3   0.517965 0.796136 0.748083 -0.642698
H17   H     H_    0.497460 0.869382 0.707745 0.286982
O28   O     O_3   0.482038 0.296179 0.251918 -0.642701
H18   H     H_    0.502541 0.369415 0.292258 0.286982
O29   O     O_3   0.721245 0.682299 0.865027 -0.532512
C53   C     C_3   0.738021 0.502182 0.843464 -0.180847
H19   H     H_    0.769495 0.505385 0.796805 0.109413
H20   H     H_    0.695322 0.416454 0.829426 0.156235
H21   H     H_    0.764655 0.434236 0.889942 0.181936
O30   O     O_3   0.278760 0.182333 0.134969 -0.532513
C54   C     C_3   0.261980 0.002220 0.156534 -0.180850
H22   H     H_    0.230502 0.005432 0.203189 0.109418
H23   H     H_    0.304676 0.916486 0.170580 0.156225
H24   H     H_    0.235349 0.934273 0.110056 0.181938
O31   O     O_3   0.594689 0.691949 0.871011 -0.607024
H25   H     H_    0.547952 0.689546 0.864544 0.347580
O32   O     O_3   0.405316 0.192004 0.128986 -0.607020
H26   H     H_    0.452053 0.189596 0.135456 0.347578
O33   O     O_3   0.680466 0.972177 0.554596 -0.572296
C55   C     C_3   0.685337 0.166507 0.549330 -0.164837
H27   H     H_    0.735373 0.212631 0.547110 0.144834
H28   H     H_    0.662610 0.235912 0.595374 0.126834
H29   H     H_    0.660176 0.211877 0.497746 0.162326
O34   O     O_3   0.319530 0.472155 0.445405 -0.572318
C56   C     C_3   0.314665 0.666486 0.450670 -0.164962
H30   H     H_    0.264630 0.712623 0.452887 0.144843
H31   H     H_    0.337396 0.735886 0.404627 0.126874
H32   H     H_    0.339825 0.711848 0.502255 0.162343

loop_
_geom_bond_atom_site_label_1
_geom_bond_atom_site_label_2
_ccdc_geom_bond_type
C27   O25   S    
O24   H10   S    
O28   H18   S    
C9    C31   A    
C13   C15   A    
C9    O27   S    
C52   H14   S    
O1    C3    A    
C49   H5    S    
C34   C47   S    
O2    C4    A    
C2    O7    A    
C53   H20   S    
C50   H6    S    
C52   H16   S    
C56   H30   S    
C33   C35   T    
O16   C48   A    
O23   H9    S    
O5    C3    A    
C1    C44   S    
C5    O23   S    
C21   C23   A    
C10   C12   A    
C6    C30   A    
C54   H23   S    
C56   H31   S    
O18   V4    S    
O32   H26   S    
O16   V4    S    
C15   C19   A    
O12   V3    S    
O15   V3    S    
O30   C54   S    
C10   O28   S    
C13   O29   S    
O13   C45   A    
C12   O32   S    
C7    C46   S    
O14   C46   A    
H2    C30   S    
C8    C45   S    
C55   H27   S    
C8    C30   A    
H1    C29   S    
C35   C37   S    
C20   C28   A    
C36   C38   S    
O17   V3    S    
C42   C44   T    
C16   C18   A    
O20   V3    S    
C34   C36   T    
C23   O21   S    
O6    V2    S    
C7    C29   A    
C2    C43   S    
C53   H19   S    
C50   H7    S    
C38   C40   T    
C39   C41   S    
C40   C42   S    
C16   C20   A    
C46   O17   A    
C49   H3    S    
O4    C2    A    
C54   H24   S    
O22   C50   S    
C56   H32   S    
O13   V3    S    
C25   O33   S    
C37   C39   T    
C55   H29   S    
O4    V2    S    
O21   C49   S    
C5    C29   A    
C33   C48   S    
C11   O31   S    
C51   H12   S    
O27   H17   S    
O12   C48   A    
O6    C4    A    
O1    V2    S    
O2    V1    S    
O11   V4    S    
O11   C47   A    
C7    C27   A    
C41   C43   T    
C50   H8    S    
O3    V1    S    
C51   H13   S    
O31   H25   S    
C45   O18   A    
C28   O26   S    
C18   C32   A    
C49   H4    S    
C4    C31   S    
O3    C1    A    
O19   V4    S    
C52   H15   S    
C11   C13   A    
C26   O34   S    
C12   C14   A    
C6    O24   S    
C19   C27   A    
C22   C24   A    
O7    V1    S    
C10   C32   A    
C14   C16   A    
C23   C25   A    
O8    V2    S    
C54   H22   S    
C24   C26   A    
C51   H11   S    
C8    C28   A    
C24   O22   S    
C14   O30   S    
O15   C47   A    
O5    V1    S    
C19   C21   A    
C17   C25   A    
C20   C22   A    
C18   C26   A    
O26   C52   S    
C55   H28   S    
C1    O8    A    
C9    C11   A    
C15   C17   A    
C17   C31   A    
O9    V2    S    
O29   C53   S    
O34   C56   S    
O10   V1    S    
O14   V4    S    
C3    C32   S    
C5    C21   A    
O25   C51   S    
O33   C55   S    
C6    C22   A    
C53   H21   S    
