data_mof_unit_2307.cif
_audit_creation_date              2012-12-10T20:42:42-0500
_audit_creation_method            fapswitch 2.2
_symmetry_space_group_name_H-M    P1
_symmetry_Int_Tables_number       1
_space_group_crystal_system       triclinic
_cell_length_a                    8.929818
_cell_length_b                    10.665861
_cell_length_c                    9.931837
_cell_angle_alpha                 88.785576
_cell_angle_beta                  88.672444
_cell_angle_gamma                 89.657403
_cell_volume                      945.469258771

loop_
_atom_site_label
_atom_site_type_symbol
_atom_type_description
_atom_site_fract_x
_atom_site_fract_y
_atom_site_fract_z
_atom_type_partial_charge
C1    C     C_R   0.497375 0.260401 0.501048 0.856832
C2    C     C_R   0.376698 0.459623 0.934369 0.128613
C3    C     C_3   0.302042 0.330713 0.949779 0.823347
C4    C     C_R   0.218882 0.502129 0.500690 0.911320
C5    C     C_3   0.296590 0.348678 0.102350 -0.581383
C6    C     C_R   0.498756 0.739511 0.498764 0.865498
C7    C     C_R   0.781110 0.502278 0.498727 0.928733
C8    C     C_1   0.065415 0.505218 0.500012 -0.197762
C9    C     C_1   0.934641 0.505430 0.497017 -0.224218
C10   C     C_R   0.555285 0.060657 0.605258 0.177372
C11   C     C_R   0.485743 0.128481 0.503788 -0.094851
C12   C     C_R   0.405857 0.937483 0.403667 -0.228809
C13   C     C_R   0.402921 0.067392 0.406640 -0.246649
C14   C     C_3   0.361051 0.115938 0.981895 0.041472
C15   C     C_3   0.392795 0.000974 0.898304 -0.831670
C16   C     C_3   0.134274 0.265057 0.784382 0.146885
C17   C     C_3   0.977189 0.291544 0.737042 -0.834809
C18   C     C_R   0.490776 0.871384 0.498529 -0.083627
C19   C     C_R   0.557498 0.932928 0.602731 0.122139
C20   C     C_3   0.715626 0.924398 0.647545 -0.510660
C21   C     C_3   0.713313 0.066309 0.650066 -0.487329
C22   C     C_R   0.375585 0.466390 0.076033 0.101434
C23   C     C_R   0.617573 0.546251 0.068042 -0.106019
C24   C     C_R   0.617031 0.547289 0.924571 -0.109395
H1    H     H_    0.182318 0.365646 0.145330 0.208940
H2    H     H_    0.345823 0.889407 0.326662 0.162164
H3    H     H_    0.724382 0.879516 0.749120 0.205528
H4    H     H_    0.793142 0.886032 0.569180 0.201478
H5    H     H_    0.719867 0.103233 0.753301 0.220710
H6    H     H_    0.714010 0.581656 0.118722 0.149029
H7    H     H_    0.712662 0.584192 0.868262 0.150677
H8    H     H_    0.142932 0.162662 0.803997 0.157583
H9    H     H_    0.216881 0.293102 0.704690 0.182728
H10   H     H_    0.954563 0.393720 0.739138 0.286857
H11   H     H_    0.964504 0.256916 0.633512 0.197397
H12   H     H_    0.789023 0.110450 0.572682 0.194664
H13   H     H_    0.895235 0.245400 0.807064 0.251678
H14   H     H_    0.340855 0.119552 0.331523 0.147977
H15   H     H_    0.241893 0.111284 0.017766 0.150430
H16   H     H_    0.434591 0.108677 0.070452 0.161731
H17   H     H_    0.514956 0.992328 0.878854 0.259590
H18   H     H_    0.354936 0.915567 0.954926 0.212580
H19   H     H_    0.332424 0.007152 0.802050 0.247879
H20   H     H_    0.365157 0.284192 0.164260 0.188430
N1    N     N_R   0.499010 0.499140 0.142800 -0.094556
N2    N     N_R   0.499010 0.499180 0.857150 -0.113928
O1    O     O_R   0.500020 0.316790 0.614690 -0.590957
O2    O     O_3   0.153139 0.332201 0.903022 -0.656689
O3    O     O_R   0.500000 0.316760 0.385350 -0.623374
O4    O     O_R   0.285350 0.500020 0.614650 -0.622051
O5    O     O_R   0.285340 0.499980 0.385310 -0.612242
O6    O     O_R   0.500000 0.683240 0.614650 -0.615764
O7    O     O_R   0.499980 0.683210 0.385310 -0.621500
O8    O     O_R   0.714660 0.500020 0.614690 -0.623578
O9    O     O_R   0.714650 0.499980 0.385350 -0.614238
O10   O     O_3   0.394507 0.228070 0.906692 -0.627384
Zn1   Zn    Zn3+2 0.500010 0.500020 0.653130 0.966723
Zn2   Zn    Zn3+2 0.499990 0.499980 0.346870 0.945024

loop_
_geom_bond_atom_site_label_1
_geom_bond_atom_site_label_2
_ccdc_geom_bond_type
C2    C22   A    
C14   O10   S    
C23   C24   A    
C23   N1    A    
C20   H3    S    
C16   H9    S    
O1    Zn1   S    
C20   H4    S    
C3    O10   S    
C4    O4    A    
C19   C20   S    
C1    C11   S    
C7    O9    A    
C10   C19   A    
O7    Zn2   S    
C24   N2    A    
C16   O2    S    
C2    C3    S    
C14   H15   S    
C24   H7    S    
C15   H19   S    
N2    Zn1   S    
O5    Zn2   S    
C17   H13   S    
C2    N2    A    
C21   H12   S    
C11   C13   A    
C13   H14   S    
C16   C17   S    
C21   H5    S    
C5    H1    S    
C5    H20   S    
C10   C11   A    
C10   C21   S    
C6    C18   S    
N1    Zn2   S    
C6    O7    A    
C16   H8    S    
C17   H10   S    
C5    C22   S    
C4    O5    A    
C14   H16   S    
C23   H6    S    
C3    O2    S    
C22   N1    A    
C12   C13   A    
C15   H17   S    
C18   C19   A    
O6    Zn1   S    
O9    Zn2   S    
C12   C18   A    
C4    C8    S    
C7    C9    S    
C14   C15   S    
C1    O1    A    
C17   H11   S    
C7    O8    A    
C6    O6    A    
C20   C21   S    
O4    Zn1   S    
C1    O3    A    
O3    Zn2   S    
C15   H18   S    
C12   H2    S    
C8    C9    T    
C3    C5    S    
O8    Zn1   S    
