data_mof_unit_618.cif
_audit_creation_date              2012-10-26T18:50:26-0400
_audit_creation_method            fapswitch 2.2
_symmetry_space_group_name_H-M    P1
_symmetry_Int_Tables_number       1
_space_group_crystal_system       triclinic
_cell_length_a                    9.795141
_cell_length_b                    10.858985
_cell_length_c                    16.208769
_cell_angle_alpha                 83.439642
_cell_angle_beta                  70.33977
_cell_angle_gamma                 89.333082
_cell_volume                      1612.25290944

loop_
_atom_site_label
_atom_site_type_symbol
_atom_type_description
_atom_site_fract_x
_atom_site_fract_y
_atom_site_fract_z
_atom_type_partial_charge
C1    C     C_R   0.003389 0.262999 0.496135 0.528969
C2    C     C_R   0.213850 0.550018 0.045660 0.015563
C3    C     C_R   0.320783 0.544286 0.085699 -0.000769
C4    C     C_R   0.914432 0.505313 0.670123 0.541786
C5    C     C_R   0.068270 0.548492 0.098401 0.026353
C6    C     C_R   0.025556 0.516914 0.189200 0.236468
C7    C     C_R   0.279217 0.514573 0.178053 -0.158470
C8    C     C_R   0.272010 0.108479 0.469515 -0.081065
C9    C     C_R   0.380652 0.044319 0.494681 0.323509
C10   C     C_R   0.342353 0.931376 0.548347 -0.063137
C11   C     C_R   0.210712 0.872308 0.561409 -0.140334
C12   C     C_R   0.655223 0.581590 0.888392 0.025306
C13   C     C_R   0.109057 0.930363 0.526976 -0.022905
C14   C     C_R   0.129607 0.057411 0.496026 -0.025201
C15   C     C_R   0.006397 0.127259 0.495251 -0.028049
C16   C     C_R   0.993673 0.734676 0.510253 0.529413
C17   C     C_R   0.874334 0.064566 0.510379 -0.156358
C18   C     C_R   0.862595 0.935920 0.525393 -0.001216
C19   C     C_R   0.985174 0.866847 0.525598 0.008458
C20   C     C_R   0.703036 0.686038 0.397347 -0.041979
C21   C     C_R   0.660391 0.798208 0.363411 0.236372
C22   C     C_R   0.515967 0.809962 0.373496 -0.112950
C23   C     C_R   0.749898 0.639994 0.921586 -0.004123
C24   C     C_R   0.420072 0.707102 0.402604 0.016428
C25   C     C_R   0.453830 0.597076 0.450672 0.106100
C26   C     C_R   0.602307 0.593237 0.450070 0.062121
C27   C     C_R   0.548917 0.410228 0.548406 0.411456
C28   C     C_R   0.085069 0.498826 0.328902 0.545400
C29   C     C_R   0.401147 0.409068 0.548166 0.109658
C30   C     C_R   0.861332 0.537877 0.761268 0.007301
C31   C     C_R   0.131559 0.505479 0.231092 -0.005854
C32   C     C_R   0.898924 0.647717 0.874184 -0.110228
C33   C     C_R   0.955929 0.585673 0.799680 0.258868
C34   C     C_R   0.506730 0.569013 0.939467 0.045711
C35   C     C_R   0.711732 0.536377 0.806499 -0.155671
C36   C     C_2   0.963954 0.612422 0.064699 0.209679
C37   C     C_3   0.575179 0.162589 0.394638 -0.105888
C38   C     C_2   0.717470 0.878935 0.547196 0.267110
C39   C     C_3   0.551124 0.337519 0.686222 -0.059219
C40   C     C_3   0.898023 0.870029 0.280850 -0.112534
C41   C     C_2   0.329157 0.712309 0.347275 0.305022
C42   C     C_2   0.298895 0.308333 0.603944 0.245017
C43   C     C_3   0.819986 0.396822 0.240538 -0.113576
C44   C     C_3   0.133007 0.448713 0.795014 -0.112832
C45   C     C_R   0.464564 0.577084 0.031325 0.040188
C46   C     C_R   0.559155 0.639085 0.062105 -0.140706
C47   C     C_R   0.693550 0.683584 0.003952 -0.142401
C48   C     C_R   0.398797 0.560685 0.901240 -0.132760
C49   C     C_R   0.254194 0.562268 0.953433 -0.110186
Cu1   Cu    Cu3+1 0.140660 0.499990 0.500010 0.938013
Cu2   Cu    Cu3+1 0.859340 0.500010 0.499990 1.008722
H1    H     H_    0.755173 0.745349 0.026145 0.187664
H2    H     H_    0.973216 0.693913 0.897331 0.181932
H3    H     H_    0.640459 0.494182 0.779651 0.107572
H4    H     H_    0.525382 0.664167 0.128091 0.194310
H5    H     H_    0.424064 0.567067 0.830604 0.127681
H6    H     H_    0.866216 0.563651 0.068353 0.109129
H7    H     H_    0.535295 0.258674 0.396354 0.111199
H8    H     H_    0.551195 0.116986 0.342708 0.112352
H9    H     H_    0.694764 0.168524 0.376429 0.150030
H10   H     H_    0.651530 0.911008 0.508246 0.154373
H11   H     H_    0.458989 0.274489 0.726665 0.152032
H12   H     H_    0.777481 0.115867 0.513611 0.202994
H13   H     H_    0.519514 0.434737 0.697631 0.075354
H14   H     H_    0.641568 0.313867 0.711283 0.135317
H15   H     H_    0.907390 0.792061 0.240374 0.177154
H16   H     H_    0.952582 0.849703 0.330722 0.098738
H17   H     H_    0.955871 0.951677 0.235496 0.147916
H18   H     H_    0.237517 0.772724 0.358027 0.098764
H19   H     H_    0.184023 0.319593 0.625179 0.157103
H20   H     H_    0.869252 0.325454 0.275932 0.121739
H21   H     H_    0.833506 0.372118 0.173518 0.087931
H22   H     H_    0.702025 0.396909 0.277466 0.136458
H23   H     H_    0.299335 0.197080 0.429881 0.131832
H24   H     H_    0.089590 0.379103 0.764615 0.122130
H25   H     H_    0.085550 0.425840 0.867847 0.088567
H26   H     H_    0.251968 0.438663 0.775503 0.121112
H27   H     H_    0.416353 0.885425 0.577289 0.154063
H28   H     H_    0.187542 0.782686 0.600779 0.188624
H29   H     H_    0.815233 0.673410 0.383078 0.189424
H30   H     H_    0.361824 0.496531 0.207935 0.179368
H31   H     H_    0.485082 0.894848 0.342673 0.125610
H32   H     H_    0.173711 0.571614 0.921674 0.146853
N1    N     N_R   0.648320 0.501210 0.499140 -0.249738
N2    N     N_R   0.352470 0.501290 0.499110 -0.302413
O1    O     O_R   0.118810 0.319640 0.500010 -0.546807
O2    O     O_3   0.518173 0.094666 0.478895 -0.543414
O3    O     O_2   0.669779 0.799144 0.609953 -0.489119
O4    O     O_3   0.595071 0.315900 0.596780 -0.491921
O5    O     O_3   0.752256 0.900795 0.321578 -0.586729
O6    O     O_2   0.375244 0.670968 0.277097 -0.570419
O7    O     O_2   0.341228 0.209086 0.627831 -0.487869
O8    O     O_3   0.878738 0.515885 0.237118 -0.558831
O9    O     O_3   0.103994 0.571225 0.766455 -0.554968
O10   O     O_R   0.881240 0.319660 0.500000 -0.462180
O11   O     O_R   0.055570 0.499980 0.629840 -0.496833
O12   O     O_R   0.818000 0.500010 0.629830 -0.487878
O13   O     O_R   0.118760 0.680340 0.500000 -0.544327
O14   O     O_R   0.881190 0.680360 0.499990 -0.499879
O15   O     O_R   0.182000 0.499990 0.370170 -0.483438
O16   O     O_R   0.944430 0.500020 0.370160 -0.487359
O17   O     O_2   0.984393 0.722990 0.038957 -0.541789

loop_
_geom_bond_atom_site_label_1
_geom_bond_atom_site_label_2
_ccdc_geom_bond_type
C43   H22   S    
Cu2   O12   S    
C43   H21   S    
C29   C42   S    
C27   C29   A    
C48   H5    S    
Cu1   O11   S    
C33   O9    S    
C10   H27   S    
C45   C46   A    
C39   H13   S    
C12   C23   A    
C30   C35   A    
C22   H31   S    
C44   H26   S    
C3    C7    A    
C5    C6    A    
C5    C36   S    
C42   H19   S    
C36   O17   D    
C18   C19   A    
C44   H25   S    
Cu1   N2    S    
C4    O11   A    
C28   O16   A    
C8    C9    A    
C40   H16   S    
C46   H4    S    
C43   H20   S    
C1    C15   S    
C9    C10   A    
C29   N2    A    
C37   H7    S    
C38   H10   S    
C28   O15   A    
C6    C31   A    
C40   H15   S    
C13   C14   A    
C35   H3    S    
C24   C41   S    
C39   H14   S    
C25   N2    A    
C17   C18   A    
C21   O5    S    
Cu2   O14   S    
Cu1   O13   S    
C23   C47   A    
C20   H29   S    
C7    C31   A    
C24   C25   A    
C36   H6    S    
C13   C19   A    
C25   C26   A    
C3    C45   A    
C32   C33   A    
C38   O3    D    
C44   H24   S    
C2    C49   A    
C4    O12   A    
C1    O10   A    
C6    O8    S    
C8    H23   S    
Cu1   Cu2   S    
C34   C45   A    
C12   C35   A    
C37   H8    S    
C11   H28   S    
C48   C49   A    
C41   O6    D    
C22   C24   A    
C2    C5    A    
C34   C48   A    
C12   C34   A    
C32   H2    S    
C41   H18   S    
C1    O1    A    
C15   C17   A    
C39   H11   S    
C46   C47   A    
C27   N1    A    
C8    C14   A    
C30   C33   A    
C7    H30   S    
C37   O2    S    
C28   C31   S    
C16   O14   A    
C47   H1    S    
Cu2   O16   S    
Cu1   O15   S    
C23   C32   A    
C49   H32   S    
C2    C3    A    
C18   C38   S    
C17   H12   S    
C26   N1    A    
C11   C13   A    
C16   O13   A    
C20   C26   A    
C16   C19   S    
C43   O8    S    
C27   O4    S    
C42   O7    D    
C4    C30   S    
C37   H9    S    
C44   O9    S    
C10   C11   A    
Cu1   O1    S    
C20   C21   A    
C40   H17   S    
C14   C15   A    
C40   O5    S    
C21   C22   A    
Cu2   N1    S    
C39   O4    S    
C9    O2    S    
Cu2   O10   S    
