data_mof_unit_1019.cif
_audit_creation_date              2012-12-11T15:43:48-0500
_audit_creation_method            fapswitch 2.2
_symmetry_space_group_name_H-M    P1
_symmetry_Int_Tables_number       1
_space_group_crystal_system       triclinic
_cell_length_a                    14.488488
_cell_length_b                    16.217747
_cell_length_c                    6.926428
_cell_angle_alpha                 89.819191
_cell_angle_beta                  99.292793
_cell_angle_gamma                 90.030481
_cell_volume                      1606.13982696

loop_
_atom_site_label
_atom_site_type_symbol
_atom_type_description
_atom_site_fract_x
_atom_site_fract_y
_atom_site_fract_z
_atom_type_partial_charge
O1    O     O_R   0.831700 0.662810 0.581550 -0.540546
O2    O     O_R   0.168300 0.337190 0.418450 -0.541117
O3    O     O_R   0.168300 0.162810 0.418450 -0.541029
O4    O     O_R   0.831700 0.837190 0.581550 -0.539839
O5    O     O_R   0.842890 0.834390 0.255500 -0.539764
O6    O     O_R   0.157110 0.165610 0.744500 -0.540182
O7    O     O_R   0.157110 0.334390 0.744500 -0.540605
O8    O     O_R   0.842890 0.665610 0.255500 -0.539576
O9    O     O_R   0.661690 0.835580 0.024130 -0.540628
O10   O     O_R   0.338310 0.164420 0.975870 -0.540749
O11   O     O_R   0.338310 0.335580 0.975870 -0.542007
O12   O     O_R   0.661690 0.664420 0.024130 -0.542625
C1    C     C_R   0.865589 0.864530 0.431479 0.687523
C2    C     C_R   0.134480 0.135419 0.568554 0.684392
C3    C     C_R   0.134315 0.364441 0.568200 0.683865
C4    C     C_R   0.865446 0.635381 0.431685 0.685435
C5    C     C_R   0.065286 0.066295 0.534235 -0.049939
C6    C     C_R   0.934890 0.933575 0.465845 -0.050527
C7    C     C_R   0.934515 0.566166 0.466002 -0.050370
C8    C     C_R   0.064868 0.433374 0.533706 -0.050079
H1    H     H_    0.959845 0.941391 0.166289 0.115298
H2    H     H_    0.040382 0.058443 0.833818 0.115181
H3    H     H_    0.040778 0.440892 0.833870 0.115599
H4    H     H_    0.958428 0.558517 0.165745 0.115643
H5    H     H_    0.071631 0.054564 0.224306 0.118623
H6    H     H_    0.928623 0.945252 0.775821 0.118825
H7    H     H_    0.929001 0.554148 0.776295 0.119125
H8    H     H_    0.070145 0.445224 0.223277 0.118033
C9    C     C_R   0.976691 0.966221 0.312676 -0.158127
C10   C     C_R   0.023531 0.033616 0.687428 -0.157873
C11   C     C_R   0.023528 0.465853 0.687317 -0.159569
C12   C     C_R   0.975693 0.533567 0.312307 -0.157975
O13   O     O_3   0.687240 0.750000 0.366320 -0.371215
O14   O     O_3   0.312760 0.250000 0.633680 -0.367771
V1    V     V_3+5 0.757720 0.750000 0.115230 1.388458
V2    V     V_3+5 0.242280 0.250000 0.884770 1.389768
O15   O     O_R   0.650500 0.664000 0.690740 -0.549191
O16   O     O_R   0.349500 0.336000 0.309260 -0.544763
O17   O     O_R   0.349500 0.164000 0.309260 -0.545636
O18   O     O_R   0.650500 0.836000 0.690740 -0.548312
C13   C     C_R   0.623593 0.639830 0.851563 0.723024
C14   C     C_R   0.373978 0.362622 0.147596 0.709782
C15   C     C_R   0.374983 0.138419 0.148017 0.709884
C16   C     C_R   0.624574 0.861295 0.851954 0.703059
C17   C     C_R   0.040916 0.031480 0.346362 -0.149251
C18   C     C_R   0.959315 0.968350 0.653749 -0.149737
C19   C     C_R   0.959318 0.531157 0.653966 -0.149777
C20   C     C_R   0.039880 0.468248 0.345643 -0.149099
V3    V     V_3+5 0.735670 0.750000 0.607790 1.379023
V4    V     V_3+5 0.264330 0.250000 0.392210 1.390830
O19   O     O_3   0.806150 0.750000 0.906560 -0.367173
O20   O     O_3   0.193850 0.250000 0.093440 -0.368676
H9    H     H_    0.403796 0.032280 0.882945 0.138417
H10   H     H_    0.590666 0.962078 0.125388 0.137566
H11   H     H_    0.601827 0.523449 0.099016 0.138284
H12   H     H_    0.409675 0.460999 0.868271 0.130184
C21   C     C_2   0.544701 0.920402 0.840246 -0.086360
C22   C     C_2   0.454757 0.079435 0.160144 -0.084584
C23   C     C_2   0.451328 0.424283 0.159583 -0.086722
C24   C     C_2   0.541922 0.582701 0.838808 -0.070498
C25   C     C_2   0.536901 0.968079 0.997962 -0.154582
C26   C     C_2   0.459897 0.028662 0.006620 -0.156377
C27   C     C_2   0.461827 0.468793 0.997833 -0.156928
C28   C     C_2   0.540868 0.526943 0.985472 -0.176467
C29   C     C_3   0.532895 0.084720 0.334854 -0.360549
C30   C     C_3   0.618309 0.130236 0.281223 -0.296933
C31   C     C_3   0.692126 0.144769 0.461568 -0.777973
H13   H     H_    0.662967 0.183047 0.570045 0.229584
H14   H     H_    0.716627 0.084961 0.530032 0.229635
H15   H     H_    0.752866 0.177672 0.418241 0.221073
H16   H     H_    0.650629 0.094260 0.173628 0.197343
H17   H     H_    0.596184 0.190367 0.212091 0.180084
H18   H     H_    0.508200 0.118327 0.456436 0.182130
H19   H     H_    0.553533 0.022310 0.391543 0.169700
C32   C     C_3   0.470934 0.921511 0.657189 -0.362436
C33   C     C_3   0.381773 0.875502 0.689021 -0.300928
C34   C     C_3   0.306950 0.880479 0.506937 -0.769085
H20   H     H_    0.286133 0.945681 0.475113 0.225568
H21   H     H_    0.333580 0.854119 0.378731 0.230955
H22   H     H_    0.244274 0.845043 0.531624 0.219260
H23   H     H_    0.398269 0.809892 0.724499 0.187207
H24   H     H_    0.352559 0.901637 0.814082 0.195850
H25   H     H_    0.453803 0.986078 0.611793 0.176726
H26   H     H_    0.498310 0.891894 0.533513 0.178959
C35   C     C_3   0.455211 0.593900 0.681881 -0.394462
C36   C     C_3   0.463346 0.656275 0.517567 -0.273516
C37   C     C_3   0.371043 0.664132 0.377193 -0.795938
H27   H     H_    0.350513 0.603621 0.308483 0.231580
H28   H     H_    0.314938 0.686202 0.456226 0.234926
H29   H     H_    0.379168 0.709086 0.259832 0.217896
H30   H     H_    0.483376 0.717768 0.580183 0.192273
H31   H     H_    0.517376 0.635879 0.431397 0.208949
H32   H     H_    0.436012 0.533908 0.611268 0.175678
H33   H     H_    0.396439 0.613316 0.756783 0.184890
C38   C     C_3   0.518098 0.433374 0.351353 -0.348891
C39   C     C_3   0.603148 0.376836 0.359170 -0.312394
C40   C     C_3   0.675851 0.394465 0.539656 -0.765865
H34   H     H_    0.702143 0.458702 0.534793 0.225384
H35   H     H_    0.644874 0.385718 0.674961 0.228876
H36   H     H_    0.735752 0.351460 0.543718 0.220688
H37   H     H_    0.579685 0.311983 0.365822 0.194041
H38   H     H_    0.636084 0.384955 0.226163 0.196757
H39   H     H_    0.540710 0.498344 0.373785 0.186303
H40   H     H_    0.482101 0.417068 0.476014 0.177079

loop_
_geom_bond_atom_site_label_1
_geom_bond_atom_site_label_2
_ccdc_geom_bond_type
C22   C26   D    
C37   H27   S    
C39   H38   S    
O7    V2    S    
C38   C39   S    
C40   H34   S    
C34   H20   S    
C1    C6    S    
O11   V2    S    
C5    C17   A    
O16   C14   A    
C36   H30   S    
C7    C19   A    
C32   H26   S    
O13   V3    S    
O18   V3    S    
C29   H18   S    
O11   C14   A    
C35   H33   S    
O4    C1    A    
O2    V4    S    
C15   C22   S    
C35   H32   S    
C30   H17   S    
V3    O19   S    
V4    O20   S    
O5    C1    A    
V2    O20   S    
O7    C3    A    
C30   C31   S    
O8    C4    A    
C11   C19   A    
C39   H37   S    
H11   C28   S    
C5    C10   A    
C12   C20   A    
C2    C5    S    
C23   C38   S    
C7    C12   A    
C6    C18   A    
C40   H35   S    
O3    V4    S    
C38   H39   S    
C34   H21   S    
C3    C8    S    
O14   V4    S    
C31   H13   S    
C33   C34   S    
C33   H24   S    
O1    C4    A    
C36   C37   S    
O17   C15   A    
C35   C36   S    
H1    C9    S    
C29   H19   S    
C9    C17   A    
C31   H14   S    
O8    V1    S    
H3    C11   S    
C33   H23   S    
C32   C33   S    
H4    C12   S    
O12   C13   A    
O6    C2    A    
O15   V3    S    
H9    C26   S    
C22   C29   S    
C30   H16   S    
C16   C21   S    
C39   C40   S    
H12   C27   S    
C6    C9    A    
O12   V1    S    
O2    C3    A    
C8    C20   A    
O3    C2    A    
C37   H28   S    
V1    O19   S    
H5    C17   S    
C40   H36   S    
C38   H40   S    
C34   H22   S    
H7    C19   S    
H8    C20   S    
O9    C16   A    
H2    C10   S    
O10   C15   A    
C10   C18   A    
C13   C24   S    
C14   C23   S    
C24   C35   S    
C21   C25   D    
O16   V4    S    
H10   C25   S    
C23   C27   D    
O4    V3    S    
C24   C28   D    
C31   H15   S    
C21   C32   S    
C36   H31   S    
C32   H25   S    
C4    C7    S    
O5    V1    S    
O13   V1    S    
O6    V2    S    
O14   V2    S    
O15   C13   A    
C25   C26   S    
H6    C18   S    
C27   C28   S    
O18   C16   A    
O17   V4    S    
C29   C30   S    
C37   H29   S    
O9    V1    S    
O10   V2    S    
O1    V3    S    
C8    C11   A    
