data_mof_unit_3846.cif
_audit_creation_date              2013-03-05T15:53:42-0500
_audit_creation_method            fapswitch 2.2
_symmetry_space_group_name_H-M    P1
_symmetry_Int_Tables_number       1
_space_group_crystal_system       triclinic
_cell_length_a                    12.928497
_cell_length_b                    13.203777
_cell_length_c                    27.709677
_cell_angle_alpha                 94.473082
_cell_angle_beta                  90.426527
_cell_angle_gamma                 119.119236
_cell_volume                      4114.14059558

loop_
_atom_site_label
_atom_site_type_symbol
_atom_site_description
_atom_site_fract_x
_atom_site_fract_y
_atom_site_fract_z
_atom_type_partial_charge
O1    O     O_R   0.296680 0.802170 0.437540 -0.140710
O2    O     O_R   0.525380 0.838530 0.443500 -0.454597
C1    C     C_R   0.629386 0.894578 0.427761 0.537694
O3    O     O_R   0.702130 0.995190 0.446810 -0.457977
O4    O     O_R   0.661770 0.181390 0.458760 -0.450428
C2    C     C_R   0.600875 0.222250 0.440537 0.563739
O5    O     O_R   0.499820 0.198480 0.455280 -0.505458
O6    O     O_R   0.311660 0.976250 0.449080 -0.571265
C3    C     C_R   0.266430 0.876217 0.425967 0.582642
O7    O     O_R   0.297580 0.804960 0.544440 -0.416130
O8    O     O_R   0.526220 0.841130 0.542590 -0.500507
C4    C     C_R   0.626735 0.898847 0.565260 0.532222
O9    O     O_R   0.703030 0.997990 0.553710 -0.463257
O10   O     O_R   0.662610 0.183990 0.557860 -0.454011
C5    C     C_R   0.603758 0.228506 0.578512 0.557857
O11   O     O_R   0.500730 0.201280 0.562180 -0.459505
O12   O     O_R   0.312500 0.978850 0.548170 -0.468997
C6    C     C_R   0.327050 0.902411 0.569670 0.517741
Cr1   Cr    Cr6+3 0.416430 0.829200 0.492370 1.363328
Cr2   Cr    Cr6+3 0.674630 0.087020 0.504170 1.206390
Cr3   Cr    Cr6+3 0.408920 0.083740 0.503490 1.115020
O13   O     O_3   0.499990 0.999990 0.500010 -0.372062
C7    C     C_1   0.630730 0.266663 0.394202 0.082011
C8    C     C_R   0.723987 0.419173 0.287024 0.124730
C9    C     C_R   0.734201 0.433392 0.237438 -0.128281
C10   C     C_R   0.623699 0.222984 0.217254 0.315882
C11   C     C_R   0.611635 0.208025 0.267250 0.091511
C12   C     C_R   0.661548 0.306367 0.301940 0.063238
C13   C     C_R   0.684556 0.337032 0.202759 0.026468
C14   C     C_1   0.692452 0.360174 0.152576 0.079451
C15   C     C_1   0.647743 0.290007 0.352855 0.063876
C16   C     C_1   0.701943 0.389954 0.112122 0.069560
H1    H     H_    0.780571 0.520421 0.225687 0.114713
C17   C     C_R   0.147269 0.746813 0.353356 0.397988
C18   C     C_R   0.137864 0.737917 0.302084 -0.085022
C19   C     C_R   0.145580 0.731065 0.200122 0.038525
C20   C     C_R   0.113445 0.629268 0.223489 0.192929
C21   C     C_R   0.104277 0.631319 0.273849 0.064248
C22   C     C_R   0.153559 0.730464 0.149773 0.093026
C23   C     C_R   0.136496 0.812232 0.125955 -0.019031
C24   C     C_R   0.209323 0.953336 0.356564 0.036818
C25   C     C_R   0.200879 0.947813 0.305527 0.062260
C26   C     C_R   0.168941 0.840368 0.278294 -0.085362
C27   C     C_R   0.232196 0.048945 0.281093 0.108736
C28   C     C_R   0.223850 0.041535 0.230197 0.232316
C29   C     C_R   0.185032 0.933100 0.202870 0.002642
C30   C     C_R   0.165515 0.834685 0.227185 -0.058410
C31   C     C_R   0.161051 0.917989 0.151933 0.193623
C32   C     C_R   0.200404 0.857130 0.379199 -0.127369
C33   C     C_R   0.754448 0.937881 0.356782 0.175800
C34   C     C_R   0.745986 0.934988 0.306188 -0.052849
C35   C     C_R   0.737304 0.921017 0.204602 -0.017603
C36   C     C_R   0.812569 0.027987 0.231490 0.199173
C37   C     C_R   0.818897 0.034445 0.282064 0.190006
C38   C     C_R   0.743759 0.909503 0.154524 -0.070892
H2    H     H_    0.808626 0.981675 0.136311 0.214711
C39   C     C_R   0.675574 0.802556 0.127741 -0.002655
C40   C     C_R   0.575240 0.749792 0.354582 0.125322
C41   C     C_R   0.582647 0.733573 0.303796 -0.038840
C42   C     C_R   0.661269 0.830672 0.279370 -0.079308
C43   C     C_R   0.511664 0.624856 0.276671 0.249822
C44   C     C_R   0.508080 0.616300 0.225895 0.098560
C45   C     C_R   0.579489 0.715965 0.200905 0.040979
C46   C     C_R   0.658928 0.822442 0.228307 -0.018651
C47   C     C_R   0.582034 0.710637 0.149644 0.085227
C48   C     C_R   0.657391 0.855906 0.380514 -0.033273
C49   C     C_R   0.741368 0.299446 0.653103 0.154587
C50   C     C_R   0.749860 0.314472 0.704188 -0.026014
C51   C     C_R   0.762834 0.335319 0.806839 0.044076
C52   C     C_R   0.862913 0.351633 0.780559 0.215809
C53   C     C_R   0.853782 0.337435 0.730010 -0.057481
C54   C     C_R   0.765104 0.342519 0.858128 0.058218
H3    H     H_    0.931897 0.351450 0.711057 0.217871
C55   C     C_R   0.677996 0.359363 0.882013 -0.166184
C56   C     C_R   0.555757 0.305248 0.654230 0.175149
C57   C     C_R   0.552030 0.296753 0.704525 -0.051298
C58   C     C_R   0.652490 0.306545 0.729846 -0.048617
C59   C     C_R   0.448841 0.272344 0.729701 0.183516
C60   C     C_R   0.448563 0.263469 0.779709 0.367358
C61   C     C_R   0.556761 0.298220 0.806067 -0.004383
C62   C     C_R   0.657415 0.313192 0.780947 -0.087411
C63   C     C_R   0.569401 0.327818 0.856500 0.430255
C64   C     C_R   0.639943 0.287755 0.628176 -0.017694
C65   C     C_1   0.295628 0.892429 0.619107 0.036803
C66   C     C_R   0.329012 0.903633 0.746855 -0.058865
C67   C     C_R   0.300962 0.888619 0.795289 0.104322
C68   C     C_R   0.090566 0.805790 0.771198 0.276100
C69   C     C_R   0.120235 0.821715 0.722544 0.130660
C70   C     C_R   0.239735 0.870547 0.710614 0.008578
C71   C     C_R   0.181570 0.840400 0.807706 0.044524
C72   C     C_1   0.150754 0.825237 0.857536 0.059822
C73   C     C_1   0.270913 0.883444 0.660887 -0.000602
C74   C     C_1   0.114907 0.804644 0.897516 0.087267
H4    H     H_    0.420823 0.940339 0.737429 0.128601
C75   C     C_1   0.638898 0.868302 0.612541 0.070888
C76   C     C_R   0.742603 0.918250 0.734182 -0.103131
C77   C     C_R   0.746551 0.915558 0.784548 0.211658
C78   C     C_R   0.548661 0.743570 0.777146 0.044193
C79   C     C_R   0.544439 0.749715 0.726598 0.248077
C80   C     C_R   0.643977 0.836001 0.705235 -0.040271
C81   C     C_R   0.649872 0.825863 0.806072 -0.019474
C82   C     C_1   0.661157 0.809187 0.856329 0.091461
C83   C     C_1   0.642667 0.850293 0.654268 0.032166
C84   C     C_1   0.679805 0.794755 0.897184 0.193048
H5    H     H_    0.816358 0.986655 0.717369 0.190361
O14   O     O_R   0.820790 0.857990 0.068830 -0.484095
O15   O     O_R   0.016700 0.827330 0.062850 -0.445933
C85   C     C_R   0.068024 0.773482 0.078752 0.548712
O16   O     O_R   0.041970 0.673520 0.060040 -0.530490
O17   O     O_R   0.817980 0.483660 0.048840 -0.494326
C86   C     C_R   0.716631 0.440024 0.066972 0.518490
O18   O     O_R   0.637200 0.461990 0.052510 -0.521594
O19   O     O_R   0.664790 0.681920 0.057970 -0.530302
C87   C     C_R   0.718800 0.782434 0.080815 0.514612
O20   O     O_R   0.815840 0.852920 0.961840 -0.508733
O21   O     O_R   0.012100 0.822630 0.963670 -0.478035
C88   C     C_R   0.058886 0.767634 0.941981 0.567569
O22   O     O_R   0.037010 0.668460 0.953040 -0.458904
O23   O     O_R   0.813390 0.478970 0.949660 -0.485472
C89   C     C_R   0.708106 0.430367 0.929602 0.534063
O24   O     O_R   0.632250 0.456930 0.945520 -0.274798
O25   O     O_R   0.660200 0.677230 0.958780 -0.334201
C90   C     C_R   0.715650 0.777084 0.943342 0.571672
Cr4   Cr    Cr6+3 0.914010 0.832750 0.013970 1.164761
Cr5   Cr    Cr6+3 0.922310 0.578600 0.003000 1.113768
Cr6   Cr    Cr6+3 0.656280 0.574630 0.003870 1.298550
O26   O     O_3   0.830870 0.661990 0.006950 -0.315028
N1    N     N_3   0.775244 0.518792 0.322345 -0.550934
H6    H     H_    0.814074 0.595901 0.305264 0.214538
H7    H     H_    0.843938 0.516681 0.341563 0.267717
N2    N     N_R   0.268100 0.147378 0.206873 0.103463
O27   O     O_R   0.362969 0.182430 0.182286 -0.282153
O28   O     O_R   0.220914 0.214346 0.213904 -0.201564
N3    N     N_3   0.282099 0.161726 0.307735 -0.524070
H8    H     H_    0.226292 0.196854 0.302582 0.346417
H9    H     H_    0.365581 0.216351 0.295144 0.268530
N4    N     N_3   0.220953 0.054339 0.385158 -0.483224
H10   H     H_    0.166629 0.029263 0.414615 0.294344
H11   H     H_    0.309489 0.108553 0.396931 0.284058
N5    N     N_R   0.868141 0.005569 0.382405 0.114035
O29   O     O_R   0.897711 0.105124 0.406590 -0.145799
O30   O     O_R   0.949075 0.975449 0.375015 -0.318867
N6    N     N_R   0.880403 0.132102 0.207861 0.106949
O31   O     O_R   0.975038 0.147745 0.186117 -0.196943
O32   O     O_R   0.861519 0.219869 0.216262 -0.255077
N7    N     N_R   0.893346 0.145309 0.308497 0.148501
O33   O     O_R   0.845546 0.200858 0.331245 -0.251488
O34   O     O_R   0.006998 0.199190 0.302865 -0.158239
N8    N     N_3   0.487303 0.616136 0.120176 -0.609285
H12   H     H_    0.514948 0.558465 0.105629 0.269841
H13   H     H_    0.460830 0.648999 0.092326 0.270234
N9    N     N_3   0.439949 0.501558 0.201433 -0.501489
H14   H     H_    0.494495 0.480734 0.180092 0.246764
H15   H     H_    0.368554 0.495859 0.181194 0.327635
N10   N     N_R   0.451859 0.519046 0.300046 0.128987
O35   O     O_R   0.339095 0.448555 0.290779 -0.175632
O36   O     O_R   0.512993 0.486213 0.325738 -0.281557
N11   N     N_R   0.480886 0.662591 0.379425 0.121899
O37   O     O_R   0.504472 0.621609 0.416671 -0.208948
O38   O     O_R   0.371459 0.632085 0.367554 0.119650
N12   N     N_3   0.852866 0.329973 0.885489 -0.466840
H16   H     H_    0.854772 0.256431 0.869645 0.280973
H17   H     H_    0.823667 0.306548 0.920025 0.234393
N13   N     N_R   0.835169 0.296480 0.626663 0.086620
O39   O     O_R   0.885264 0.367881 0.593670 -0.222319
O40   O     O_R   0.865616 0.217890 0.633434 -0.292931
N14   N     N_R   0.977938 0.394051 0.803904 0.112700
O41   O     O_R   0.025654 0.491579 0.831621 -0.212697
O42   O     O_R   0.043865 0.348881 0.790041 -0.155457
N15   N     N_R   0.476992 0.337759 0.881235 1.706020
O43   O     O_R   0.449667 0.417009 0.871537 -1.869712
O44   O     O_R   0.449667 0.417009 0.871537 -1.869712
N16   N     N_R   0.336917 0.210479 0.802674 0.278879
O45   O     O_R   0.259160 0.244435 0.796119 0.124830
O46   O     O_R   0.312385 0.126997 0.830195 -0.402818
N17   N     N_R   0.339252 0.240888 0.704204 0.106722
O47   O     O_R   0.268577 0.132662 0.688527 -0.322406
O48   O     O_R   0.302214 0.316439 0.703270 -0.118932
N18   N     N_R   0.488302 0.349361 0.630699 0.134444
O49   O     O_R   0.540478 0.458577 0.622606 -0.225804
O50   O     O_R   0.382624 0.279634 0.611147 -0.190111
N19   N     N_R   0.576073 0.123150 0.181765 0.123482
O51   O     O_R   0.633609 0.123423 0.143398 -0.302023
O52   O     O_R   0.477293 0.029612 0.188379 -0.287230
N20   N     N_3   0.395063 0.922235 0.831190 -0.638650
H18   H     H_    0.378135 0.849193 0.849019 0.248045
H19   H     H_    0.394350 0.984612 0.856635 0.249584
N21   N     N_R   0.967959 0.752400 0.783140 0.108747
O53   O     O_R   0.896620 0.782752 0.763532 -0.262421
O54   O     O_R   0.924990 0.667107 0.810740 -0.291422
N22   N     N_3   0.027743 0.784202 0.685405 -0.521196
H20   H     H_    0.043339 0.855790 0.666753 0.273651
H21   H     H_    0.031656 0.721690 0.661050 0.262377
N23   N     N_R   0.850142 0.002890 0.812920 0.101843
O55   O     O_R   0.951916 0.055575 0.793134 -0.207291
O56   O     O_R   0.841449 0.038833 0.856997 -0.328974
N24   N     N_3   0.451700 0.649981 0.798336 -0.349686
H22   H     H_    0.483390 0.600317 0.814111 0.489956
H23   H     H_    0.420211 0.685481 0.825634 0.267777
N25   N     N_R   0.439415 0.668558 0.697458 0.117707
O57   O     O_R   0.334742 0.638993 0.713161 -0.243006
O58   O     O_R   0.447534 0.623387 0.655185 -0.217359
N26   N     N_3   0.550630 0.092463 0.282477 -0.567445
H24   H     H_    0.608735 0.080802 0.304824 0.242076
H25   H     H_    0.479506 0.084350 0.302718 0.223716
N27   N     N_3   0.188570 0.653854 0.124044 -0.527966
H26   H     H_    0.115258 0.581592 0.106393 0.308644
H27   H     H_    0.249637 0.699081 0.098560 0.249788
N28   N     N_R   0.087208 0.646242 0.379951 1.290167
O59   O     O_R   0.139860 0.589736 0.393365 -1.469168
O60   O     O_R   0.139860 0.589736 0.393365 -1.469168
N29   N     N_R   0.076374 0.519453 0.196007 0.077868
O61   O     O_R   0.974226 0.466659 0.171991 -0.326200
O62   O     O_R   0.139863 0.467827 0.198176 -0.239253
N30   N     N_3   0.061494 0.524166 0.295907 -0.203399
H28   H     H_    0.119757 0.491393 0.289648 0.385066
H29   H     H_    0.977872 0.463934 0.280183 0.235248
N31   N     N_R   0.155384 0.006087 0.126740 0.125922
O63   O     O_R   0.070105 0.029770 0.134544 -0.252047
O64   O     O_R   0.221880 0.047234 0.090369 -0.254457

loop_
_geom_bond_atom_site_label_1
_geom_bond_atom_site_label_2
_geom_bond_distance
_ccdc_geom_bond_type
C69   N22   1.435267 S    
N23   O56   1.301218 A    
C76   H5    1.084481 S    
C45   C47   1.418082 A    
C49   C64   1.411819 A    
Cr6   O26   1.969892 S    
C16   C86   1.431351 S    
C10   C13   1.412061 A    
N10   O36   1.301053 A    
C24   C25   1.411067 A    
C60   N16   1.441573 S    
C86   O18   1.265367 A    
C21   N30   1.435110 S    
C38   H2    1.081489 S    
N1    H6    1.045886 S    
C63   N15   1.437057 S    
N12   H16   1.045573 S    
C71   C72   1.441879 S    
N14   O42   1.301396 A    
O4    Cr2   1.899116 S    
C31   N31   1.433403 S    
N16   O45   1.301238 A    
O21   C88   1.272470 A    
C4    O9    1.265848 A    
N4    H11   1.043833 S    
O8    Cr1   1.922198 S    
C10   C11   1.413685 A    
C81   C82   1.444030 S    
C44   N9    1.436232 S    
O14   C87   1.273632 A    
C11   N26   1.436115 S    
C57   C59   1.414490 A    
N13   O39   1.301193 A    
C20   C21   1.400629 A    
N5    O30   1.300173 A    
O19   C87   1.268906 A    
N8    H13   1.045854 S    
O4    C2    1.271146 A    
N27   H27   1.045836 S    
N20   H19   1.045199 S    
N15   O43   1.301614 A    
N24   H22   1.045202 S    
N6    O31   1.298870 A    
C22   N27   1.440251 S    
C85   O16   1.257914 A    
C19   C30   1.412298 A    
N21   O54   1.301390 A    
C17   C18   1.415815 A    
N24   H23   1.045282 S    
C23   C31   1.406137 A    
O17   C86   1.273372 A    
C67   C71   1.411363 A    
N19   O51   1.301290 A    
C49   N13   1.436634 S    
C40   C48   1.410937 A    
C8    N1    1.438198 S    
O6    C3    1.267853 A    
C79   N25   1.441020 S    
C6    C65   1.429451 S    
C54   N12   1.442011 S    
C4    C75   1.430020 S    
C52   C53   1.395011 A    
O22   Cr5   2.024258 S    
C56   N18   1.438772 S    
C24   N4    1.437784 S    
C78   N24   1.435173 S    
C35   C38   1.391683 A    
C23   C85   1.481140 S    
N17   O48   1.301473 A    
N23   O55   1.301998 A    
C8    C9    1.399791 A    
C41   C42   1.418552 A    
Cr3   O13   1.967390 S    
N11   O38   1.299880 A    
C51   C52   1.420564 A    
C25   C27   1.422798 A    
O15   Cr4   1.919131 S    
C55   C63   1.419346 A    
C43   N10   1.437535 S    
C24   C32   1.415299 A    
N12   H17   1.044927 S    
C75   C83   1.203807 T    
C33   C34   1.401490 A    
C2    O5    1.265378 A    
N7    O34   1.301079 A    
N16   O46   1.300628 A    
C9    C13   1.399817 A    
C29   C31   1.420389 A    
C41   C43   1.416695 A    
O1    Cr1   2.043340 S    
C45   C46   1.422846 A    
N22   H20   1.045715 S    
O10   Cr2   1.943401 S    
C12   C15   1.443169 S    
Cr1   O13   1.961719 S    
O20   C90   1.261307 A    
C57   C58   1.415894 A    
C54   C55   1.409838 A    
C40   N11   1.434146 S    
C22   C23   1.410908 A    
C84   C90   1.431119 S    
C66   C70   1.398253 A    
N27   H26   1.043126 S    
N25   O57   1.301607 A    
N3    H9    1.045966 S    
O19   Cr6   1.944438 S    
C40   C41   1.417880 A    
C66   C67   1.396701 A    
C80   C83   1.440383 S    
O12   Cr3   1.901314 S    
C49   C50   1.409915 A    
N1    H7    1.045203 S    
N21   O53   1.301034 A    
C36   N6    1.436401 S    
C7    C15   1.203688 T    
C77   N23   1.442656 S    
O25   Cr6   1.896580 S    
C51   C54   1.416092 A    
C56   C57   1.406181 A    
N22   H21   1.045730 S    
C20   N29   1.434590 S    
C13   C14   1.440654 S    
C17   N28   1.437708 S    
C72   C74   1.203314 T    
N26   H25   1.045346 S    
C66   H4    1.084667 S    
N31   O64   1.301422 A    
C79   C80   1.412117 A    
O10   C5    1.281089 A    
C58   C62   1.410893 A    
O7    Cr1   2.042455 S    
O15   C85   1.282049 A    
C76   C77   1.400019 A    
C18   C21   1.417781 A    
C44   C45   1.425773 A    
N28   O59   1.300759 A    
O1    C3    1.277054 A    
N5    O29   1.301095 A    
C70   C73   1.438110 S    
C82   C84   1.204284 T    
C33   C48   1.407111 A    
C27   N3    1.437061 S    
C68   N21   1.440736 S    
C67   N20   1.433286 S    
Cr4   O26   1.961263 S    
C10   N19   1.443134 S    
O16   Cr5   2.056645 S    
N17   O47   1.300801 A    
N29   O62   1.300842 A    
C28   N2    1.437473 S    
C52   N14   1.436028 S    
C38   C39   1.391834 A    
C35   C46   1.418436 A    
N11   O37   1.301546 A    
C1    C48   1.479383 S    
C25   C26   1.418059 A    
Cr2   O13   1.970253 S    
C1    O3    1.262996 A    
O23   Cr5   1.939298 S    
N14   O41   1.301609 A    
C18   C26   1.428282 A    
C35   C36   1.408671 A    
N9    H14   1.045070 S    
C53   H3    1.082203 S    
N7    O33   1.300771 A    
N9    H15   1.044155 S    
C50   C58   1.413448 A    
N6    O32   1.300332 A    
C29   C30   1.423440 A    
C19   C20   1.412347 A    
C17   C32   1.400885 A    
O20   Cr4   2.032252 S    
O21   Cr4   1.931560 S    
O9    Cr2   2.016277 S    
O2    Cr1   1.928351 S    
C59   C60   1.399617 A    
O18   Cr6   2.012449 S    
C19   C22   1.399431 A    
C27   C28   1.405750 A    
C8    C12   1.404193 A    
C39   C47   1.414641 A    
C61   C62   1.414762 A    
N2    O28   1.300722 A    
N2    O27   1.300705 A    
O6    Cr3   1.941560 S    
C5    C64   1.480190 S    
O23   C89   1.287030 A    
O11   Cr3   2.060823 S    
C36   C37   1.396660 A    
N3    H8    1.044306 S    
N18   O49   1.300320 A    
C78   C81   1.414234 A    
C55   C89   1.487873 S    
N4    H10   1.045704 S    
N20   H18   1.045262 S    
C74   C88   1.429759 S    
O12   C6    1.298404 A    
C37   N7    1.434120 S    
C42   C46   1.409589 A    
C34   C37   1.414740 A    
N13   O40   1.301441 A    
O2    C1    1.279267 A    
O24   Cr6   2.063154 S    
C3    C32   1.481498 S    
O5    Cr3   2.016716 S    
N8    H12   1.043660 S    
C14   C16   1.204172 T    
C56   C64   1.410511 A    
N31   O63   1.299485 A    
N29   O61   1.300550 A    
C39   C87   1.474812 S    
N15   O44   1.301614 A    
O7    C6    1.291569 A    
C50   C53   1.401581 A    
C2    C7    1.430343 S    
C76   C80   1.396368 A    
N28   O60   1.300759 A    
C61   C63   1.407707 A    
C33   N5    1.438869 S    
C59   N17   1.430257 S    
N30   H28   1.045093 S    
C47   N8    1.436151 S    
C43   C44   1.401293 A    
N19   O52   1.301379 A    
N30   H29   1.045598 S    
C51   C62   1.422257 A    
O17   Cr5   1.905903 S    
C60   C61   1.417233 A    
O3    Cr2   2.061605 S    
C28   C29   1.414591 A    
C69   C70   1.408285 A    
C68   C69   1.407964 A    
N25   O58   1.301018 A    
C78   C79   1.411506 A    
C68   C71   1.415404 A    
O14   Cr4   2.052702 S    
N10   O35   1.301588 A    
Cr5   O26   1.967701 S    
C89   O24   1.263497 A    
C34   C42   1.417379 A    
C65   C73   1.202717 T    
N26   H24   1.044995 S    
N18   O50   1.301828 A    
O25   C90   1.268017 A    
C88   O22   1.261774 A    
C26   C30   1.411541 A    
C77   C81   1.414632 A    
C5    O11   1.268024 A    
O8    C4    1.270203 A    
C9    H1    1.084744 S    
C11   C12   1.416702 A    
