data_mof_unit_2405.cif
_audit_creation_date              2013-03-05T16:05:19-0500
_audit_creation_method            fapswitch 2.2
_symmetry_space_group_name_H-M    P1
_symmetry_Int_Tables_number       1
_space_group_crystal_system       triclinic
_cell_length_a                    10.742683
_cell_length_b                    9.851877
_cell_length_c                    15.961768
_cell_angle_alpha                 92.793024
_cell_angle_beta                  95.587618
_cell_angle_gamma                 91.243291
_cell_volume                      1678.70481408

loop_
_atom_site_label
_atom_site_type_symbol
_atom_site_description
_atom_site_fract_x
_atom_site_fract_y
_atom_site_fract_z
_atom_type_partial_charge
O1    O     O_R   0.319660 0.618740 0.500000 -0.597025
O2    O     O_R   0.319660 0.381260 0.500000 -0.596872
C1    C     C_R   0.262518 0.498650 0.500275 0.795241
O3    O     O_R   0.500020 0.618840 0.379440 -0.554756
O4    O     O_R   0.500020 0.381160 0.379440 -0.534565
C2    C     C_R   0.496897 0.496695 0.340891 0.771230
Cu1   Cu    Cu3+1 0.500020 0.640660 0.500000 1.089240
Cu2   Cu    Cu3+1 0.500020 0.359340 0.500000 1.114904
O5    O     O_R   0.680370 0.618830 0.500010 -0.488267
O6    O     O_R   0.680370 0.381170 0.500010 -0.487871
O7    O     O_R   0.500010 0.618730 0.620560 -0.546680
O8    O     O_R   0.500010 0.381270 0.620560 -0.497046
C3    C     C_R   0.734389 0.501027 0.488020 0.858800
C4    C     C_R   0.491277 0.502373 0.658439 0.868620
C5    C     C_3   0.469142 0.640086 0.057885 -0.000897
C6    C     C_3   0.387713 0.388642 0.036804 0.065484
C7    C     C_3   0.379291 0.373250 0.935791 0.369740
C8    C     C_3   0.416005 0.645858 0.959436 0.406485
H1    H     H_    0.385035 0.645197 0.091506 0.202998
H2    H     H_    0.309933 0.454725 0.039757 0.204253
C9    C     C_1   0.474999 0.506527 0.746935 -0.017297
C10   C     C_3   0.500730 0.488585 0.083323 -0.378070
C11   C     C_3   0.470610 0.499916 0.915057 -0.404716
C12   C     C_3   0.625677 0.474067 0.952005 0.346756
C13   C     C_3   0.634155 0.447613 0.055208 0.423319
C14   C     C_1   0.467149 0.505853 0.822142 0.282243
C15   C     C_1   0.497603 0.484960 0.176003 0.297747
C16   C     C_1   0.495356 0.488293 0.251371 0.061317
C17   C     C_R   0.057323 0.380845 0.462769 -0.165158
C18   C     C_R   0.065857 0.618724 0.507533 -0.211444
H3    H     H_    0.105042 0.290217 0.443828 0.197579
H4    H     H_    0.120905 0.711053 0.524147 0.197931
C19   C     C_R   0.927744 0.385331 0.446036 0.403451
C20   C     C_R   0.938812 0.628052 0.483747 0.325324
C21   C     C_R   0.866266 0.505657 0.468677 -0.284123
C22   C     C_R   0.126269 0.496489 0.495667 -0.127429
C23   C     C_R   0.416999 0.066779 0.448098 -0.034026
C24   C     C_R   0.417705 0.921104 0.447591 -0.019543
H5    H     H_    0.348911 0.114417 0.405310 0.177100
H6    H     H_    0.350083 0.863553 0.404427 0.184782
N1    N     N_R   0.500030 0.852070 0.500020 -0.237325
N2    N     N_R   0.500030 0.147930 0.500020 -0.242116
C25   C     C_R   0.585417 0.931374 0.555458 0.391592
C26   C     C_R   0.587527 0.082042 0.554888 0.406305
S1    S     S_3+6 0.245259 0.691644 0.969656 0.089300
O9    O     O_2   0.245154 0.840729 0.994320 -0.250925
O10   O     O_2   0.160353 0.676107 0.889315 -0.134819
O11   O     O_3   0.174956 0.623251 0.048633 -0.501241
H7    H     H_    0.106737 0.685019 0.060878 0.417035
S2    S     S_3+6 0.212569 0.381916 0.885342 0.137951
O12   O     O_2   0.209410 0.468997 0.810624 -0.251401
O13   O     O_2   0.157309 0.247344 0.848997 -0.154279
O14   O     O_3   0.107081 0.433432 0.950212 -0.393047
H8    H     H_    0.062613 0.350820 0.965885 0.426235
S3    S     S_3+6 0.695861 0.854738 0.633440 0.129104
O15   O     O_2   0.824980 0.907772 0.622487 -0.242438
O16   O     O_2   0.660524 0.904460 0.717701 -0.179126
O17   O     O_3   0.715650 0.688337 0.644484 -0.495176
H9    H     H_    0.794597 0.681066 0.681439 0.387149
S4    S     S_3+6 0.720172 0.177490 0.618119 0.145749
O18   O     O_2   0.753195 0.122905 0.702910 -0.141624
O19   O     O_2   0.831547 0.159468 0.569177 -0.251283
O20   O     O_3   0.717790 0.343792 0.645544 -0.486326
H10   H     H_    0.806000 0.372006 0.663043 0.359475
S5    S     S_3+6 0.308479 0.271999 0.101171 0.057797
O21   O     O_2   0.398760 0.181382 0.147200 -0.211095
O22   O     O_2   0.247516 0.355743 0.166392 -0.253253
O23   O     O_3   0.192972 0.178656 0.045945 -0.479821
H11   H     H_    0.159586 0.119155 0.087236 0.407440
S6    S     S_3+6 0.525204 0.789517 0.126644 0.134610
O24   O     O_2   0.574258 0.750486 0.213029 -0.250136
O25   O     O_2   0.625602 0.875341 0.095578 -0.143007
O26   O     O_3   0.402734 0.887904 0.140638 -0.442696
H12   H     H_    0.402234 0.951532 0.094925 0.411437
S7    S     S_3+6 0.409528 0.205130 0.885483 0.184481
O27   O     O_2   0.378469 0.212076 0.791771 -0.192441
O28   O     O_2   0.533044 0.141938 0.895034 -0.142618
O29   O     O_3   0.310637 0.090613 0.918649 -0.340009
H13   H     H_    0.349009 0.069784 0.974939 0.405897
S8    S     S_3+6 0.451839 0.793726 0.896641 0.164033
O30   O     O_2   0.336110 0.843988 0.847862 -0.174289
O31   O     O_2   0.503648 0.907485 0.954761 -0.196238
O32   O     O_3   0.548826 0.770944 0.822616 -0.408484
H14   H     H_    0.496059 0.772613 0.768241 0.367629
S9    S     S_3+6 0.767168 0.536952 0.122007 0.171660
O33   O     O_2   0.889459 0.478930 0.101422 -0.121956
O34   O     O_2   0.778937 0.687000 0.114460 -0.176276
O35   O     O_3   0.759531 0.509001 0.224681 -0.467062
H15   H     H_    0.752942 0.599108 0.253567 0.393166
S10   S     S_3+6 0.665767 0.274320 0.091850 0.152003
O36   O     O_2   0.799543 0.236638 0.084645 -0.187505
O37   O     O_2   0.648811 0.268421 0.183682 -0.162158
O38   O     O_3   0.573364 0.150666 0.045819 -0.467308
H16   H     H_    0.632984 0.081491 0.030015 0.446127
S11   S     S_3+6 0.728409 0.620413 0.930501 0.160568
O39   O     O_2   0.730195 0.629467 0.836854 -0.208930
O40   O     O_2   0.694901 0.754535 0.967135 -0.155956
O41   O     O_3   0.878980 0.600581 0.966121 -0.388626
H17   H     H_    0.924487 0.679887 0.946779 0.411501
S12   S     S_3+6 0.711137 0.345203 0.887476 0.161160
O42   O     O_2   0.748291 0.218460 0.930084 -0.173116
O43   O     O_2   0.635217 0.305266 0.805947 -0.215620
O44   O     O_3   0.848175 0.402801 0.857388 -0.410890
H18   H     H_    0.878631 0.327883 0.821722 0.400257
S13   S     S_3+6 0.857440 0.258467 0.372901 0.117287
O45   O     O_2   0.874240 0.120749 0.407603 -0.173883
O46   O     O_2   0.721078 0.280274 0.350553 -0.221637
O47   O     O_3   0.931145 0.263620 0.284811 -0.437071
H19   H     H_    0.901956 0.180205 0.250766 0.420029
S14   S     S_3+6 0.900089 0.779138 0.431198 0.107872
O48   O     O_2   0.912480 0.751242 0.339122 -0.201355
O49   O     O_2   0.770449 0.827172 0.440228 -0.209700
O50   O     O_3   0.003831 0.904817 0.465830 -0.470310
H20   H     H_    0.997248 0.917160 0.527078 0.380968

loop_
_geom_bond_atom_site_label_1
_geom_bond_atom_site_label_2
_geom_bond_distance
_ccdc_geom_bond_type
C5    C8    1.622918 S    
C24   H6    1.081874 S    
S3    O15   1.500740 D    
O38   H16   0.985865 S    
O26   H12   0.984540 S    
S11   O39   1.503716 D    
C9    C14   1.211901 T    
S11   O41   1.680264 S    
Cu1   Cu2   2.771530 S    
C8    S8    1.862296 S    
O14   H8    0.989673 S    
C5    H1    1.095756 S    
S13   O46   1.496223 D    
C17   C22   1.397037 A    
C13   S10   1.859021 S    
C7    C11   1.636916 S    
S4    O20   1.676517 S    
C4    C9    1.438857 S    
Cu2   N2    2.082804 S    
C3    C21   1.479266 S    
O3    Cu1   1.925882 S    
O4    C2    1.319541 A    
O7    C4    1.327543 A    
S9    O35   1.684531 S    
C17   C19   1.393718 A    
O47   H19   0.990500 S    
S4    O19   1.500350 D    
C20   C21   1.419042 A    
C11   C14   1.483969 S    
C23   N2    1.371921 A    
O5    C3    1.322700 A    
S14   O48   1.501183 D    
C5    C10   1.600615 S    
C2    C16   1.425724 S    
C6    C7    1.605629 S    
S5    O22   1.505281 D    
C10   C13   1.597349 S    
S2    O13   1.506814 D    
C11   C12   1.740515 S    
S6    O24   1.498581 D    
C6    H2    1.073566 S    
S9    O34   1.492620 D    
C12   S12   1.903367 S    
C17   H3    1.084032 S    
N1    C25   1.406526 A    
N2    C26   1.411893 A    
S8    O32   1.660148 S    
C13   S9    1.873651 S    
S1    O10   1.498978 D    
S13   O47   1.681837 S    
S2    O14   1.678133 S    
C18   C20   1.386796 A    
C8    C11   1.712140 S    
C19   S13   1.772122 S    
C12   C13   1.674363 S    
C24   N1    1.372038 A    
S8    O31   1.482401 D    
C12   S11   1.862114 S    
O29   H13   0.984293 S    
O23   H11   0.990544 S    
O17   H9    0.990802 S    
S9    O33   1.502985 D    
S12   O44   1.687566 S    
S4    O18   1.494153 D    
O1    C1    1.321402 A    
Cu1   O7    1.946884 S    
S7    O27   1.505727 D    
C23   C24   1.434994 A    
S10   O37   1.498322 D    
O32   H14   0.990389 S    
Cu2   O8    1.925960 S    
S5    O23   1.679557 S    
S6    O26   1.676855 S    
S12   O43   1.497653 D    
S2    O12   1.500883 D    
S7    O28   1.475524 D    
S14   O50   1.683484 S    
O3    C2    1.322826 A    
O11   H7    0.990571 S    
O8    C4    1.320395 A    
S5    O21   1.496708 D    
C10   C15   1.485138 S    
S3    O16   1.495420 D    
C25   C26   1.484532 A    
C20   S14   1.781224 S    
C8    S1    1.918758 S    
C15   C16   1.204463 T    
S10   O38   1.651523 S    
O50   H20   0.988824 S    
S1    O11   1.691044 S    
C25   S3    1.835739 S    
Cu1   O5    1.953962 S    
C5    S6    1.846601 S    
C6    C10   1.642008 S    
O1    Cu1   1.944885 S    
O2    Cu2   1.954199 S    
S8    O30   1.507585 D    
O6    C3    1.334781 A    
C7    S2    1.896320 S    
O4    Cu2   1.946703 S    
S11   O40   1.484527 D    
S13   O45   1.498214 D    
C18   C22   1.393866 A    
O2    C1    1.321061 A    
C23   H5    1.081934 S    
C18   H4    1.081687 S    
S10   O36   1.505822 D    
C1    C22   1.458002 S    
C26   S4    1.871546 S    
S12   O42   1.494161 D    
C19   C21   1.418003 A    
Cu1   N1    2.082767 S    
S7    O29   1.672555 S    
S14   O49   1.498436 D    
O20   H10   0.991311 S    
S1    O9    1.502020 D    
O35   H15   0.987333 S    
Cu2   O6    1.944684 S    
O41   H17   0.990490 S    
S3    O17   1.673258 S    
O44   H18   0.990813 S    
C7    S7    1.854235 S    
S6    O25   1.493152 D    
C6    S5    1.828541 S    
