data_mof_unit_1028.cif
_audit_creation_date              2012-12-10T17:48:52-0500
_audit_creation_method            fapswitch 2.2
_symmetry_space_group_name_H-M    P1
_symmetry_Int_Tables_number       1
_space_group_crystal_system       triclinic
_cell_length_a                    10.750242
_cell_length_b                    14.743277
_cell_length_c                    14.707527
_cell_angle_alpha                 65.08611
_cell_angle_beta                  104.063746
_cell_angle_gamma                 103.365973
_cell_volume                      2028.6608859

loop_
_atom_site_label
_atom_site_type_symbol
_atom_type_description
_atom_site_fract_x
_atom_site_fract_y
_atom_site_fract_z
_atom_type_partial_charge
C1    C     C_R   0.479169 0.119495 0.312155 0.762292
C2    C     C_3   0.877570 0.004296 0.495159 -0.015003
C3    C     C_3   0.952416 0.961389 0.608275 0.427697
C4    C     C_3   0.941727 0.113054 0.428030 0.040929
C5    C     C_R   0.469907 0.186827 0.204302 -0.055166
C6    C     C_R   0.522441 0.813571 0.796710 -0.172925
C7    C     C_R   0.441124 0.215977 0.026729 -0.154100
C8    C     C_R   0.451834 0.149669 0.128271 -0.225671
C9    C     C_R   0.481161 0.290643 0.178028 -0.233951
C10   C     C_R   0.476822 0.359896 0.076575 0.032634
C11   C     C_R   0.450332 0.320977 0.999556 0.121539
C12   C     C_R   0.259572 0.001768 0.496245 0.800949
C13   C     C_R   0.493901 0.465997 0.050307 0.018038
C14   C     C_R   0.474821 0.532487 0.946268 0.020786
C15   C     C_R   0.426840 0.489937 0.870987 0.173315
C16   C     C_R   0.424498 0.385802 0.897201 0.048030
C17   C     C_R   0.528651 0.507749 0.125346 -0.205717
C18   C     C_R   0.531473 0.609548 0.100411 -0.225854
C19   C     C_R   0.516752 0.676866 0.999050 0.067039
C20   C     C_R   0.499523 0.639286 0.921814 0.084260
C21   C     C_R   0.524036 0.781712 0.973521 0.080207
C22   C     C_R   0.523641 0.849797 0.871943 0.253981
C23   C     C_R   0.519696 0.880478 0.688187 0.822755
C24   C     C_R   0.515085 0.709704 0.823614 -0.280322
C25   C     C_R   0.738778 0.299500 0.647054 0.161035
C26   C     C_R   0.700607 0.215730 0.620242 0.039788
C27   C     C_R   0.507580 0.277949 0.518596 0.024942
C28   C     C_R   0.543000 0.369163 0.535857 -0.092050
C29   C     C_R   0.654184 0.373370 0.611198 0.010649
C30   C     C_R   0.471006 0.454239 0.484957 0.092927
C31   C     C_R   0.502428 0.534003 0.522004 -0.013362
C32   C     C_R   0.587834 0.518294 0.614070 -0.312711
C33   C     C_R   0.670826 0.445932 0.653918 0.261177
C34   C     C_R   0.739260 0.002855 0.495779 0.834260
C35   C     C_R   0.371102 0.465137 0.398381 0.121884
C36   C     C_R   0.299849 0.545767 0.358690 -0.240188
C37   C     C_R   0.334065 0.624758 0.392458 0.108995
C38   C     C_R   0.441622 0.624188 0.469895 -0.052463
C39   C     C_R   0.264889 0.707092 0.344969 -0.327306
C40   C     C_R   0.305183 0.790819 0.371134 0.050594
C41   C     C_R   0.486006 0.716827 0.486614 0.325186
C42   C     C_3   0.025765 0.939272 0.432598 0.130042
C43   C     C_3   0.884958 0.933504 0.442576 -0.500701
C44   C     C_3   0.096235 0.961500 0.604181 -0.453985
C45   C     C_3   0.090115 0.114664 0.441451 -0.131250
C46   C     C_3   0.121013 0.002606 0.492790 0.006297
Cu1   Cu    Cu3+1 0.465900 0.918260 0.475680 0.945923
Cu2   Cu    Cu3+1 0.534100 0.081740 0.524320 0.945433
H1    H     H_    0.162604 0.009057 0.643284 0.156510
H2    H     H_    0.525969 0.684664 0.767271 0.190953
H3    H     H_    0.551549 0.635160 0.162191 0.147776
H4    H     H_    0.423294 0.184149 0.969691 0.170507
H5    H     H_    0.443865 0.069411 0.147028 0.158111
H6    H     H_    0.488584 0.315051 0.238620 0.163709
H7    H     H_    0.032339 0.983520 0.351107 0.093469
H8    H     H_    0.554389 0.464137 0.205172 0.146853
H9    H     H_    0.250883 0.853814 0.334938 0.138934
H10   H     H_    0.221256 0.549679 0.295462 0.143379
H11   H     H_    0.763905 0.159235 0.646449 0.166735
H12   H     H_    0.416101 0.260635 0.475896 0.180854
H13   H     H_    0.824744 0.956220 0.365391 0.142232
H14   H     H_    0.588664 0.559899 0.659027 0.150368
H15   H     H_    0.180543 0.707179 0.286908 0.140486
H16   H     H_    0.842927 0.854647 0.484575 0.241819
H17   H     H_    0.125119 0.885599 0.648682 0.167617
H18   H     H_    0.141874 0.153239 0.493807 0.169249
H19   H     H_    0.900254 0.124052 0.347339 0.154630
N1    N     N_R   0.585360 0.204570 0.560800 -0.207882
N2    N     N_R   0.414550 0.795430 0.439160 -0.169350
O1    O     O_R   0.455060 0.022100 0.338110 -0.590981
O2    O     O_R   0.512640 0.160150 0.379180 -0.591455
O3    O     O_R   0.288900 0.930980 0.479450 -0.555666
O4    O     O_R   0.346480 0.069030 0.520520 -0.606505
O5    O     O_R   0.487360 0.839850 0.620820 -0.582902
O6    O     O_R   0.544940 0.977900 0.661890 -0.541245
O7    O     O_R   0.653520 0.930970 0.479480 -0.565559
O8    O     O_R   0.711100 0.069020 0.520550 -0.545727
N3    N     N_2   0.054839 0.839824 0.452056 -0.396006
H20   H     H_    0.006333 0.813372 0.396220 0.234936
C47   C     C_3   0.064515 0.760527 0.552797 -0.648021
H21   H     H_    0.057885 0.687194 0.546201 0.195363
H22   H     H_    0.985045 0.753600 0.591979 0.233126
H23   H     H_    0.160102 0.773441 0.598552 0.246214
N4    N     N_2   0.913450 0.195502 0.447078 -0.405017
H24   H     H_    0.985652 0.227048 0.490100 0.244590
C48   C     C_3   0.845683 0.270867 0.361686 -0.632466
H25   H     H_    0.816252 0.321708 0.388357 0.222672
H26   H     H_    0.756863 0.234240 0.326189 0.227451
H27   H     H_    0.910096 0.316467 0.304318 0.218550
N5    N     N_2   0.947506 0.023815 0.662914 -0.413658
H28   H     H_    0.994824 0.096373 0.633912 0.251281
C49   C     C_3   0.977193 0.981703 0.773128 -0.759583
H29   H     H_    0.983056 0.041129 0.802207 0.224934
H30   H     H_    0.071760 0.952897 0.799460 0.229500
H31   H     H_    0.899234 0.920204 0.805632 0.234327
N6    N     N_3   0.385361 0.343666 0.820717 -0.622987
H32   H     H_    0.448590 0.378493 0.767851 0.221661
H33   H     H_    0.291298 0.357293 0.783938 0.236168
N7    N     N_2   0.522415 0.954268 0.845807 -0.394504
H34   H     H_    0.456352 0.967354 0.877753 0.260342
C50   C     C_3   0.649076 0.011738 0.859871 -0.650074
H35   H     H_    0.692307 0.986158 0.941712 0.223837
H36   H     H_    0.639576 0.092957 0.831137 0.221326
H37   H     H_    0.714718 0.003247 0.817061 0.231104
N8    N     N_2   0.362150 0.547584 0.773262 -0.438595
H38   H     H_    0.373441 0.532097 0.713896 0.251623
C51   C     C_3   0.229122 0.553019 0.771888 -0.691364
H39   H     H_    0.184692 0.595901 0.693344 0.220228
H40   H     H_    0.224781 0.592203 0.820864 0.240636
H41   H     H_    0.172351 0.476027 0.798479 0.223494
N9    N     N_3   0.531124 0.820957 0.049279 -0.617469
H42   H     H_    0.616989 0.805803 0.101073 0.214493
H43   H     H_    0.451897 0.785116 0.087400 0.218796
N10   N     N_2   0.757067 0.437370 0.746577 -0.422771
H44   H     H_    0.709712 0.409549 0.808222 0.253030
C52   C     C_3   0.851954 0.525858 0.743239 -0.735991
H45   H     H_    0.925029 0.506192 0.813725 0.235823
H46   H     H_    0.804975 0.587913 0.738054 0.223103
H47   H     H_    0.902843 0.552400 0.677223 0.229458
N11   N     N_3   0.613324 0.736933 0.539062 -0.554658
H48   H     H_    0.612861 0.716380 0.616033 0.207772
H49   H     H_    0.680903 0.705003 0.525809 0.202353
N12   N     N_2   0.867830 0.313553 0.698677 -0.426878
H50   H     H_    0.912606 0.387021 0.682604 0.282090
C53   C     C_3   0.894466 0.245286 0.803782 -0.686768
H51   H     H_    0.997640 0.263169 0.835403 0.226049
H52   H     H_    0.877387 0.166071 0.809769 0.213818
H53   H     H_    0.832023 0.252974 0.849443 0.241623
N13   N     N_3   0.343710 0.399112 0.345110 -0.644490
H54   H     H_    0.354886 0.442452 0.269441 0.227870
H55   H     H_    0.246458 0.366394 0.345636 0.236891
N14   N     N_3   0.891532 0.856393 0.660445 -0.615390
H56   H     H_    0.801666 0.856275 0.676156 0.217297
H57   H     H_    0.948816 0.820209 0.729872 0.215376
N15   N     N_3   0.135758 0.175226 0.343505 -0.612925
H58   H     H_    0.236810 0.185297 0.353538 0.236183
H59   H     H_    0.099153 0.141291 0.291084 0.206442

loop_
_geom_bond_atom_site_label_1
_geom_bond_atom_site_label_2
_ccdc_geom_bond_type
C44   H1    S    
C50   H35   S    
C19   C20   A    
N10   H44   S    
N15   H58   S    
C45   C46   S    
C7    C11   A    
N8    C51   S    
C33   N10   S    
C1    O2    A    
C30   C35   A    
C3    N5    S    
C1    C5    S    
C36   C37   A    
C19   C21   A    
N4    C48   S    
Cu1   O7    S    
C36   H10   S    
C27   H12   S    
C34   O8    A    
C30   C31   A    
N3    C47   S    
N12   C53   S    
C15   C16   A    
C6    C22   A    
C29   C33   A    
C52   H45   S    
C18   C19   A    
C42   C46   S    
C20   C24   A    
Cu1   N2    S    
C27   N1    A    
C31   C32   A    
N11   H49   S    
N14   H56   S    
N6    H33   S    
C18   H3    S    
C53   H53   S    
C51   H39   S    
C22   N7    S    
C9    C10   A    
C35   N13   S    
C2    C34   S    
C12   O3    A    
C50   H36   S    
C21   C22   A    
C25   C29   A    
C51   H40   S    
Cu2   O6    S    
C44   H17   S    
C47   H23   S    
C12   O4    A    
C21   N9    S    
C44   C46   S    
C43   H16   S    
C4    C45   S    
C24   H2    S    
C3    C44   S    
C16   N6    S    
C45   N15   S    
C40   N2    A    
C3    N14   S    
Cu1   Cu2   S    
C14   C20   A    
N12   H50   S    
N4    H24   S    
C38   C41   A    
C12   C46   S    
C39   C40   A    
N3    H20   S    
C25   C26   A    
C48   H27   S    
C49   H31   S    
C35   C36   A    
Cu2   O8    S    
C2    C4    S    
Cu1   O1    S    
C5    C9    A    
C37   C38   A    
C42   H7    S    
C5    C8    A    
C11   C16   A    
N5    C49   S    
N7    H34   S    
C4    N4    S    
C2    C43   S    
C6    C24   A    
N6    H32   S    
C49   H30   S    
C17   C18   A    
N9    H43   S    
Cu2   N1    S    
C25   N12   S    
C17   H8    S    
C47   H22   S    
N7    C50   S    
C42   N3    S    
C50   H37   S    
C53   H51   S    
C51   H41   S    
C42   C43   S    
C23   O5    A    
C45   H18   S    
N11   H48   S    
C43   H13   S    
C41   N2    A    
N13   H54   S    
C26   H11   S    
N15   H59   S    
C28   C29   A    
C40   H9    S    
N9    H42   S    
C48   H25   S    
Cu2   O4    S    
Cu1   O5    S    
C23   O6    A    
C47   H21   S    
C10   C13   A    
C8    H5    S    
C7    H4    S    
C4    H19   S    
N10   C52   S    
C52   H47   S    
C39   H15   S    
N8    H38   S    
C1    O1    A    
C31   C38   A    
C13   C17   A    
C26   N1    A    
C32   C33   A    
C15   N8    S    
C28   C30   A    
C2    C3    S    
C32   H14   S    
C37   C39   A    
N5    H28   S    
C6    C23   S    
C49   H29   S    
C52   H46   S    
C48   H26   S    
C41   N11   S    
Cu1   O3    S    
C7    C8    A    
C10   C11   A    
N14   H57   S    
C27   C28   A    
C53   H52   S    
C14   C15   A    
C9    H6    S    
Cu2   O2    S    
C13   C14   A    
C34   O7    A    
N13   H55   S    
