data_mof_unit_4512.cif
_audit_creation_date              2012-12-10T19:00:01-0500
_audit_creation_method            fapswitch 2.2
_symmetry_space_group_name_H-M    P1
_symmetry_Int_Tables_number       1
_space_group_crystal_system       triclinic
_cell_length_a                    10.754491
_cell_length_b                    10.672953
_cell_length_c                    9.834564
_cell_angle_alpha                 89.904585
_cell_angle_beta                  90.455459
_cell_angle_gamma                 89.721798
_cell_volume                      1128.78205478

loop_
_atom_site_label
_atom_site_type_symbol
_atom_type_description
_atom_site_fract_x
_atom_site_fract_y
_atom_site_fract_z
_atom_type_partial_charge
C1    C     C_R   0.497498 0.260144 0.499930 0.883720
C2    C     C_R   0.570093 0.066059 0.596038 -0.278803
C3    C     C_R   0.504047 0.872261 0.500088 -0.056978
C4    C     C_R   0.495953 0.127739 0.499912 -0.056972
C5    C     C_R   0.554557 0.595100 0.072233 -0.080170
C6    C     C_R   0.445443 0.404900 0.927767 -0.080173
C7    C     C_R   0.554567 0.595033 0.928354 -0.061009
C8    C     C_R   0.445433 0.404967 0.071646 -0.061014
C9    C     C_R   0.259962 0.502779 0.499024 0.864920
C10   C     C_R   0.740038 0.497221 0.500975 0.864921
C11   C     C_R   0.219253 0.752804 0.126329 -0.145776
C12   C     C_R   0.502502 0.739855 0.500069 0.883728
C13   C     C_R   0.780734 0.247204 0.873671 -0.145771
C14   C     C_R   0.166936 0.709790 0.247525 -0.130763
C15   C     C_R   0.833054 0.290215 0.752474 -0.130751
C16   C     C_R   0.116139 0.589076 0.254083 0.152779
C17   C     C_R   0.883861 0.410925 0.745918 0.152776
C18   C     C_R   0.117714 0.512364 0.138320 -0.153426
C19   C     C_R   0.882293 0.487636 0.861683 -0.153432
C20   C     C_R   0.170367 0.555646 0.017696 -0.144378
C21   C     C_R   0.829637 0.444357 0.982307 -0.144377
C22   C     C_R   0.221227 0.675674 0.011644 -0.094706
C23   C     C_R   0.872540 0.495811 0.502826 -0.080068
C24   C     C_R   0.778767 0.324333 0.988358 -0.094705
C25   C     C_R   0.931960 0.538096 0.385835 -0.261621
C26   C     C_R   0.068040 0.461904 0.614165 -0.261621
C27   C     C_R   0.127460 0.504189 0.497174 -0.080068
C28   C     C_R   0.940631 0.457104 0.618798 -0.008175
C29   C     C_R   0.059369 0.542895 0.381203 -0.008177
C30   C     C_R   0.424127 0.062998 0.403525 0.114925
C31   C     C_R   0.575874 0.937001 0.596475 0.114929
C32   C     C_R   0.429908 0.933941 0.403961 -0.278798
H1    H     H_    0.262224 0.708811 0.918147 0.136493
H2    H     H_    0.921173 0.581000 0.858108 0.130651
H3    H     H_    0.172249 0.495854 0.929137 0.130945
H4    H     H_    0.827760 0.504148 0.070867 0.130945
H5    H     H_    0.879071 0.570557 0.298193 0.156670
H6    H     H_    0.120929 0.429444 0.701808 0.156670
H7    H     H_    0.374699 0.881295 0.331744 0.150049
H8    H     H_    0.625302 0.118704 0.668254 0.150045
H9    H     H_    0.598711 0.670856 0.126886 0.127185
H10   H     H_    0.401289 0.329145 0.873114 0.127185
H11   H     H_    0.272665 0.169928 0.364489 0.170718
H12   H     H_    0.737768 0.291198 0.081854 0.136494
H13   H     H_    0.302136 0.065691 0.241281 0.164898
H14   H     H_    0.727353 0.830092 0.635503 0.170711
H15   H     H_    0.697862 0.934305 0.758735 0.164890
H16   H     H_    0.598917 0.670609 0.874218 0.146713
H17   H     H_    0.401082 0.329392 0.125782 0.146712
H18   H     H_    0.258032 0.845985 0.120966 0.114754
H19   H     H_    0.741947 0.154027 0.879032 0.114752
H20   H     H_    0.165595 0.770188 0.335879 0.105038
H21   H     H_    0.834390 0.229819 0.664120 0.105034
H22   H     H_    0.078841 0.418997 0.141896 0.130648
N1    N     N_R   0.499970 0.499970 0.857200 -0.076165
N2    N     N_R   0.500030 0.500030 0.142800 -0.076165
N3    N     N_3   0.344269 0.128404 0.308789 -0.454127
N4    N     N_3   0.655736 0.871594 0.691211 -0.454109
O1    O     O_R   0.499990 0.316750 0.614620 -0.630095
O2    O     O_R   0.500010 0.683250 0.385380 -0.630095
O3    O     O_R   0.499990 0.316780 0.385290 -0.606593
O4    O     O_R   0.500010 0.683220 0.614710 -0.606591
O5    O     O_R   0.316760 0.500000 0.614660 -0.632675
O6    O     O_R   0.683240 0.500000 0.385340 -0.632675
O7    O     O_R   0.316760 0.500020 0.385330 -0.605762
O8    O     O_R   0.683240 0.499980 0.614670 -0.605760
Zn1   Zn    Zn3+2 0.500000 0.499980 0.653120 0.950825
Zn2   Zn    Zn3+2 0.500000 0.500020 0.346880 0.950823

loop_
_geom_bond_atom_site_label_1
_geom_bond_atom_site_label_2
_ccdc_geom_bond_type
C9    O5    A    
C2    C4    A    
C5    C7    A    
O5    Zn1   S    
C15   C17   A    
C10   C23   S    
C27   C29   A    
C12   O4    A    
C11   C22   A    
N1    Zn1   S    
C13   C15   A    
C7    N1    A    
C6    N1    A    
O7    Zn2   S    
H13   N3    S    
C7    H16   S    
C1    C4    S    
O6    Zn2   S    
C10   O8    A    
O8    Zn1   S    
C4    C30   A    
C9    C27   S    
C21   H4    S    
C13   H19   S    
C23   C28   A    
H14   N4    S    
H15   N4    S    
C3    C31   A    
C20   H3    S    
O3    Zn2   S    
C8    N2    A    
C26   C27   A    
O4    Zn1   S    
C6    C8    A    
C15   H21   S    
C31   N4    S    
C14   H20   S    
C17   C19   A    
C1    O1    A    
C20   C22   A    
C9    O7    A    
C23   C25   A    
C25   C29   A    
C3    C32   A    
C24   H12   S    
C11   C14   A    
C14   C16   A    
C21   C24   A    
C18   H22   S    
C30   C32   A    
C30   N3    S    
C2    H8    S    
O1    Zn1   S    
O2    Zn2   S    
C18   C20   A    
C16   C18   A    
C6    H10   S    
C32   H7    S    
C11   H18   S    
C22   H1    S    
H11   N3    S    
C26   H6    S    
C5    H9    S    
C3    C12   S    
C5    N2    A    
C25   H5    S    
C16   C29   S    
N2    Zn2   S    
C17   C28   S    
C26   C28   A    
C8    H17   S    
C10   O6    A    
C13   C24   A    
C1    O3    A    
C2    C31   A    
C19   C21   A    
C19   H2    S    
C12   O2    A    
