data_mof_unit_2322.cif
_audit_creation_date              2012-12-10T16:49:27-0500
_audit_creation_method            fapswitch 2.2
_symmetry_space_group_name_H-M    P1
_symmetry_Int_Tables_number       1
_space_group_crystal_system       triclinic
_cell_length_a                    19.375503
_cell_length_b                    8.726867
_cell_length_c                    7.462417
_cell_angle_alpha                 102.356705
_cell_angle_beta                  96.2039
_cell_angle_gamma                 93.468111
_cell_volume                      1220.80098912

loop_
_atom_site_label
_atom_site_type_symbol
_atom_type_description
_atom_site_fract_x
_atom_site_fract_y
_atom_site_fract_z
_atom_type_partial_charge
C1    C     C_R   0.495932 0.200359 0.455153 0.856306
C2    C     C_R   0.504084 0.799639 0.544793 0.850829
C3    C     C_2   0.482322 0.035147 0.438711 0.119879
C4    C     C_2   0.517927 0.964822 0.560928 0.034673
C5    C     C_R   0.367158 0.495932 0.498056 0.860957
C6    C     C_R   0.632821 0.504922 0.502037 0.847171
C7    C     C_R   0.261661 0.527550 0.659003 -0.185712
C8    C     C_R   0.738448 0.466319 0.342753 -0.165327
C9    C     C_R   0.190084 0.530713 0.658868 -0.219798
C10   C     C_R   0.810048 0.462039 0.344404 -0.210884
C11   C     C_R   0.145407 0.498369 0.492157 -0.052837
C12   C     C_R   0.854532 0.499622 0.511691 -0.058262
C13   C     C_R   0.173089 0.464602 0.322456 0.419364
C14   C     C_R   0.826536 0.541049 0.680414 0.428886
C15   C     C_R   0.245556 0.456404 0.322160 0.326543
C16   C     C_R   0.754205 0.552753 0.678566 0.334184
C17   C     C_R   0.290519 0.491169 0.492302 -0.142873
C18   C     C_R   0.709437 0.510439 0.508245 -0.152096
C19   C     C_R   0.930337 0.497797 0.507809 0.465721
C20   C     C_R   0.069689 0.498485 0.497292 0.463660
Cu1   Cu    Cu3+1 0.507710 0.517380 0.684380 1.153452
Cu2   Cu    Cu3+1 0.492290 0.482620 0.315620 1.150055
H1    H     H_    0.294504 0.554611 0.790694 0.230423
H2    H     H_    0.705696 0.433964 0.210990 0.232702
H3    H     H_    0.169527 0.557691 0.790276 0.201554
H4    H     H_    0.830723 0.429633 0.213609 0.204493
N1    N     N_R   0.024423 0.408655 0.357397 -0.131178
N2    N     N_R   0.975639 0.587421 0.647814 -0.128655
N3    N     N_R   0.956059 0.408624 0.362150 -0.216977
N4    N     N_R   0.044003 0.587418 0.643125 -0.218992
N5    N     N_2   0.480680 0.456420 0.038530 0.169274
N6    N     N_2   0.519320 0.543580 0.961470 0.174673
O1    O     O_R   0.505010 0.286130 0.619770 -0.515916
O2    O     O_R   0.494990 0.713870 0.380230 -0.512243
O3    O     O_R   0.491990 0.256780 0.308370 -0.581578
O4    O     O_R   0.508010 0.743220 0.691630 -0.585037
O5    O     O_R   0.406650 0.514660 0.655750 -0.557756
O6    O     O_R   0.593350 0.485340 0.344250 -0.554271
O7    O     O_R   0.393640 0.485310 0.344340 -0.555024
O8    O     O_R   0.606360 0.514690 0.655660 -0.558977
O9    O     O_3   0.128111 0.440230 0.159690 -0.689692
H5    H     H_    0.154231 0.418817 0.051498 0.366808
O10   O     O_3   0.871063 0.570327 0.844384 -0.686016
H6    H     H_    0.844369 0.590402 0.951601 0.371436
O11   O     O_3   0.270781 0.415050 0.154476 -0.722491
H7    H     H_    0.298318 0.323989 0.160163 0.350632
O12   O     O_3   0.729097 0.606835 0.844322 -0.712477
H8    H     H_    0.699163 0.691734 0.826902 0.361862
S1    S     S_3+6 0.407966 0.944165 0.280141 0.008498
O13   O     O_2   0.431771 0.850318 0.107840 -0.258778
O14   O     O_2   0.364367 0.837613 0.365628 -0.294837
O15   O     O_3   0.358780 0.082600 0.222840 -0.584895
H9    H     H_    0.321198 0.023879 0.128092 0.377028
S2    S     S_3+6 0.592633 0.055923 0.718499 0.033737
O16   O     O_2   0.636977 0.933208 0.770961 -0.323057
O17   O     O_2   0.636011 0.161455 0.631277 -0.263004
O18   O     O_3   0.567050 0.163231 0.911296 -0.460246
H10   H     H_    0.537700 0.087861 0.958996 0.363745
O19   O     O_3   0.434434 0.350891 0.922608 -0.586790
H11   H     H_    0.410346 0.294849 0.003308 0.350311
O20   O     O_3   0.565394 0.649502 0.077418 -0.575131
H12   H     H_    0.589484 0.705532 0.996695 0.352948

loop_
_geom_bond_atom_site_label_1
_geom_bond_atom_site_label_2
_ccdc_geom_bond_type
C7    C17   A    
C2    C4    S    
O10   H6    S    
C6    O6    A    
C15   C17   A    
Cu1   N6    S    
Cu2   O3    S    
C20   N1    A    
C5    O5    A    
N1    N3    A    
C11   C13   A    
O9    H5    S    
N5    N6    D    
S1    O15   S    
C10   H4    S    
S1    O14   D    
N2    N4    A    
C3    S1    S    
C9    H3    S    
O19   H11   S    
Cu1   O4    S    
C20   N4    A    
Cu1   Cu2   S    
C19   N2    A    
C9    C11   A    
C2    O2    A    
O18   H10   S    
Cu1   O8    S    
C10   C12   A    
C7    H1    S    
Cu2   O7    S    
C16   O12   S    
C13   O9    S    
C8    H2    S    
C12   C14   A    
N6    O20   S    
C6    O8    A    
C13   C15   A    
O20   H12   S    
Cu2   O2    S    
C6    C18   S    
S2    O17   D    
C11   C20   S    
Cu1   O1    S    
Cu2   N5    S    
C15   O11   S    
C1    O1    A    
C3    C4    D    
Cu2   O6    S    
C5    C17   S    
O15   H9    S    
C1    O3    A    
Cu1   O5    S    
C16   C18   A    
S1    O13   D    
C2    O4    A    
C7    C9    A    
C5    O7    A    
S2    O16   D    
C12   C19   S    
C4    S2    S    
C14   C16   A    
O11   H7    S    
S2    O18   S    
C8    C10   A    
C8    C18   A    
O12   H8    S    
C14   O10   S    
C1    C3    S    
N5    O19   S    
C19   N3    A    
