data_mof_unit_1659.cif
_audit_creation_date              2012-12-11T17:44:01-0500
_audit_creation_method            fapswitch 2.2
_symmetry_space_group_name_H-M    P1
_symmetry_Int_Tables_number       1
_space_group_crystal_system       triclinic
_cell_length_a                    20.263644
_cell_length_b                    22.677425
_cell_length_c                    6.936323
_cell_angle_alpha                 90.000023
_cell_angle_beta                  87.031142
_cell_angle_gamma                 90.0
_cell_volume                      3183.15149008

loop_
_atom_site_label
_atom_site_type_symbol
_atom_type_description
_atom_site_fract_x
_atom_site_fract_y
_atom_site_fract_z
_atom_type_partial_charge
O1    O     O_R   0.751270 0.447300 0.600030 -0.541155
O2    O     O_R   0.248730 0.947300 0.399970 -0.541155
O3    O     O_R   0.613530 0.440160 0.952150 -0.536617
O4    O     O_R   0.386470 0.940160 0.047850 -0.536617
O5    O     O_R   0.613050 0.552700 0.122560 -0.536831
O6    O     O_R   0.386950 0.052700 0.877440 -0.536831
C1    C     C_R   0.591664 0.425272 0.786600 0.684502
C2    C     C_R   0.408336 0.925272 0.213400 0.684502
O7    O     O_R   0.750780 0.440350 0.929820 -0.540849
O8    O     O_R   0.249220 0.940350 0.070180 -0.540849
O9    O     O_R   0.751280 0.552900 0.100070 -0.539376
O10   O     O_R   0.248720 0.052900 0.899930 -0.539376
C3    C     C_R   0.772540 0.424667 0.758111 0.693660
C4    C     C_R   0.227459 0.924667 0.241889 0.693660
O11   O     O_R   0.613040 0.447100 0.622520 -0.540905
O12   O     O_R   0.386960 0.947100 0.377480 -0.540905
O13   O     O_3   0.682160 0.536920 0.777780 -0.363314
O14   O     O_3   0.317840 0.036920 0.222220 -0.363314
V1    V     V_3+5 0.682160 0.493150 0.052630 1.396321
V2    V     V_3+5 0.317840 0.993150 0.947370 1.396321
O15   O     O_R   0.750790 0.559840 0.429870 -0.541901
O16   O     O_R   0.249210 0.059840 0.570130 -0.541901
C5    C     C_R   0.773876 0.574092 0.257783 0.696541
C6    C     C_R   0.226124 0.074092 0.742217 0.696540
O17   O     O_R   0.613540 0.559650 0.452200 -0.538853
O18   O     O_R   0.386460 0.059650 0.547800 -0.538853
C7    C     C_R   0.590493 0.573467 0.287475 0.707309
C8    C     C_R   0.409507 0.073467 0.712525 0.707310
V3    V     V_3+5 0.682160 0.506850 0.552630 1.395589
V4    V     V_3+5 0.317840 0.006850 0.447370 1.395589
O19   O     O_3   0.682150 0.463080 0.277610 -0.370932
O20   O     O_3   0.317850 0.963080 0.722390 -0.370932
C9    C     C_R   0.578795 0.859279 0.180604 -0.173352
C10   C     C_R   0.421205 0.359279 0.819396 -0.173352
H1    H     H_    0.538759 0.946608 0.169985 0.109448
H2    H     H_    0.461241 0.446608 0.830014 0.109449
H3    H     H_    0.668674 0.774489 0.167419 0.131416
H4    H     H_    0.331326 0.274489 0.832581 0.131416
H5    H     H_    0.629070 0.875086 0.157847 0.130049
H6    H     H_    0.370930 0.375086 0.842153 0.130049
C11   C     C_R   0.462080 0.881435 0.213935 -0.042607
C12   C     C_R   0.537920 0.381435 0.786065 -0.042607
C13   C     C_R   0.468909 0.593228 0.338526 0.051028
C14   C     C_R   0.531091 0.093228 0.661474 0.051027
C15   C     C_R   0.414318 0.632287 0.332654 0.027373
C16   C     C_R   0.585682 0.132287 0.667347 0.027372
C17   C     C_R   0.424949 0.692366 0.296517 -0.272617
C18   C     C_R   0.575051 0.192366 0.703484 -0.272619
C19   C     C_R   0.488710 0.716067 0.261662 0.079034
C20   C     C_R   0.511290 0.216067 0.738339 0.079035
C21   C     C_R   0.543446 0.676297 0.254522 0.045415
C22   C     C_R   0.456554 0.176297 0.745478 0.045415
C23   C     C_R   0.499819 0.778236 0.234619 0.093373
C24   C     C_R   0.500181 0.278236 0.765381 0.093373
C25   C     C_R   0.565713 0.798779 0.202458 0.135234
C26   C     C_R   0.434287 0.298779 0.797542 0.135234
C27   C     C_R   0.618379 0.758972 0.193040 -0.200551
C28   C     C_R   0.381621 0.258972 0.806960 -0.200551
C29   C     C_R   0.607579 0.698900 0.217811 -0.178106
C30   C     C_R   0.392421 0.198900 0.782189 -0.178106
C31   C     C_R   0.448265 0.821101 0.240006 -0.217772
C32   C     C_R   0.551735 0.321101 0.759994 -0.217772
C33   C     C_R   0.527448 0.900158 0.186856 -0.193715
C34   C     C_R   0.472552 0.400159 0.813144 -0.193717
C35   C     C_R   0.533485 0.614935 0.289972 -0.140717
C36   C     C_R   0.466515 0.114935 0.710028 -0.140717
H7    H     H_    0.397026 0.809420 0.263927 0.090404
H8    H     H_    0.602974 0.309420 0.736073 0.090404
H9    H     H_    0.381639 0.719878 0.296162 0.105643
H10   H     H_    0.618361 0.219878 0.703840 0.105643
H11   H     H_    0.650469 0.670377 0.210698 0.112877
H12   H     H_    0.349531 0.170377 0.789302 0.112877
C37   C     C_R   0.173838 0.879290 0.258730 -0.067868
C38   C     C_R   0.826162 0.379290 0.741270 -0.067868
C39   C     C_R   0.162499 0.836641 0.111994 0.029539
C40   C     C_R   0.837501 0.336641 0.888006 0.029539
C41   C     C_R   0.107878 0.798246 0.135772 -0.169664
C42   C     C_R   0.892122 0.298246 0.864228 -0.169664
C43   C     C_R   0.065159 0.800022 0.302746 0.406467
C44   C     C_R   0.934841 0.300022 0.697254 0.406468
C45   C     C_R   0.078812 0.839886 0.448891 -0.190938
C46   C     C_R   0.921188 0.339886 0.551108 -0.190938
C47   C     C_R   0.131918 0.879040 0.427237 -0.235530
C48   C     C_R   0.868081 0.379039 0.572763 -0.235530
C49   C     C_R   0.906652 0.683667 0.390598 -0.141943
C50   C     C_R   0.093347 0.183667 0.609402 -0.141943
C51   C     C_R   0.853367 0.644247 0.406180 -0.217242
C52   C     C_R   0.146633 0.144247 0.593820 -0.217242
C53   C     C_R   0.937321 0.696983 0.208313 0.428695
C54   C     C_R   0.062679 0.196983 0.791687 0.428694
N1    N     N_2   0.009185 0.761905 0.331145 -0.302935
N2    N     N_2   0.990815 0.261905 0.668855 -0.302935
N3    N     N_2   0.992872 0.735591 0.182492 -0.307544
N4    N     N_2   0.007128 0.235591 0.817508 -0.307544
C55   C     C_R   0.829279 0.617268 0.240881 -0.049148
C56   C     C_R   0.170720 0.117268 0.759119 -0.049148
H13   H     H_    0.831284 0.634715 0.548264 0.135265
H14   H     H_    0.168716 0.134715 0.451736 0.135265
H15   H     H_    0.923968 0.703103 0.521260 0.135982
H16   H     H_    0.076032 0.203102 0.478741 0.135982
H17   H     H_    0.047293 0.841335 0.579790 0.135962
H18   H     H_    0.952707 0.341335 0.420209 0.135961
H19   H     H_    0.139419 0.910157 0.542555 0.140921
H20   H     H_    0.860581 0.410157 0.457444 0.140921
C57   C     C_R   0.859663 0.631094 0.059535 -0.199269
C58   C     C_R   0.140336 0.131094 0.940465 -0.199269
C59   C     C_R   0.913041 0.670279 0.044125 -0.181576
C60   C     C_R   0.086958 0.170279 0.955875 -0.181576
H21   H     H_    0.842703 0.611179 0.929115 0.134678
H22   H     H_    0.157296 0.111179 0.070885 0.134678
H23   H     H_    0.099293 0.766102 0.024356 0.139576
H24   H     H_    0.900707 0.266102 0.975644 0.139575
H25   H     H_    0.935889 0.679763 0.902898 0.122723
H26   H     H_    0.064110 0.179763 0.097102 0.122723
C61   C     C_3   0.207639 0.828720 0.931625 -0.339236
C62   C     C_3   0.275434 0.804166 0.980537 -0.291961
C63   C     C_3   0.320859 0.796941 0.799482 -0.739944
H27   H     H_    0.298907 0.765727 0.697276 0.214365
H28   H     H_    0.329147 0.840162 0.726953 0.238754
H29   H     H_    0.369349 0.779253 0.839966 0.218073
H30   H     H_    0.299809 0.833923 0.081782 0.179288
H31   H     H_    0.268835 0.760494 0.051843 0.187391
H32   H     H_    0.185410 0.797197 0.830576 0.165411
H33   H     H_    0.212413 0.870506 0.849226 0.195183
C64   C     C_3   0.792361 0.328720 0.068375 -0.339236
C65   C     C_3   0.724566 0.304166 0.019463 -0.291961
C66   C     C_3   0.679140 0.296941 0.200517 -0.739944
H34   H     H_    0.701093 0.265727 0.302724 0.214365
H35   H     H_    0.670853 0.340162 0.273048 0.238755
H36   H     H_    0.630651 0.279254 0.160034 0.218073
H37   H     H_    0.700191 0.333923 0.918218 0.179288
H38   H     H_    0.731165 0.260494 0.948157 0.187390
H39   H     H_    0.814590 0.297197 0.169424 0.165411
H40   H     H_    0.787587 0.370506 0.150774 0.195183
C67   C     C_3   0.459639 0.530264 0.412814 -0.334100
C68   C     C_3   0.456835 0.485467 0.247761 -0.291338
C69   C     C_3   0.451466 0.422682 0.326375 -0.721582
H41   H     H_    0.497018 0.410930 0.399828 0.235602
H42   H     H_    0.407870 0.418468 0.429236 0.239261
H43   H     H_    0.445653 0.391027 0.206935 0.227128
H44   H     H_    0.413601 0.494689 0.160517 0.233080
H45   H     H_    0.502030 0.488751 0.151108 0.189708
H46   H     H_    0.500095 0.518344 0.507284 0.163015
H47   H     H_    0.414670 0.526441 0.510201 0.203554
C70   C     C_3   0.540360 0.030264 0.587186 -0.334096
C71   C     C_3   0.543166 0.985467 0.752239 -0.291337
C72   C     C_3   0.548534 0.922682 0.673626 -0.721584
H48   H     H_    0.502982 0.910930 0.600172 0.235602
H49   H     H_    0.592130 0.918468 0.570765 0.239261
H50   H     H_    0.554346 0.891027 0.793064 0.227128
H51   H     H_    0.586400 0.994689 0.839480 0.233079
H52   H     H_    0.497971 0.988751 0.848894 0.189708
H53   H     H_    0.499904 0.018343 0.492718 0.163014
H54   H     H_    0.585329 0.026440 0.489796 0.203557
C73   C     C_2   0.344299 0.613310 0.363825 0.351458
H55   H     H_    0.307314 0.645007 0.415582 0.047336
O21   O     O_2   0.326211 0.563742 0.323090 -0.531645
C74   C     C_2   0.655701 0.113310 0.636176 0.351460
H56   H     H_    0.692687 0.145009 0.584432 0.047337
O22   O     O_2   0.673789 0.063741 0.676895 -0.531647

loop_
_geom_bond_atom_site_label_1
_geom_bond_atom_site_label_2
_ccdc_geom_bond_type
C64   H40   S    
C9    C25   A    
C52   C56   A    
C10   C26   A    
C65   C66   S    
O11   V3    S    
O6    C8    A    
C73   O21   D    
O13   V3    S    
C14   C36   A    
C72   H48   S    
C11   C31   A    
O4    C2    A    
V1    O19   S    
C63   H28   S    
C66   H35   S    
C70   C71   S    
C67   C68   S    
C17   C19   A    
C45   H17   S    
C57   C59   A    
O9    V1    S    
C9    H5    S    
C62   H31   S    
C22   C30   A    
C5    C55   S    
C10   H6    S    
C72   H49   S    
C40   C42   A    
O3    C1    A    
C6    C56   S    
C58   H22   S    
C42   C44   A    
C27   C29   A    
C30   H12   S    
C28   C30   A    
C61   C62   S    
C16   C74   S    
C62   C63   S    
O14   V2    S    
C21   C35   A    
C15   C17   A    
C60   H26   S    
C41   H23   S    
O7    C3    A    
C17   H9    S    
C68   H45   S    
C55   C57   A    
O5    C7    A    
C23   C31   A    
O7    V1    S    
C59   H25   S    
O8    V2    S    
C19   C21   A    
C51   C55   A    
C20   C22   A    
O3    V1    S    
O14   V4    S    
C50   H16   S    
C12   C32   A    
C43   N1    S    
C9    C33   A    
C70   H53   S    
C18   C20   A    
C2    O12   A    
H4    C28   S    
C74   O22   D    
C40   C64   S    
C37   C39   A    
O10   V2    S    
N2    N4    D    
C45   C47   A    
C14   C16   A    
C54   N4    S    
C24   C26   A    
C23   C25   A    
O17   V3    S    
C69   H43   S    
C16   C18   A    
C61   H32   S    
C62   H30   S    
C49   C51   A    
C56   C58   A    
C4    C37   S    
C72   H50   S    
C2    C11   S    
C44   C46   A    
C50   C54   A    
C63   H29   S    
C38   C48   A    
C43   C45   A    
C49   C53   A    
C1    O11   A    
C24   C32   A    
O15   V3    S    
C44   N2    S    
C8    C36   S    
C1    C12   S    
C68   H44   S    
C7    C35   S    
N1    N3    D    
C69   H42   S    
C31   H7    S    
C65   H38   S    
C13   C35   A    
C53   C59   A    
C10   C34   A    
C14   C70   S    
C46   H18   S    
C41   C43   A    
C20   C24   A    
C13   C67   S    
C39   C41   A    
C47   H19   S    
C71   H52   S    
C70   H54   S    
C67   H47   S    
O18   V4    S    
C46   C48   A    
C25   C27   A    
O8    C4    A    
C74   H56   S    
C48   H20   S    
O16   C6    A    
C21   C29   A    
C38   C40   A    
C66   H34   S    
C12   C34   A    
C22   C36   A    
C71   C72   S    
V2    O20   S    
C64   H39   S    
C57   H21   S    
C61   H33   S    
O16   V4    S    
C18   H10   S    
C68   C69   S    
C42   H24   S    
O5    V1    S    
O17   C7    A    
O6    V2    S    
C69   H41   S    
O10   C6    A    
O18   C8    A    
C32   H8    S    
O2    V4    S    
O15   C5    A    
C66   H36   S    
C54   C60   A    
C13   C15   A    
C63   H27   S    
V4    O20   S    
C49   H15   S    
O1    V3    S    
C64   C65   S    
C58   C60   A    
C65   H37   S    
C19   C23   A    
O9    C5    A    
C67   H46   S    
O13   V1    S    
C26   C28   A    
C50   C52   A    
C53   N3    S    
C15   C73   S    
O2    C4    A    
H3    C27   S    
C39   C61   S    
C71   H51   S    
O4    V2    S    
O1    C3    A    
C3    C38   S    
V3    O19   S    
C73   H55   S    
C11   C33   A    
H1    C33   S    
H2    C34   S    
O12   V4    S    
C37   C47   A    
C52   H14   S    
C29   H11   S    
C51   H13   S    
