data_mof_unit_668.cif
_audit_creation_date              2012-12-10T19:24:09-0500
_audit_creation_method            fapswitch 2.2
_symmetry_space_group_name_H-M    P1
_symmetry_Int_Tables_number       1
_space_group_crystal_system       triclinic
_cell_length_a                    10.548366
_cell_length_b                    10.539011
_cell_length_c                    9.799366
_cell_angle_alpha                 89.99009
_cell_angle_beta                  91.720207
_cell_angle_gamma                 89.916676
_cell_volume                      1088.89697639

loop_
_atom_site_label
_atom_site_type_symbol
_atom_type_description
_atom_site_fract_x
_atom_site_fract_y
_atom_site_fract_z
_atom_type_partial_charge
C1    C     C_R   0.502827 0.257729 0.500039 0.913776
C2    C     C_3   0.614459 0.509761 0.052517 -0.147271
C3    C     C_R   0.257893 0.498702 0.498009 0.951211
C4    C     C_R   0.742107 0.501302 0.501991 0.951175
C5    C     C_3   0.043664 0.397384 0.566165 -0.069170
C6    C     C_3   0.956336 0.602623 0.433837 -0.069158
C7    C     C_3   0.952072 0.394076 0.440168 -0.256781
C8    C     C_3   0.047929 0.605929 0.559833 -0.256787
C9    C     C_3   0.876808 0.502431 0.505168 -0.127163
C10   C     C_3   0.123192 0.497575 0.494833 -0.127166
C11   C     C_3   0.967051 0.504481 0.630510 -0.053587
C12   C     C_R   0.497176 0.742271 0.499960 0.913754
C13   C     C_3   0.032949 0.495525 0.369491 -0.053568
C14   C     C_3   0.557232 0.039139 0.614755 0.017804
C15   C     C_3   0.442777 0.960860 0.385245 0.017802
C16   C     C_3   0.619610 0.954667 0.507904 -0.234830
C17   C     C_3   0.380398 0.045332 0.492095 -0.234827
C18   C     C_3   0.496605 0.877347 0.500123 -0.083434
C19   C     C_3   0.503403 0.122652 0.499876 -0.083435
C20   C     C_2   0.089057 0.280465 0.640783 0.917836
C21   C     C_2   0.910943 0.719546 0.359224 0.917811
C22   C     C_2   0.933876 0.508635 0.778017 1.010135
C23   C     C_3   0.434780 0.959850 0.608678 -0.159877
C24   C     C_2   0.066123 0.491376 0.221984 1.010125
C25   C     C_2   0.625225 0.086234 0.740854 0.914542
C26   C     C_2   0.374780 0.913765 0.259148 0.914548
C27   C     C_2   0.395720 0.279367 0.101761 0.954990
C28   C     C_2   0.604278 0.720634 0.898238 0.954993
C29   C     C_3   0.565228 0.040149 0.391321 -0.159878
C30   C     C_3   0.452094 0.397571 0.045841 0.036796
C31   C     C_3   0.547906 0.602429 0.954159 0.036800
C32   C     C_3   0.565909 0.405923 0.953240 -0.090495
C33   C     C_3   0.434091 0.594077 0.046760 -0.090491
C34   C     C_3   0.385541 0.490239 0.947483 -0.147279
H1    H     H_    0.910061 0.307722 0.392247 0.192510
H2    H     H_    0.710346 0.519705 0.101156 0.172247
H3    H     H_    0.235970 0.180573 0.722171 0.351897
H4    H     H_    0.764043 0.819413 0.277783 0.351901
H5    H     H_    0.852976 0.420126 0.935089 0.346638
H6    H     H_    0.147020 0.579890 0.064914 0.346640
H7    H     H_    0.782138 0.167544 0.822980 0.382556
H8    H     H_    0.217865 0.832451 0.177028 0.382551
H9    H     H_    0.258842 0.200265 0.212765 0.342583
H10   H     H_    0.741152 0.799738 0.787230 0.342579
H11   H     H_    0.089939 0.692284 0.607754 0.192521
H12   H     H_    0.716870 0.914669 0.517314 0.187529
H13   H     H_    0.283137 0.085326 0.482680 0.187550
H14   H     H_    0.382161 0.923728 0.697088 0.200757
H15   H     H_    0.617846 0.076272 0.302911 0.200753
H16   H     H_    0.620630 0.326709 0.909512 0.192893
H17   H     H_    0.379370 0.673291 0.090488 0.192890
H18   H     H_    0.289654 0.480295 0.898844 0.172234
N1    N     N_3   0.499910 0.500030 0.863290 -0.112588
N2    N     N_3   0.500090 0.499970 0.136710 -0.112587
O1    O     O_R   0.500010 0.313960 0.616610 -0.592921
O2    O     O_R   0.218211 0.261464 0.668890 -0.815424
O3    O     O_2   0.988176 0.797528 0.322057 -0.550500
O4    O     O_R   0.781795 0.738515 0.331053 -0.815405
O5    O     O_2   0.968896 0.597758 0.849352 -0.617030
O6    O     O_R   0.865545 0.409009 0.833753 -0.769370
O7    O     O_2   0.031107 0.402253 0.150647 -0.617021
O8    O     O_R   0.134450 0.591005 0.166250 -0.769395
O9    O     O_2   0.576492 0.075581 0.851647 -0.527662
O10   O     O_R   0.744053 0.142844 0.730613 -0.756088
O11   O     O_2   0.423505 0.924425 0.148351 -0.527658
O12   O     O_R   0.499990 0.686040 0.383390 -0.592921
O13   O     O_R   0.255956 0.857145 0.269395 -0.756089
O14   O     O_2   0.445599 0.177181 0.079996 -0.557953
O15   O     O_R   0.286947 0.286420 0.179061 -0.767054
O16   O     O_2   0.554396 0.822819 0.920000 -0.557960
O17   O     O_R   0.713051 0.713583 0.820938 -0.767060
O18   O     O_R   0.500060 0.313950 0.383350 -0.630045
O19   O     O_R   0.499940 0.686050 0.616650 -0.630046
O20   O     O_R   0.313930 0.499970 0.616610 -0.605825
O21   O     O_R   0.686070 0.500030 0.383390 -0.605810
O22   O     O_R   0.313980 0.499960 0.383350 -0.580380
O23   O     O_R   0.686020 0.500040 0.616650 -0.580384
O24   O     O_2   0.011822 0.202512 0.678009 -0.550481
Zn1   Zn    Zn3+2 0.499970 0.500010 0.655740 1.018757
Zn2   Zn    Zn3+2 0.500030 0.499990 0.344260 1.018765

loop_
_geom_bond_atom_site_label_1
_geom_bond_atom_site_label_2
_ccdc_geom_bond_type
C15   C18   S    
C24   O7    D    
C20   O2    S    
C6    C9    S    
C5    C20   S    
C29   H15   S    
C30   N2    S    
C17   C23   S    
C26   O13   S    
C2    C32   S    
N1    Zn1   S    
C5    C11   S    
C22   O6    S    
H6    O8    S    
H10   O17   S    
C7    C9    S    
C25   O9    D    
C3    O20   A    
C8    H11   S    
C4    O21   A    
C27   O14   D    
H4    O4    S    
H3    O2    S    
C31   C33   S    
O21   Zn2   S    
C27   O15   S    
H9    O15   S    
C12   O19   A    
C27   C30   S    
C5    C10   S    
C15   C29   S    
N2    Zn2   S    
O23   Zn1   S    
C1    C19   S    
C1    O18   A    
C30   C34   S    
C18   C23   S    
O22   Zn2   S    
C2    N2    S    
C16   H12   S    
C22   O5    D    
C5    C7    S    
C15   C26   S    
C6    C8    S    
C16   C29   S    
C6    C21   S    
C12   O12   A    
C13   C24   S    
C2    C31   S    
C25   O10   S    
C14   C23   S    
C21   O3    D    
O1    Zn1   S    
C7    C13   S    
C33   C34   S    
O19   Zn1   S    
C31   N1    S    
C3    O22   A    
C9    C11   S    
C32   H16   S    
C8    C10   S    
O20   Zn1   S    
H8    O13   S    
C14   C16   S    
C28   O17   S    
C19   C29   S    
C32   N1    S    
C2    H2    S    
C33   N2    S    
C15   C17   S    
C24   O8    S    
C23   H14   S    
C26   O11   D    
C7    H1    S    
C14   C19   S    
C28   C31   S    
C28   O16   D    
C17   H13   S    
C10   C13   S    
C33   H17   S    
O12   Zn2   S    
C11   C22   S    
C34   H18   S    
C20   O24   D    
C1    O1    A    
C4    O23   A    
O18   Zn2   S    
C3    C10   S    
C6    C13   S    
C30   C32   S    
C8    C11   S    
H5    O6    S    
C17   C19   S    
C14   C25   S    
C21   O4    S    
C34   N1    S    
C16   C18   S    
C12   C18   S    
H7    O10   S    
C4    C9    S    
