data_mof_unit_701.cif
_audit_creation_date              2012-10-26T18:59:15-0400
_audit_creation_method            fapswitch 2.2
_symmetry_space_group_name_H-M    P1
_symmetry_Int_Tables_number       1
_space_group_crystal_system       triclinic
_cell_length_a                    10.923631
_cell_length_b                    19.292083
_cell_length_c                    18.310286
_cell_angle_alpha                 87.459125
_cell_angle_beta                  90.797068
_cell_angle_gamma                 97.697764
_cell_volume                      3820.04591892

loop_
_atom_site_label
_atom_site_type_symbol
_atom_type_description
_atom_site_fract_x
_atom_site_fract_y
_atom_site_fract_z
_atom_type_partial_charge
C1    C     C_R   0.505695 0.367125 0.502443 0.586497
C2    C     C_R   0.461194 0.176018 0.574427 -0.023396
C3    C     C_R   0.395448 0.842372 0.510920 0.020728
C4    C     C_R   0.457127 0.141675 0.509115 0.003762
C5    C     C_R   0.372993 0.792912 0.568499 -0.061746
C6    C     C_R   0.483497 0.180390 0.443725 -0.069996
C7    C     C_R   0.399282 0.724769 0.560664 -0.085249
C8    C     C_R   0.508827 0.253317 0.443967 -0.090499
C9    C     C_R   0.455499 0.705231 0.496846 0.028869
C10   C     C_R   0.506094 0.289477 0.508884 0.008047
C11   C     C_R   0.504443 0.953187 0.550708 -0.132447
C12   C     C_R   0.491305 0.632525 0.498305 0.599139
C13   C     C_R   0.330195 0.028957 0.483571 -0.106130
C14   C     C_R   0.528553 0.026112 0.545447 0.234113
C15   C     C_R   0.307785 0.955623 0.487567 0.261878
C16   C     C_R   0.263277 0.503800 0.498947 0.582608
C17   C     C_R   0.737641 0.497839 0.501226 0.576534
C18   C     C_R   0.439978 0.064559 0.511695 -0.041720
C19   C     C_R   0.396508 0.917555 0.521021 -0.037080
C20   C     C_R   0.417546 0.451564 0.724416 0.364650
C21   C     C_R   0.584980 0.545625 0.273954 0.360452
C22   C     C_R   0.420100 0.450183 0.801937 0.454952
C23   C     C_R   0.872013 0.497236 0.503670 0.021160
C24   C     C_R   0.579313 0.546862 0.196411 0.450627
C25   C     C_R   0.502347 0.496687 0.840017 -0.028696
C26   C     C_R   0.491846 0.502777 0.159328 -0.033416
C27   C     C_R   0.583185 0.544646 0.799782 -0.196390
C28   C     C_R   0.407632 0.458181 0.200657 -0.192604
C29   C     C_R   0.579986 0.548262 0.722618 0.311073
C30   C     C_R   0.412788 0.454928 0.277883 0.311689
C31   C     C_R   0.605641 0.491684 0.963763 -0.112855
C32   C     C_R   0.386744 0.506175 0.035551 -0.119410
C33   C     C_R   0.603330 0.491856 0.040438 0.470679
C34   C     C_R   0.130564 0.508070 0.497227 0.033446
C35   C     C_R   0.388943 0.505510 0.958776 0.465432
C36   C     C_R   0.493928 0.500047 0.077448 0.013425
C37   C     C_R   0.498775 0.498095 0.921864 0.015065
C38   C     C_R   0.213808 0.617393 0.272876 0.460633
C39   C     C_R   0.824927 0.411312 0.746093 0.469151
C40   C     C_R   0.180398 0.594748 0.344437 0.392906
C41   C     C_R   0.845264 0.424326 0.671002 0.423421
C42   C     C_R   0.112759 0.528069 0.358260 0.004754
C43   C     C_R   0.894647 0.491474 0.644256 0.000434
C44   C     C_R   0.078006 0.485390 0.299017 0.418779
C45   C     C_R   0.943639 0.500717 0.569004 0.064695
C46   C     C_R   0.926557 0.544628 0.694075 0.396711
C47   C     C_R   0.114370 0.507800 0.227985 -0.098213
C48   C     C_R   0.905303 0.531297 0.768793 -0.102035
C49   C     C_R   0.182409 0.573581 0.214974 -0.190990
C50   C     C_R   0.854156 0.464846 0.794674 -0.183763
C51   C     C_R   0.932047 0.498553 0.436809 -0.084798
C52   C     C_R   0.071321 0.506789 0.564215 -0.071787
C53   C     C_R   0.060106 0.508704 0.431897 0.056769
C54   C     C_R   0.469706 0.755503 0.436489 0.230475
C55   C     C_R   0.494421 0.248516 0.576509 0.252992
C56   C     C_R   0.439535 0.822843 0.445249 -0.041569
Cu1   Cu    Cu3+1 0.499960 0.500000 0.573360 1.183500
Cu2   Cu    Cu3+1 0.500040 0.500000 0.426640 1.183043
F1    F     F_    0.339465 0.403660 0.841346 -0.501434
F2    F     F_    0.983006 0.608538 0.670464 -0.567322
F3    F     F_    0.662088 0.590902 0.155743 -0.506704
F4    F     F_    0.707719 0.482308 0.078501 -0.535419
F5    F     F_    0.284292 0.513953 0.920485 -0.546875
F6    F     F_    0.271826 0.683155 0.258982 -0.492392
F7    F     F_    0.782359 0.346013 0.772639 -0.519803
F8    F     F_    0.207671 0.639223 0.399554 -0.586860
F9    F     F_    0.826068 0.370661 0.624947 -0.537043
F10   F     F_    0.006272 0.422748 0.309882 -0.559689
H1    H     H_    0.208517 0.591187 0.159733 0.179787
H2    H     H_    0.301504 0.512692 0.062350 0.146987
H3    H     H_    0.088017 0.474574 0.182726 0.208551
H4    H     H_    0.930855 0.572155 0.806929 0.212619
H5    H     H_    0.878328 0.493590 0.387328 0.221902
H6    H     H_    0.125040 0.509547 0.614252 0.195444
H7    H     H_    0.458422 0.862878 0.401985 0.176025
H8    H     H_    0.449063 0.144622 0.625046 0.186618
H9    H     H_    0.338304 0.807470 0.619980 0.170578
H10   H     H_    0.487027 0.154125 0.392879 0.167561
H11   H     H_    0.773343 0.984461 0.624095 0.364870
H12   H     H_    0.840231 0.454330 0.852672 0.179112
H13   H     H_    0.991610 0.940813 0.416643 0.391595
H14   H     H_    0.200194 0.347041 0.594153 0.372759
H15   H     H_    0.813243 0.638902 0.403449 0.371938
H16   H     H_    0.810960 0.704910 0.722065 0.408363
H17   H     H_    0.156242 0.312605 0.276891 0.410026
H18   H     H_    0.713937 0.803804 0.382945 0.343048
H19   H     H_    0.688831 0.219777 0.723588 0.413267
H20   H     H_    0.377540 0.687477 0.606030 0.189148
H21   H     H_    0.534813 0.281555 0.393343 0.207117
H22   H     H_    0.573501 0.923350 0.574429 0.157389
H23   H     H_    0.262453 0.058674 0.458149 0.195061
H24   H     H_    0.643672 0.582799 0.829564 0.194379
H25   H     H_    0.342463 0.421738 0.171610 0.196806
H26   H     H_    0.690894 0.485390 0.937024 0.148685
N1    N     N_R   0.499990 0.500020 0.683620 -0.306493
N2    N     N_R   0.500010 0.499980 0.316380 -0.311670
O1    O     O_R   0.499950 0.400180 0.561980 -0.415213
O2    O     O_2   0.658530 0.085806 0.656232 -0.256984
O3    O     O_3   0.778730 0.010364 0.576062 -0.460723
O4    O     O_2   0.199090 0.886514 0.375959 -0.202279
O5    O     O_2   0.118424 0.852063 0.498360 -0.222941
O6    O     O_3   0.065367 0.968884 0.437511 -0.479770
O7    O     O_2   0.285942 0.323895 0.732180 -0.121791
O8    O     O_2   0.174570 0.422610 0.707744 -0.285338
O9    O     O_3   0.283230 0.373641 0.601337 -0.507055
O10   O     O_2   0.828898 0.565145 0.288835 -0.300602
O11   O     O_2   0.732075 0.668190 0.260910 -0.084616
O12   O     O_R   0.500050 0.599820 0.438020 -0.417763
O13   O     O_3   0.725174 0.621761 0.393717 -0.462432
O14   O     O_2   0.725677 0.619432 0.613730 -0.224623
O15   O     O_2   0.577125 0.680821 0.675164 -0.291418
O16   O     O_3   0.774464 0.659237 0.744413 -0.519129
O17   O     O_2   0.392909 0.318559 0.308992 -0.296559
O18   O     O_2   0.275091 0.380807 0.390869 -0.235529
O19   O     O_3   0.194483 0.359985 0.260052 -0.494758
O20   O     O_2   0.495356 0.675128 0.322264 -0.165583
O21   O     O_2   0.510682 0.800185 0.296471 -0.187341
O22   O     O_3   0.693312 0.755400 0.366410 -0.441359
O23   O     O_R   0.500010 0.400190 0.438070 -0.463250
O24   O     O_2   0.577919 0.350937 0.675062 -0.214321
O25   O     O_2   0.468070 0.239942 0.721779 -0.226454
O26   O     O_3   0.689750 0.241614 0.673582 -0.352237
O27   O     O_R   0.499990 0.599810 0.561930 -0.466579
O28   O     O_R   0.319610 0.500000 0.561950 -0.488038
O29   O     O_R   0.680390 0.500000 0.438050 -0.484339
O30   O     O_R   0.319670 0.500010 0.438050 -0.479959
O31   O     O_R   0.680330 0.499990 0.561950 -0.472591
O32   O     O_2   0.718670 0.131056 0.533150 -0.182575
S1    S     S_3+6 0.673053 0.066201 0.578599 0.069053
S2    S     S_3+6 0.170317 0.912904 0.448936 0.073249
S3    S     S_3+6 0.290028 0.392645 0.689808 0.147674
S4    S     S_3+6 0.719057 0.600503 0.305840 0.168142
S5    S     S_3+6 0.664423 0.627298 0.685037 0.056103
S6    S     S_3+6 0.319303 0.378296 0.314126 0.053879
S7    S     S_3+6 0.539820 0.745044 0.352281 0.143646
S8    S     S_3+6 0.554638 0.274030 0.663588 0.146170

loop_
_geom_bond_atom_site_label_1
_geom_bond_atom_site_label_2
_ccdc_geom_bond_type
C29   S5    S    
C24   F3    S    
C23   C45   A    
C27   C29   A    
C39   F7    S    
C14   C18   A    
O16   S5    S    
O32   S1    D    
O9    S3    S    
C38   C49   A    
O10   S4    D    
C15   S2    S    
C11   C19   A    
C17   C23   S    
C13   C18   A    
C32   C36   A    
H11   O3    S    
C35   C37   A    
C24   C26   A    
C52   H6    S    
C2    C55   A    
C42   C53   S    
C11   C14   A    
O4    S2    D    
C6    H10   S    
C55   S8    S    
C33   C36   A    
C1    O23   A    
H14   O9    S    
Cu2   N2    S    
C30   N2    A    
C16   C34   S    
C15   C19   A    
C35   F5    S    
C33   F4    S    
C30   S6    S    
O8    S3    D    
C31   C33   A    
C3    C19   S    
C44   C47   A    
C4    C18   S    
O5    S2    D    
C40   C42   A    
C56   H7    S    
C49   H1    S    
C13   H23   S    
C41   C43   A    
C42   C44   A    
C48   H4    S    
C43   C46   A    
C38   F6    S    
H13   O6    S    
O20   S7    D    
O3    S1    S    
C32   C35   A    
O6    S2    S    
H17   O19   S    
C41   F9    S    
C47   C49   A    
C1    O1    A    
C22   F1    S    
C5    C7    A    
C17   O31   A    
C6    C8    A    
C45   C52   A    
C22   C25   A    
C31   C37   A    
C28   H25   S    
O24   S8    D    
C2    C4    A    
C21   S4    S    
Cu1   O27   S    
C3    C56   A    
C23   C51   A    
C7    H20   S    
Cu1   O1    S    
O13   S4    S    
H15   O13   S    
O18   S6    D    
C27   H24   S    
H18   O22   S    
H16   O16   S    
C10   C55   A    
C43   C45   S    
C47   H3    S    
Cu2   O29   S    
C26   C36   S    
O19   S6    S    
C20   N1    A    
C20   C22   A    
Cu2   O30   S    
O17   S6    D    
C13   C15   A    
C44   F10   S    
C4    C6    A    
O26   S8    S    
C20   S3    S    
C5    H9    S    
O21   S7    D    
C2    H8    S    
C12   O12   A    
C7    C9    A    
C46   F2    S    
C34   C52   A    
O15   S5    D    
C1    C10   S    
C51   H5    S    
O11   S4    D    
C3    C5    A    
C50   H12   S    
Cu1   O31   S    
H19   O26   S    
C32   H2    S    
C54   C56   A    
C9    C54   A    
C21   N2    A    
C25   C27   A    
C31   H26   S    
C26   C28   A    
C28   C30   A    
C16   O28   A    
Cu1   O28   S    
C38   C40   A    
C11   H22   S    
C17   O29   A    
Cu1   Cu2   S    
C12   O27   A    
O7    S3    D    
C54   S7    S    
O2    S1    D    
C48   C50   A    
Cu2   O23   S    
Cu2   O12   S    
O25   S8    D    
C9    C12   S    
C29   N1    A    
C46   C48   A    
C39   C50   A    
C39   C41   A    
C34   C53   A    
C8    C10   A    
Cu1   N1    S    
C21   C24   A    
O14   S5    D    
C40   F8    S    
C8    H21   S    
C51   C53   A    
C16   O30   A    
O22   S7    S    
C25   C37   S    
C14   S1    S    
