data_mof_unit_2124.cif
_audit_creation_date              2012-12-11T16:08:45-0500
_audit_creation_method            fapswitch 2.2
_symmetry_space_group_name_H-M    P1
_symmetry_Int_Tables_number       1
_space_group_crystal_system       triclinic
_cell_length_a                    12.953235
_cell_length_b                    13.225153
_cell_length_c                    27.683834
_cell_angle_alpha                 94.749895
_cell_angle_beta                  90.294203
_cell_angle_gamma                 119.072158
_cell_volume                      4125.12122791

loop_
_atom_site_label
_atom_site_type_symbol
_atom_type_description
_atom_site_fract_x
_atom_site_fract_y
_atom_site_fract_z
_atom_type_partial_charge
C1    C     C_R   0.628471 0.895099 0.427636 0.571622
C2    C     C_R   0.675778 0.434585 0.239075 -0.099893
C3    C     C_R   0.667724 0.418742 0.288499 -0.110921
C4    C     C_R   0.677620 0.326715 0.305331 0.026616
C5    C     C_R   0.693134 0.358184 0.206230 0.028399
C6    C     C_1   0.699323 0.375061 0.155428 -0.046401
C7    C     C_1   0.657587 0.302273 0.355157 -0.063491
C8    C     C_1   0.705763 0.398184 0.113966 0.005304
C9    C     C_R   0.107908 0.730086 0.364030 0.018467
C10   C     C_R   0.073018 0.709831 0.313901 0.033844
C11   C     C_R   0.020381 0.675970 0.212759 0.011671
C12   C     C_R   0.601226 0.222572 0.440700 0.544880
C13   C     C_R   0.994548 0.581090 0.238856 -0.126993
C14   C     C_R   0.019339 0.597401 0.288838 -0.125474
C15   C     C_R   0.001407 0.660897 0.162328 -0.134723
C16   C     C_R   0.028266 0.756569 0.136376 -0.008759
C17   C     C_R   0.199397 0.939257 0.358231 -0.146375
C18   C     C_R   0.154223 0.919712 0.310732 0.005628
C19   C     C_R   0.097513 0.805687 0.287476 0.047518
C20   C     C_R   0.173359 0.013803 0.285018 -0.125003
C21   C     C_R   0.141490 0.995980 0.235685 -0.121068
C22   C     C_R   0.092560 0.884249 0.211344 0.012900
C23   C     C_R   0.264211 0.874247 0.427042 0.533361
C24   C     C_R   0.068805 0.788357 0.237298 0.061126
C25   C     C_R   0.070292 0.867425 0.161210 -0.115730
C26   C     C_R   0.185288 0.846378 0.383645 0.002445
C27   C     C_R   0.749853 0.943766 0.356933 -0.188476
C28   C     C_R   0.754094 0.933422 0.307020 -0.001735
C29   C     C_R   0.751591 0.920093 0.205997 0.013807
C30   C     C_R   0.835650 0.021184 0.233610 -0.094654
C31   C     C_R   0.838199 0.026942 0.283870 -0.144855
C32   C     C_R   0.753236 0.911625 0.155738 0.306780
C33   C     C_R   0.682002 0.804093 0.128626 0.016980
C34   C     C_R   0.627747 0.898082 0.564565 0.546539
C35   C     C_R   0.573621 0.753648 0.353666 0.355723
C36   C     C_R   0.580816 0.739148 0.303323 0.030084
C37   C     C_R   0.668262 0.831741 0.279830 0.017191
C38   C     C_R   0.498487 0.637079 0.275654 -0.128387
C39   C     C_R   0.501755 0.627598 0.225188 -0.114642
C40   C     C_R   0.585976 0.720872 0.201565 0.007012
C41   C     C_R   0.668591 0.824079 0.229094 -0.044716
C42   C     C_R   0.593116 0.711088 0.151187 0.306884
C43   C     C_R   0.654320 0.859239 0.379937 0.007526
C44   C     C_R   0.742537 0.301136 0.651014 -0.106406
C45   C     C_R   0.603426 0.227933 0.578256 0.544125
C46   C     C_R   0.757351 0.324227 0.701613 0.008864
C47   C     C_R   0.773853 0.351398 0.804011 -0.034081
C48   C     C_R   0.865413 0.345545 0.777817 0.021840
C49   C     C_R   0.854954 0.330422 0.726690 0.359975
C50   C     C_R   0.779892 0.369955 0.855016 -0.134859
C51   C     C_R   0.689164 0.378177 0.879370 -0.002256
C52   C     C_R   0.561855 0.313938 0.652358 -0.131695
C53   C     C_R   0.571818 0.330874 0.702538 0.007473
C54   C     C_R   0.668815 0.333989 0.727533 -0.002117
C55   C     C_R   0.481519 0.336452 0.727982 -0.133325
C56   C     C_R   0.271371 0.879269 0.563337 0.538836
C57   C     C_R   0.485192 0.341932 0.778189 -0.104088
C58   C     C_R   0.581079 0.345653 0.803399 0.034227
C59   C     C_R   0.674869 0.343596 0.778324 0.023598
C60   C     C_R   0.586709 0.357494 0.853520 -0.093684
C61   C     C_R   0.641349 0.289453 0.626811 -0.026395
C62   C     C_1   0.221336 0.862426 0.609966 -0.001198
C63   C     C_R   0.083749 0.741580 0.718335 -0.117014
C64   C     C_R   0.069718 0.732123 0.768069 -0.169183
C65   C     C_R   0.225691 0.932073 0.785485 0.402153
C66   C     C_R   0.239611 0.941412 0.735679 -0.068358
C67   C     C_1   0.635213 0.272552 0.395522 -0.015506
C68   C     C_R   0.169014 0.846114 0.702041 -0.020702
C69   C     C_R   0.141244 0.826880 0.801778 0.044933
C70   C     C_1   0.124328 0.814925 0.852746 0.010873
C71   C     C_1   0.192199 0.853287 0.651332 -0.044390
C72   C     C_1   0.100833 0.797813 0.894366 0.007308
C73   C     C_1   0.648291 0.860233 0.608785 -0.001442
C74   C     C_R   0.704337 0.908231 0.734229 -0.096475
C75   C     C_R   0.714673 0.891536 0.782700 -0.097633
C76   C     C_R   0.675126 0.694857 0.758473 -0.106372
C77   C     C_R   0.664400 0.711496 0.709777 -0.102305
C78   C     C_R   0.697541 0.251814 0.272638 -0.109855
C79   C     C_R   0.678923 0.818363 0.697683 0.039015
C80   C     C_R   0.699668 0.784868 0.794960 0.038851
C81   C     C_1   0.712282 0.770029 0.845025 -0.054193
C82   C     C_1   0.663203 0.836731 0.648393 -0.046418
C83   C     C_1   0.726385 0.761505 0.887184 -0.007764
C84   C     C_R   0.005883 0.738506 0.083648 0.557243
C85   C     C_R   0.717280 0.441450 0.067393 0.543653
C86   C     C_R   0.720021 0.782767 0.080945 0.594734
C87   C     C_R   0.056886 0.766539 0.941298 0.549926
C88   C     C_R   0.710253 0.433875 0.928998 0.535267
C89   C     C_R   0.705458 0.267575 0.223175 -0.110652
C90   C     C_R   0.749015 0.754143 0.937036 0.552665
Cr1   Cr    Cr6+3 0.416430 0.829200 0.492370 1.081023
Cr2   Cr    Cr6+3 0.674630 0.087020 0.504170 1.031362
Cr3   Cr    Cr6+3 0.408920 0.083740 0.503490 1.030200
Cr4   Cr    Cr6+3 0.914010 0.832750 0.013970 1.072065
Cr5   Cr    Cr6+3 0.922310 0.578600 0.003000 1.028932
Cr6   Cr    Cr6+3 0.656280 0.574630 0.003870 1.087877
H1    H     H_    0.704555 0.179852 0.285253 0.122837
H2    H     H_    0.159076 0.070099 0.216231 0.124661
H3    H     H_    0.215954 0.101604 0.302783 0.116901
H4    H     H_    0.253115 0.028125 0.374189 0.138866
H5    H     H_    0.814466 0.024281 0.377094 0.148469
H6    H     H_    0.900888 0.095229 0.216515 0.174777
H7    H     H_    0.903841 0.105810 0.304631 0.109325
H8    H     H_    0.437932 0.547328 0.204753 0.184111
H9    H     H_    0.431059 0.564729 0.292876 0.174876
H10   H     H_    0.719827 0.208599 0.198205 0.139558
H11   H     H_    0.856996 0.384464 0.876152 0.137133
H12   H     H_    0.804891 0.284105 0.630877 0.193908
H13   H     H_    0.515298 0.361844 0.872156 0.149414
H14   H     H_    0.413814 0.344902 0.797364 0.129491
H15   H     H_    0.406472 0.333333 0.709003 0.121583
H16   H     H_    0.484765 0.307648 0.633736 0.141479
H17   H     H_    0.029632 0.667006 0.692718 0.142319
H18   H     H_    0.667237 0.505666 0.226377 0.128980
H19   H     H_    0.003667 0.650591 0.780271 0.121521
H20   H     H_    0.306747 0.022266 0.723384 0.139273
H21   H     H_    0.715212 0.991010 0.725268 0.131001
H22   H     H_    0.734114 0.961696 0.810632 0.118815
H23   H     H_    0.664080 0.612201 0.767656 0.117915
H24   H     H_    0.644162 0.641272 0.681786 0.115883
H25   H     H_    0.651699 0.476767 0.313350 0.124873
H26   H     H_    0.965766 0.574852 0.143181 0.129841
H27   H     H_    0.957003 0.494190 0.220457 0.126675
H28   H     H_    0.000443 0.521374 0.306926 0.120906
H29   H     H_    0.089086 0.941501 0.141488 0.156579
O1    O     O_R   0.296680 0.802170 0.437540 -0.497808
O2    O     O_R   0.662610 0.183990 0.557860 -0.501117
O3    O     O_R   0.500730 0.201280 0.562180 -0.514580
O4    O     O_R   0.312500 0.978850 0.548170 -0.495366
O5    O     O_3   0.499990 0.999990 0.500010 -0.254650
O6    O     O_R   0.820790 0.857990 0.068830 -0.451945
O7    O     O_R   0.016700 0.827330 0.062850 -0.495366
O8    O     O_R   0.041970 0.673520 0.060040 -0.487657
O9    O     O_R   0.817980 0.483660 0.048840 -0.520059
O10   O     O_R   0.637200 0.461990 0.052510 -0.460195
O11   O     O_R   0.664790 0.681920 0.057970 -0.437948
O12   O     O_R   0.525380 0.838530 0.443500 -0.425288
O13   O     O_R   0.815840 0.852920 0.961840 -0.492212
O14   O     O_R   0.012100 0.822630 0.963670 -0.500594
O15   O     O_R   0.037010 0.668460 0.953040 -0.503852
O16   O     O_R   0.813390 0.478970 0.949660 -0.505757
O17   O     O_R   0.632250 0.456930 0.945520 -0.521694
O18   O     O_R   0.660200 0.677230 0.958780 -0.487043
O19   O     O_3   0.830870 0.661990 0.006950 -0.317581
O20   O     O_R   0.702130 0.995190 0.446810 -0.538870
O21   O     O_R   0.661770 0.181390 0.458760 -0.497981
O22   O     O_R   0.499820 0.198480 0.455280 -0.504019
O23   O     O_R   0.311660 0.976250 0.449080 -0.506745
O24   O     O_R   0.297580 0.804960 0.544440 -0.509956
O25   O     O_R   0.526220 0.841130 0.542590 -0.493799
O26   O     O_R   0.703030 0.997990 0.553710 -0.501260
F1    F     F_    0.831549 0.005608 0.133677 -0.624795
F2    F     F_    0.519168 0.608759 0.124864 -0.616394
F3    F     F_    0.484300 0.669064 0.376311 -0.635614
C91   C     C_3   0.973434 0.352559 0.803030 -0.247699
C92   C     C_3   0.943878 0.237380 0.822598 -0.421642
H30   H     H_    0.873649 0.213216 0.849108 0.152706
H31   H     H_    0.913412 0.167216 0.792249 0.174968
H32   H     H_    0.024129 0.245148 0.840999 0.153887
H33   H     H_    0.045761 0.373508 0.777676 0.213823
H34   H     H_    0.011198 0.424856 0.832498 0.124250
F4    F     F_    0.939221 0.319731 0.701209 -0.659585
F5    F     F_    0.295011 0.024854 0.817610 -0.631302
C93   C     C_3   0.058922 0.630612 0.396497 -0.265881
C94   C     C_3   0.925266 0.579048 0.400567 -0.450078
H35   H     H_    0.904949 0.646985 0.416396 0.160235
H36   H     H_    0.876859 0.542957 0.364786 0.162507
H37   H     H_    0.892676 0.507798 0.424708 0.145543
H38   H     H_    0.080847 0.562331 0.382897 0.154088
H39   H     H_    0.096628 0.659504 0.434237 0.173693

loop_
_geom_bond_atom_site_label_1
_geom_bond_atom_site_label_2
_ccdc_geom_bond_type
C66   C68   A    
C94   H35   S    
Cr1   O1    S    
C2    H18   S    
C88   O16   A    
C93   H39   S    
C35   C36   A    
C35   F3    S    
C16   C84   S    
C87   O15   A    
C77   H24   S    
C79   C82   S    
C34   O25   A    
C39   H8    S    
Cr6   O11   S    
Cr1   O5    S    
C53   C54   A    
C91   H34   S    
C46   C49   A    
Cr5   O15   S    
C66   H20   S    
C33   C42   A    
C12   O22   A    
C36   C37   A    
C15   H26   S    
C8    C85   S    
C29   C32   A    
C52   C61   A    
C5    C6    S    
C13   H27   S    
C65   C69   A    
C86   O6    A    
C52   H16   S    
C45   O3    A    
C58   C60   A    
C15   C16   A    
C11   C24   A    
Cr5   O8    S    
Cr3   O23   S    
C18   C19   A    
C23   C26   S    
C12   O21   A    
C74   H21   S    
C25   H29   S    
C60   H13   S    
C81   C83   T    
Cr1   O12   S    
C11   C15   A    
C92   H31   S    
C1    C43   S    
C47   C48   A    
C22   C25   A    
C89   H10   S    
Cr6   O10   S    
C35   C43   A    
C75   C80   A    
C18   C20   A    
C90   O18   A    
C85   O9    A    
C29   C41   A    
C45   C61   S    
C44   H12   S    
C91   H33   S    
Cr5   O19   S    
C94   H36   S    
C64   H19   S    
C21   C22   A    
Cr4   O14   S    
C65   F5    S    
C93   H38   S    
C75   H22   S    
Cr2   O26   S    
C4    C7    S    
Cr3   O4    S    
C88   O17   A    
C90   O13   A    
C44   C46   A    
C9    C26   A    
C50   C51   A    
C47   C50   A    
C54   C59   A    
C53   C55   A    
C78   C89   A    
C38   C39   A    
C12   C67   S    
C84   O8    A    
C76   H23   S    
C14   H28   S    
C74   C75   A    
Cr2   O21   S    
C76   C80   A    
C42   F2    S    
C76   C77   A    
C10   C14   A    
C39   C40   A    
Cr1   O24   S    
C6    C8    T    
C58   C59   A    
C47   C59   A    
C84   O7    A    
Cr5   O9    S    
Cr4   O7    S    
C3    C4    A    
C31   H7    S    
C9    C93   S    
Cr2   O5    S    
C33   C86   S    
C28   C31   A    
C4    C78   A    
C29   C30   A    
Cr6   O19   S    
C57   H14   S    
C32   F1    S    
C10   C19   A    
C30   H6    S    
C78   H1    S    
C17   C18   A    
C77   C79   A    
C64   C69   A    
C49   F4    S    
C85   O10   A    
C23   O1    A    
C86   O11   A    
C40   C41   A    
C46   C54   A    
Cr5   O16   S    
C94   H37   S    
C74   C79   A    
C55   C57   A    
C50   H11   S    
Cr4   O13   S    
C22   C24   A    
C2    C5    A    
C1    O20   A    
C17   C26   A    
Cr3   O5    S    
Cr2   O2    S    
C73   C82   T    
C91   C92   S    
C72   C87   S    
C1    O12   A    
C52   C53   A    
C9    C10   A    
C16   C25   A    
C83   C90   S    
C63   C68   A    
C93   C94   S    
C55   H15   S    
Cr2   O20   S    
C19   C24   A    
C48   C91   S    
C92   H32   S    
C56   O4    A    
C87   O14   A    
C80   C81   S    
C51   C88   S    
Cr1   O25   S    
C34   O26   A    
C44   C61   A    
C23   O23   A    
Cr4   O6    S    
Cr4   O19   S    
C32   C33   A    
C38   H9    S    
C36   C38   A    
C2    C3    A    
Cr3   O3    S    
Cr6   O18   S    
C21   H2    S    
C11   C13   A    
C57   C58   A    
C30   C31   A    
C20   H3    S    
C28   C37   A    
C45   O2    A    
C68   C71   S    
C48   C49   A    
C40   C42   A    
C27   H5    S    
C62   C71   T    
Cr3   O22   S    
C56   C62   S    
C37   C41   A    
C69   C70   S    
C17   H4    S    
C34   C73   S    
Cr6   O17   S    
C63   C64   A    
C63   H17   S    
C27   C43   A    
C92   H30   S    
C20   C21   A    
C65   C66   A    
C7    C67   T    
C27   C28   A    
C70   C72   T    
C51   C60   A    
C56   O24   A    
C13   C14   A    
C5    C89   A    
C3    H25   S    
