data_mof_unit_3760.cif
_audit_creation_date              2012-10-26T21:10:29-0400
_audit_creation_method            fapswitch 2.2
_symmetry_space_group_name_H-M    P1
_symmetry_Int_Tables_number       1
_space_group_crystal_system       triclinic
_cell_length_a                    10.850082
_cell_length_b                    10.916776
_cell_length_c                    9.712683
_cell_angle_alpha                 88.729028
_cell_angle_beta                  90.199437
_cell_angle_gamma                 90.339219
_cell_volume                      1150.13739664

loop_
_atom_site_label
_atom_site_type_symbol
_atom_type_description
_atom_site_fract_x
_atom_site_fract_y
_atom_site_fract_z
_atom_type_partial_charge
C1    C     C_R   0.497141 0.265276 0.501382 0.588227
C2    C     C_R   0.804929 0.358688 0.960770 -0.038703
C3    C     C_R   0.740381 0.249828 0.937334 0.285100
C4    C     C_R   0.262280 0.498102 0.499153 0.588489
C5    C     C_R   0.738654 0.200301 0.805693 -0.041270
C6    C     C_R   0.802937 0.258528 0.697928 -0.112342
C7    C     C_R   0.869435 0.366592 0.721464 0.050799
C8    C     C_2   0.476337 0.934512 0.397664 -0.126692
C9    C     C_2   0.532852 0.864536 0.494294 0.047772
C10   C     C_2   0.485243 0.068088 0.391168 -0.066641
C11   C     C_2   0.488709 0.132973 0.506277 -0.068504
C12   C     C_R   0.221840 0.745436 0.044077 -0.154140
C13   C     C_2   0.447945 0.415098 0.927336 0.346093
C14   C     C_2   0.434864 0.424758 0.080303 0.059734
C15   C     C_R   0.505900 0.734370 0.498645 0.539170
C16   C     C_R   0.737405 0.499210 0.500712 0.548710
C17   C     C_R   0.205925 0.808881 0.165746 -0.111226
C18   C     C_R   0.156083 0.750461 0.283930 0.036912
C19   C     C_R   0.120808 0.624888 0.276504 0.026450
C20   C     C_R   0.136755 0.562310 0.151953 0.236321
C21   C     C_R   0.187365 0.622770 0.037140 -0.088470
C22   C     C_2   0.637951 0.908042 0.579431 0.547558
C23   C     C_R   0.933645 0.557220 0.397028 -0.085289
C24   C     C_2   0.142147 0.823818 0.410910 0.563049
C25   C     C_2   0.129612 0.322683 0.675442 0.620329
C26   C     C_R   0.871001 0.495985 0.503051 -0.000022
C27   C     C_R   0.935835 0.430470 0.607049 -0.047494
C28   C     C_R   0.064583 0.421524 0.597480 0.019886
C29   C     C_R   0.127772 0.492459 0.496383 0.035671
C30   C     C_R   0.061195 0.558364 0.393733 0.036111
C31   C     C_R   0.869211 0.417069 0.853226 -0.050142
Cl1   Cl    Cl    0.662105 0.175331 0.073070 -0.558781
Cl2   Cl    Cl    0.388270 0.278239 0.864165 -0.509067
Cl3   Cl    Cl    0.094969 0.406895 0.137019 -0.563893
Cu1   Cu    Cu3+1 0.500020 0.500020 0.638630 1.064081
Cu2   Cu    Cu3+1 0.499980 0.499980 0.361370 1.011050
H1    H     H_    0.260869 0.791801 0.954561 0.158506
H2    H     H_    0.564282 0.551834 0.104115 0.200232
H3    H     H_    0.199885 0.574532 0.941984 0.170442
H4    H     H_    0.882845 0.606697 0.317244 0.140409
H5    H     H_    0.918888 0.501400 0.872353 0.147406
H6    H     H_    0.805542 0.397943 0.062183 0.165844
H7    H     H_    0.797480 0.003010 0.585683 0.342173
H8    H     H_    0.151542 0.990291 0.497275 0.361376
H9    H     H_    0.234930 0.171285 0.664173 0.360069
H10   H     H_    0.687275 0.117078 0.786876 0.178879
H11   H     H_    0.800138 0.220861 0.595879 0.142935
H12   H     H_    0.415356 0.892597 0.323239 0.144318
H13   H     H_    0.479644 0.113113 0.290610 0.212024
H14   H     H_    0.482960 0.088135 0.607033 0.133751
H15   H     H_    0.525844 0.579059 0.891260 0.187121
H16   H     H_    0.373463 0.360881 0.133394 0.219497
H17   H     H_    0.233235 0.904398 0.166937 0.186156
N1    N     N_2   0.498640 0.498660 0.846910 -0.344694
N2    N     N_2   0.498610 0.498630 0.153040 -0.380854
O1    O     O_R   0.500020 0.321960 0.617040 -0.442102
O2    O     O_R   0.725022 0.988715 0.521788 -0.680107
O3    O     O_2   0.113953 0.774873 0.520834 -0.526195
O4    O     O_R   0.162672 0.950503 0.404839 -0.680132
O5    O     O_2   0.115385 0.309443 0.799661 -0.430819
O6    O     O_R   0.203302 0.241188 0.603747 -0.676168
O7    O     O_R   0.499980 0.321920 0.382900 -0.479163
O8    O     O_R   0.319660 0.500030 0.617070 -0.469162
O9    O     O_R   0.319620 0.499990 0.382930 -0.490487
O10   O     O_R   0.500020 0.678080 0.617100 -0.472050
O11   O     O_R   0.499980 0.678040 0.382960 -0.515008
O12   O     O_R   0.680380 0.500010 0.617070 -0.496668
O13   O     O_R   0.680340 0.499970 0.382930 -0.498744
O14   O     O_2   0.651913 0.868353 0.697161 -0.497622

loop_
_geom_bond_atom_site_label_1
_geom_bond_atom_site_label_2
_ccdc_geom_bond_type
C12   C17   A    
C19   C20   A    
C8    H12   S    
C13   Cl2   S    
C6    C7    A    
C16   O13   A    
C25   O5    D    
C5    H10   S    
C4    O9    A    
C22   O14   D    
C4    C29   S    
C1    C11   S    
Cu1   O12   S    
H15   N1    S    
C20   Cl3   S    
C1    O7    A    
C22   O2    S    
Cu2   O13   S    
C17   C18   A    
C9    C15   S    
H7    O2    S    
C16   O12   A    
C25   O6    S    
C13   C14   S    
C15   O11   A    
Cu1   N1    S    
C19   C30   S    
C4    O8    A    
C26   C27   A    
C29   C30   A    
C2    H6    S    
C24   O4    S    
C18   C24   S    
C5    C6    A    
C24   O3    D    
C28   C29   A    
C1    O1    A    
C14   N2    D    
C2    C3    A    
C16   C26   S    
C3    Cl1   S    
Cu2   O11   S    
C9    C22   S    
C7    C31   A    
C6    H11   S    
Cu1   O10   S    
H8    O4    S    
C23   H4    S    
C15   O10   A    
C23   C30   A    
C17   H17   S    
C27   C28   A    
C7    C27   S    
C20   C21   A    
C8    C9    D    
C8    C10   S    
C13   N1    D    
C10   C11   D    
C23   C26   A    
H9    O6    S    
C12   H1    S    
Cu2   N2    S    
C11   H14   S    
C18   C19   A    
Cu1   O8    S    
C31   H5    S    
Cu2   O7    S    
C3    C5    A    
Cu1   O1    S    
Cu2   O9    S    
C10   H13   S    
C12   C21   A    
C14   H16   S    
H2    N2    S    
Cu1   Cu2   S    
C2    C31   A    
C25   C28   S    
C21   H3    S    
