data_mof_unit_4853.cif
_audit_creation_date              2012-12-11T15:09:47-0500
_audit_creation_method            fapswitch 2.2
_symmetry_space_group_name_H-M    P1
_symmetry_Int_Tables_number       1
_space_group_crystal_system       triclinic
_cell_length_a                    20.906396
_cell_length_b                    7.127556
_cell_length_c                    14.022867
_cell_angle_alpha                 89.925728
_cell_angle_beta                  98.093243
_cell_angle_gamma                 90.066216
_cell_volume                      2068.75428028

loop_
_atom_site_label
_atom_site_type_symbol
_atom_type_description
_atom_site_fract_x
_atom_site_fract_y
_atom_site_fract_z
_atom_type_partial_charge
O1    O     O_R   0.447130 0.507140 0.597350 -0.544564
O2    O     O_R   0.552870 0.007140 0.402650 -0.543841
O3    O     O_R   0.578910 0.181280 0.586990 -0.546478
O4    O     O_R   0.421090 0.681280 0.413010 -0.546221
C1    C     C_R   0.604493 0.344506 0.607373 0.752316
C2    C     C_R   0.395510 0.844470 0.392627 0.751315
O5    O     O_R   0.449230 0.177860 0.608640 -0.534636
O6    O     O_R   0.550770 0.677860 0.391360 -0.533207
O7    O     O_R   0.422260 0.000770 0.424450 -0.529039
O8    O     O_R   0.577740 0.500770 0.575550 -0.529618
C3    C     C_R   0.432908 0.346322 0.634738 0.878349
C4    C     C_R   0.567076 0.846670 0.365237 0.875915
O9    O     O_3   0.491310 0.336980 0.439550 -0.382735
O10   O     O_3   0.508690 0.836980 0.560450 -0.384314
V1    V     V_3+5 0.501610 0.064760 0.511210 1.552735
V2    V     V_3+5 0.498390 0.564760 0.488790 1.553565
C5    C     C_R   0.621136 0.933791 0.124759 0.101105
C6    C     C_R   0.379336 0.414567 0.876949 0.102789
H1    H     H_    0.707898 0.951299 0.001121 0.167164
H2    H     H_    0.292687 0.421856 0.000976 0.168056
C7    C     C_R   0.607994 0.858803 0.289242 -0.280578
C8    C     C_R   0.391892 0.356866 0.710606 -0.282676
C9    C     C_R   0.922926 0.840113 0.307852 0.220332
C10   C     C_R   0.077211 0.355324 0.691352 0.185630
C11   C     C_R   0.885178 0.842183 0.383221 0.180798
C12   C     C_R   0.114581 0.364017 0.616308 0.241979
C13   C     C_R   0.817851 0.855225 0.362542 -0.186263
C14   C     C_R   0.182120 0.371344 0.637278 -0.196761
C15   C     C_R   0.785732 0.860187 0.266777 0.106229
C16   C     C_R   0.214190 0.363637 0.733120 0.099043
C17   C     C_R   0.824314 0.871468 0.191221 0.004409
C18   C     C_R   0.175684 0.367849 0.808978 0.027338
C19   C     C_R   0.716734 0.865110 0.243774 -0.060001
C20   C     C_R   0.283203 0.363420 0.756200 -0.059660
C21   C     C_R   0.688583 0.907895 0.147539 -0.013982
C22   C     C_R   0.311679 0.394251 0.853501 -0.014515
C23   C     C_R   0.728091 0.923204 0.075183 -0.084622
C24   C     C_R   0.272285 0.402918 0.926230 -0.091470
C25   C     C_R   0.794346 0.900092 0.096053 -0.188060
C26   C     C_R   0.205862 0.384629 0.904798 -0.184636
C27   C     C_R   0.674341 0.827122 0.312068 0.456449
C28   C     C_R   0.325279 0.331153 0.686899 0.457996
C29   C     C_R   0.581586 0.914724 0.196720 0.482131
C30   C     C_R   0.418771 0.401206 0.804563 0.481082
C31   C     C_R   0.892445 0.858340 0.212236 -0.150013
C32   C     C_R   0.107462 0.360738 0.787651 -0.181306
H3    H     H_    0.792524 0.870596 0.423714 0.209169
H4    H     H_    0.207992 0.393968 0.577225 0.204850
H5    H     H_    0.822073 0.910570 0.036624 0.114287
H6    H     H_    0.178211 0.389516 0.964470 0.117741
C33   C     C_1   0.166538 0.857136 0.168431 -0.176907
C34   C     C_1   0.833478 0.357042 0.831531 -0.183704
C35   C     C_1   0.218939 0.854842 0.219560 0.016988
C36   C     C_1   0.781078 0.354792 0.780401 0.015134
C37   C     C_1   0.280699 0.853373 0.279560 0.029392
C38   C     C_1   0.719315 0.353411 0.720411 0.027570
C39   C     C_1   0.333086 0.851048 0.330733 -0.132099
C40   C     C_1   0.666922 0.351132 0.669251 -0.133009
O11   O     O_R   0.922300 0.202240 0.924350 -0.536501
O12   O     O_R   0.077700 0.702240 0.075650 -0.535219
O13   O     O_R   0.050780 0.535130 0.891350 -0.541721
O14   O     O_R   0.949220 0.035130 0.108650 -0.534839
C41   C     C_R   0.067240 0.368164 0.865193 0.701639
C42   C     C_R   0.932685 0.867785 0.134717 0.751721
O15   O     O_R   0.921100 0.531560 0.912990 -0.538856
O16   O     O_R   0.078900 0.031560 0.087010 -0.534333
O17   O     O_R   0.947120 0.708470 0.097370 -0.542309
O18   O     O_R   0.052880 0.208470 0.902630 -0.538666
C43   C     C_R   0.895913 0.363524 0.893364 0.708700
C44   C     C_R   0.104095 0.863565 0.106610 0.732819
O19   O     O_3   0.008710 0.375800 0.060400 -0.372270
O20   O     O_3   0.991290 0.875800 0.939600 -0.378882
V3    V     V_3+5 0.998380 0.648080 0.988790 1.431222
V4    V     V_3+5 0.001620 0.148080 0.011210 1.448884
F1    F     F_    0.517033 0.946334 0.175752 -0.690485
F2    F     F_    0.483627 0.426398 0.826451 -0.690447
N1    N     N_3   0.592838 0.982595 0.028755 -0.632223
H7    H     H_    0.558657 0.880065 0.004186 0.275794
H8    H     H_    0.568640 0.110381 0.031496 0.277764
N2    N     N_3   0.408014 0.451255 0.974210 -0.633148
H9    H     H_    0.433408 0.577886 0.975181 0.276499
H10   H     H_    0.441207 0.344479 0.995749 0.277396
F3    F     F_    0.695202 0.749217 0.399251 -0.707851
F4    F     F_    0.303793 0.262870 0.597811 -0.705881
N3    N     N_3   0.992321 0.825734 0.326520 -0.663811
H11   H     H_    0.009586 0.835364 0.399908 0.277218
H12   H     H_    0.004919 0.692504 0.304252 0.218792
N4    N     N_3   0.008158 0.346321 0.668367 -0.631481
H13   H     H_    0.988284 0.463669 0.697847 0.216429
H14   H     H_    0.991907 0.225963 0.700316 0.224764
N5    N     N_3   0.915077 0.832649 0.481562 -0.666210
H15   H     H_    0.901960 0.952452 0.517148 0.243308
H16   H     H_    0.896522 0.715719 0.513546 0.245229
N6    N     N_3   0.083109 0.368088 0.518319 -0.606931
H17   H     H_    0.059294 0.496905 0.507378 0.243086
H18   H     H_    0.117057 0.363445 0.470283 0.223858

loop_
_geom_bond_atom_site_label_1
_geom_bond_atom_site_label_2
_ccdc_geom_bond_type
C12   N6    S    
C16   C18   A    
C9    C31   A    
C13   C15   A    
O1    C3    A    
O2    C4    A    
C2    O7    A    
C6    N2    S    
C8    C28   A    
N1    H7    S    
O5    C3    A    
C1    C40   S    
C21   C23   A    
C10   C12   A    
O15   C43   A    
O18   V4    S    
O16   V4    S    
C15   C19   A    
O12   V3    S    
O15   V3    S    
C30   F2    S    
O13   C41   A    
O14   C42   A    
C34   C43   S    
H1    C23   S    
C7    C29   A    
C8    C30   A    
C17   C25   A    
C20   C28   A    
O17   V3    S    
C33   C44   S    
C35   C37   S    
O6    V2    S    
C2    C39   S    
C34   C36   T    
N1    H8    S    
C29   F1    S    
C36   C38   S    
C11   N5    S    
C16   C20   A    
N3    H12   S    
C42   O17   A    
C28   F4    S    
O20   V4    S    
N5    H15   S    
O19   V3    S    
O20   V3    S    
O13   V3    S    
N3    H11   S    
C4    C7    S    
C33   C35   T    
O4    V2    S    
C5    C29   A    
C6    C30   A    
N5    H16   S    
H2    C24   S    
O12   C44   A    
O6    C4    A    
C5    N1    S    
O1    V2    S    
N6    H18   S    
O2    V1    S    
C10   N4    S    
O11   V4    S    
O11   C43   A    
C7    C27   A    
N2    H10   S    
C25   H5    S    
N4    H14   S    
C37   C39   T    
C9    N3    S    
O4    C2    A    
C22   C24   A    
O3    V1    S    
C13   H3    S    
C41   O18   A    
C14   H4    S    
C3    C8    S    
C18   C32   A    
N2    H9    S    
O3    C1    A    
O19   V4    S    
C11   C13   A    
C31   C42   S    
C12   C14   A    
C32   C41   S    
C19   C27   A    
C14   C16   A    
O7    V1    S    
C10   C32   A    
C1    O8    A    
C15   C17   A    
O8    V2    S    
C24   C26   A    
O16   C44   A    
C26   H6    S    
O5    V1    S    
C19   C21   A    
C38   C40   T    
C20   C22   A    
C18   C26   A    
N6    H17   S    
C9    C11   A    
N4    H13   S    
C23   C25   A    
C17   C31   A    
O9    V2    S    
O10   V1    S    
O14   V4    S    
C5    C21   A    
C6    C22   A    
C27   F3    S    
