data_mof_unit_4606.cif
_audit_creation_date              2012-12-10T17:09:18-0500
_audit_creation_method            fapswitch 2.2
_symmetry_space_group_name_H-M    P1
_symmetry_Int_Tables_number       1
_space_group_crystal_system       triclinic
_cell_length_a                    18.406074
_cell_length_b                    18.859578
_cell_length_c                    11.928674
_cell_angle_alpha                 90.183187
_cell_angle_beta                  74.08191
_cell_angle_gamma                 89.801962
_cell_volume                      3981.96889374

loop_
_atom_site_label
_atom_site_type_symbol
_atom_type_description
_atom_site_fract_x
_atom_site_fract_y
_atom_site_fract_z
_atom_type_partial_charge
C1    C     C_R   0.400261 0.101093 0.521912 0.804841
C2    C     C_R   0.601159 0.899939 0.477406 0.808584
C3    C     C_R   0.597614 0.102793 0.479198 0.806584
C4    C     C_R   0.399742 0.899135 0.521949 0.803604
C5    C     C_R   0.900270 0.601103 0.521912 0.804836
C6    C     C_R   0.101146 0.399927 0.477412 0.808652
C7    C     C_R   0.097607 0.602796 0.479195 0.806625
C8    C     C_R   0.899757 0.399126 0.521948 0.803623
C9    C     C_R   0.535574 0.998479 0.958788 -0.001696
C10   C     C_R   0.464286 0.996223 0.040982 -0.002667
C11   C     C_R   0.035566 0.498559 0.958795 -0.001704
C12   C     C_R   0.964278 0.496257 0.040982 -0.002648
C13   C     C_R   0.410004 0.004020 0.873474 0.122687
C14   C     C_R   0.589598 0.008530 0.126093 0.119328
C15   C     C_R   0.909994 0.503990 0.873462 0.122626
C16   C     C_R   0.089593 0.508555 0.126101 0.119319
C17   C     C_R   0.400430 0.000107 0.997731 -0.122433
C18   C     C_R   0.599067 0.006541 0.001675 -0.129659
C19   C     C_R   0.900417 0.500116 0.997728 -0.122443
C20   C     C_R   0.099053 0.506642 0.001691 -0.129743
C21   C     C_R   0.541914 0.995523 0.835323 -0.000975
C22   C     C_R   0.458216 0.993328 0.164451 -0.005638
C23   C     C_R   0.041916 0.495603 0.835329 -0.000925
C24   C     C_R   0.958213 0.493345 0.164450 -0.005653
C25   C     C_R   0.648186 0.165395 0.469829 -0.067558
C26   C     C_R   0.341199 0.842921 0.534549 -0.073950
C27   C     C_R   0.346829 0.161379 0.532677 -0.062420
C28   C     C_R   0.660750 0.844605 0.463433 -0.072706
C29   C     C_R   0.148165 0.665406 0.469801 -0.067546
C30   C     C_R   0.841249 0.342889 0.534554 -0.073978
C31   C     C_R   0.846863 0.661412 0.532677 -0.062401
C32   C     C_R   0.160704 0.344564 0.463457 -0.072623
C33   C     C_R   0.236343 0.776261 0.658129 -0.018744
C34   C     C_R   0.744084 0.242016 0.348822 -0.003116
C35   C     C_R   0.759621 0.769362 0.339486 -0.006829
C36   C     C_R   0.258157 0.246130 0.649852 -0.004492
C37   C     C_R   0.736499 0.276124 0.658173 -0.018690
C38   C     C_R   0.244085 0.741998 0.348773 -0.003060
C39   C     C_R   0.259539 0.269290 0.339506 -0.006902
C40   C     C_R   0.758218 0.746192 0.649846 -0.004443
C41   C     C_R   0.303613 0.814396 0.643109 -0.238120
C42   C     C_R   0.685306 0.193309 0.361087 -0.232154
C43   C     C_R   0.695535 0.813213 0.355351 -0.246227
C44   C     C_R   0.315448 0.195508 0.639126 -0.230671
C45   C     C_R   0.803756 0.314290 0.643098 -0.238128
C46   C     C_R   0.185305 0.693291 0.361048 -0.232181
C47   C     C_R   0.195456 0.313145 0.355391 -0.246247
C48   C     C_R   0.815495 0.695552 0.639124 -0.230636
C49   C     C_R   0.318995 0.820382 0.437060 -0.254426
C50   C     C_R   0.662105 0.196095 0.569770 -0.270057
C51   C     C_R   0.685254 0.824784 0.559624 -0.249887
C52   C     C_R   0.325742 0.184309 0.434384 -0.286818
C53   C     C_R   0.818997 0.320385 0.437097 -0.254367
C54   C     C_R   0.162042 0.696152 0.569731 -0.269996
C55   C     C_R   0.185205 0.324736 0.559644 -0.249895
C56   C     C_R   0.825795 0.684361 0.434379 -0.286849
C57   C     C_R   0.260761 0.770300 0.447798 0.105550
C58   C     C_R   0.718068 0.248596 0.559569 0.090957
C59   C     C_R   0.740625 0.771966 0.550068 0.108179
C60   C     C_R   0.277058 0.242749 0.439935 0.095366
C61   C     C_R   0.760779 0.270289 0.447849 0.105589
C62   C     C_R   0.217994 0.748662 0.559516 0.091022
C63   C     C_R   0.240564 0.271906 0.550080 0.108182
C64   C     C_R   0.777124 0.742811 0.439924 0.095294
Cu1   Cu    Cu3+1 0.507800 1.000000 0.383250 0.947072
Cu2   Cu    Cu3+1 0.492200 1.000000 0.616750 0.948737
Cu3   Cu    Cu3+1 0.007800 0.500000 0.383250 0.947104
Cu4   Cu    Cu3+1 0.992200 0.500000 0.616750 0.948739
H1    H     H_    0.403783 0.986918 0.226990 0.150290
H2    H     H_    0.596567 0.991258 0.772449 0.153788
H3    H     H_    0.903782 0.486913 0.226986 0.150285
H4    H     H_    0.096577 0.491395 0.772460 0.153807
H5    H     H_    0.632172 0.176660 0.655225 0.162694
H6    H     H_    0.347776 0.841443 0.352222 0.174481
H7    H     H_    0.346413 0.155358 0.353573 0.167914
H8    H     H_    0.659833 0.849633 0.643234 0.176175
H9    H     H_    0.132081 0.676750 0.655196 0.162713
H10   H     H_    0.847726 0.341488 0.352266 0.174488
H11   H     H_    0.846467 0.655412 0.353567 0.167916
H12   H     H_    0.159796 0.349591 0.643250 0.176176
H13   H     H_    0.671656 0.174230 0.284785 0.164184
H14   H     H_    0.324283 0.823609 0.717310 0.139254
H15   H     H_    0.331683 0.179728 0.715224 0.159936
H16   H     H_    0.672980 0.823033 0.283615 0.135317
H17   H     H_    0.171672 0.674187 0.284745 0.164035
H18   H     H_    0.824488 0.323483 0.717255 0.139267
H19   H     H_    0.831723 0.679764 0.715225 0.159894
H20   H     H_    0.172886 0.322960 0.283682 0.135404
N1    N     N_R   0.519530 0.000000 0.207810 -0.206638
N2    N     N_R   0.480470 0.000000 0.792190 -0.208971
N3    N     N_R   0.019530 0.500000 0.207810 -0.206642
N4    N     N_R   0.980470 0.500000 0.792190 -0.208965
O1    O     O_R   0.430030 0.075530 0.417420 -0.592191
O2    O     O_R   0.569970 0.924470 0.582580 -0.588086
O3    O     O_R   0.569970 0.075530 0.582580 -0.590981
O4    O     O_R   0.430030 0.924470 0.417420 -0.589966
O5    O     O_R   0.930030 0.575530 0.417420 -0.592194
O6    O     O_R   0.069970 0.424470 0.582580 -0.588101
O7    O     O_R   0.069970 0.575530 0.582580 -0.590981
O8    O     O_R   0.930030 0.424470 0.417420 -0.589985
O9    O     O_R   0.416860 0.075510 0.614610 -0.581931
O10   O     O_R   0.583140 0.924490 0.385390 -0.587267
O11   O     O_R   0.583140 0.075510 0.385390 -0.580608
O12   O     O_R   0.416860 0.924490 0.614610 -0.586740
O13   O     O_R   0.916860 0.575510 0.614610 -0.581913
O14   O     O_R   0.083140 0.424490 0.385390 -0.587155
O15   O     O_R   0.083140 0.575510 0.385390 -0.580643
O16   O     O_R   0.916860 0.424490 0.614610 -0.586781
C65   C     C_R   0.658908 0.021071 0.161730 0.186975
C66   C     C_R   0.698170 0.084316 0.127707 -0.184381
C67   C     C_R   0.774893 0.088344 0.119668 -0.124724
C68   C     C_R   0.812325 0.031649 0.154591 -0.119665
C69   C     C_R   0.773686 0.968459 0.189059 -0.164387
C70   C     C_R   0.698367 0.962871 0.187078 -0.117259
H21   H     H_    0.671167 0.128079 0.095942 0.118072
H22   H     H_    0.805400 0.134107 0.079980 0.172317
H23   H     H_    0.871943 0.035339 0.148550 0.122470
H24   H     H_    0.803547 0.922464 0.207924 0.150534
H25   H     H_    0.672824 0.912057 0.189532 0.111029
C71   C     C_R   0.341631 0.021525 0.838040 0.185974
C72   C     C_R   0.308382 0.087349 0.872216 -0.184086
C73   C     C_R   0.232085 0.098727 0.882895 -0.123754
C74   C     C_R   0.189566 0.046356 0.847765 -0.113811
C75   C     C_R   0.222811 0.980800 0.810319 -0.156473
C76   C     C_R   0.297311 0.967800 0.811723 -0.115908
H26   H     H_    0.340664 0.126940 0.901531 0.127424
H27   H     H_    0.206265 0.147226 0.922427 0.165222
H28   H     H_    0.130423 0.055313 0.854489 0.120278
H29   H     H_    0.189441 0.938812 0.788770 0.158668
H30   H     H_    0.318190 0.914975 0.807321 0.113981
C77   C     C_R   0.158938 0.520836 0.161760 0.186963
C78   C     C_R   0.198382 0.584018 0.127997 -0.183770
C79   C     C_R   0.275089 0.587835 0.120186 -0.124925
C80   C     C_R   0.312340 0.530947 0.154929 -0.119983
C81   C     C_R   0.273538 0.467795 0.189002 -0.164160
C82   C     C_R   0.198226 0.462454 0.186885 -0.117295
H31   H     H_    0.171534 0.627921 0.096299 0.117959
H32   H     H_    0.305746 0.633577 0.080758 0.172359
H33   H     H_    0.371948 0.534465 0.149034 0.122517
H34   H     H_    0.303269 0.421668 0.207695 0.150799
H35   H     H_    0.172526 0.411722 0.189110 0.110762
C83   C     C_R   0.841620 0.521475 0.837999 0.185901
C84   C     C_R   0.808362 0.587302 0.872131 -0.183884
C85   C     C_R   0.732082 0.598689 0.882685 -0.123862
C86   C     C_R   0.689593 0.546324 0.847473 -0.113909
C87   C     C_R   0.722843 0.480761 0.810083 -0.156377
C88   C     C_R   0.797319 0.467751 0.811614 -0.115879
H36   H     H_    0.840620 0.626893 0.901497 0.127357
H37   H     H_    0.706250 0.647190 0.922182 0.165226
H38   H     H_    0.630467 0.555295 0.854090 0.120276
H39   H     H_    0.689492 0.438779 0.788460 0.158487
H40   H     H_    0.818188 0.414921 0.807213 0.114033
C89   C     C_R   0.679758 0.281247 0.772703 0.101609
C90   C     C_R   0.612838 0.319631 0.780689 -0.172324
C91   C     C_R   0.567220 0.341495 0.889217 -0.146479
C92   C     C_R   0.586673 0.323027 0.990391 -0.122745
C93   C     C_R   0.648816 0.278954 0.983573 -0.165661
C94   C     C_R   0.696798 0.259928 0.875111 -0.178299
H41   H     H_    0.599011 0.337222 0.702618 0.130521
H42   H     H_    0.517610 0.373773 0.894741 0.129781
H43   H     H_    0.551920 0.340676 0.074534 0.122228
H44   H     H_    0.660002 0.260217 0.062444 0.123758
H45   H     H_    0.747657 0.229854 0.870909 0.135361
C95   C     C_R   0.298464 0.748564 0.233975 0.104506
C96   C     C_R   0.281483 0.787005 0.144493 -0.177113
C97   C     C_R   0.331897 0.786139 0.032870 -0.148559
C98   C     C_R   0.399191 0.747933 0.011658 -0.110543
C99   C     C_R   0.416713 0.710747 0.102456 -0.189267
C100  C     C_R   0.367237 0.712161 0.213586 -0.150599
H46   H     H_    0.229245 0.816676 0.161638 0.123146
H47   H     H_    0.318579 0.813279 0.961412 0.117879
H48   H     H_    0.436052 0.746287 0.924054 0.135117
H49   H     H_    0.466235 0.677603 0.087796 0.121869
H50   H     H_    0.380512 0.681644 0.282293 0.132432
C101  C     C_R   0.310599 0.257292 0.219432 0.092152
C102  C     C_R   0.389584 0.252298 0.201188 -0.187149
C103  C     C_R   0.436750 0.234831 0.091823 -0.145821
C104  C     C_R   0.408207 0.233194 0.995384 -0.124635
C105  C     C_R   0.331342 0.244699 0.010126 -0.160976
C106  C     C_R   0.282156 0.253400 0.121500 -0.148416
H51   H     H_    0.415029 0.259239 0.272148 0.137974
H52   H     H_    0.495370 0.222343 0.082393 0.146151
H53   H     H_    0.445306 0.221970 0.909623 0.134384
H54   H     H_    0.309617 0.242809 0.935241 0.131817
H55   H     H_    0.222224 0.255638 0.130510 0.119182
C107  C     C_R   0.702581 0.754241 0.763177 0.099311
C108  C     C_R   0.712105 0.802384 0.847110 -0.192601
C109  C     C_R   0.657973 0.805907 0.955399 -0.141070
C110  C     C_R   0.595080 0.761962 0.978895 -0.106378
C111  C     C_R   0.584998 0.715168 0.893173 -0.183344
C112  C     C_R   0.637373 0.712836 0.784735 -0.141363
H56   H     H_    0.762139 0.834987 0.829533 0.129439
H57   H     H_    0.665122 0.840464 0.023576 0.111198
H58   H     H_    0.555618 0.763998 0.064444 0.137030
H59   H     H_    0.538894 0.678204 0.909780 0.117595
H60   H     H_    0.629249 0.675895 0.719467 0.131427
C113  C     C_R   0.179496 0.781501 0.772540 0.101610
C114  C     C_R   0.112627 0.819910 0.780245 -0.172253
C115  C     C_R   0.066895 0.841845 0.888649 -0.146619
C116  C     C_R   0.086192 0.823439 0.989975 -0.122405
C117  C     C_R   0.148283 0.779342 0.983433 -0.165728
C118  C     C_R   0.196365 0.760226 0.875095 -0.178590
H61   H     H_    0.098924 0.837455 0.702052 0.130585
H62   H     H_    0.017323 0.874135 0.893960 0.129677
H63   H     H_    0.051354 0.841148 0.074021 0.122383
H64   H     H_    0.159337 0.760633 0.062417 0.123585
H65   H     H_    0.247159 0.730101 0.871098 0.135372
C119  C     C_R   0.798494 0.248564 0.234047 0.104464
C120  C     C_R   0.781666 0.287210 0.144646 -0.177419
C121  C     C_R   0.832125 0.286366 0.033053 -0.148502
C122  C     C_R   0.899325 0.248010 0.011814 -0.110909
C123  C     C_R   0.916706 0.210634 0.102546 -0.189342
C124  C     C_R   0.867176 0.212002 0.213636 -0.150057
H66   H     H_    0.729490 0.316984 0.161801 0.123371
H67   H     H_    0.818900 0.313608 0.961611 0.117997
H68   H     H_    0.936212 0.246389 0.924229 0.135292
H69   H     H_    0.966168 0.177403 0.087854 0.121816
H70   H     H_    0.880341 0.181348 0.282292 0.132354
C125  C     C_R   0.810688 0.757345 0.219425 0.092342
C126  C     C_R   0.889670 0.752343 0.201200 -0.187202
C127  C     C_R   0.936838 0.734811 0.091865 -0.145837
C128  C     C_R   0.908298 0.733118 0.995422 -0.124394
C129  C     C_R   0.831438 0.744640 0.010138 -0.161013
C130  C     C_R   0.782250 0.753405 0.121496 -0.148329
H71   H     H_    0.915109 0.759316 0.272161 0.137960
H72   H     H_    0.995463 0.722343 0.082455 0.146093
H73   H     H_    0.945398 0.721851 0.909680 0.134445
H74   H     H_    0.809715 0.742722 0.935252 0.131762
H75   H     H_    0.722318 0.755641 0.130502 0.119182
C131  C     C_R   0.202516 0.254163 0.763176 0.099393
C132  C     C_R   0.211987 0.302370 0.847052 -0.192725
C133  C     C_R   0.157861 0.305883 0.955343 -0.141071
C134  C     C_R   0.095028 0.261860 0.978903 -0.106480
C135  C     C_R   0.084986 0.215014 0.893222 -0.183525
C136  C     C_R   0.137352 0.212694 0.784774 -0.141191
H76   H     H_    0.261982 0.335029 0.829429 0.129402
H77   H     H_    0.164977 0.340497 0.023466 0.111213
H78   H     H_    0.055578 0.263881 0.064464 0.137117
H79   H     H_    0.038913 0.178011 0.909871 0.117593
H80   H     H_    0.129262 0.175715 0.719534 0.131418
C137  C     C_R   0.323770 0.009885 0.082521 0.088700
C138  C     C_R   0.308735 0.069464 0.156635 -0.156619
C139  C     C_R   0.236962 0.080106 0.233386 -0.131355
C140  C     C_R   0.179119 0.032002 0.235995 -0.117671
C141  C     C_R   0.192972 0.973184 0.161903 -0.131625
C142  C     C_R   0.264780 0.962287 0.085831 -0.104208
H81   H     H_    0.352865 0.107373 0.154817 0.152387
H82   H     H_    0.225872 0.125715 0.290662 0.139001
H83   H     H_    0.123517 0.040504 0.294976 0.118198
H84   H     H_    0.147981 0.936193 0.162789 0.118359
H85   H     H_    0.273608 0.917726 0.027639 0.118952
C143  C     C_R   0.674519 0.020851 0.915771 0.094680
C144  C     C_R   0.683686 0.080526 0.842626 -0.169773
C145  C     C_R   0.752838 0.093222 0.760407 -0.142635
C146  C     C_R   0.814286 0.048235 0.752525 -0.114564
C147  C     C_R   0.806705 0.990120 0.826535 -0.139134
C148  C     C_R   0.737413 0.976492 0.907243 -0.108630
H86   H     H_    0.636861 0.116563 0.848337 0.137034
H87   H     H_    0.759207 0.138014 0.702733 0.142881
H88   H     H_    0.867829 0.058615 0.689436 0.119563
H89   H     H_    0.854543 0.955512 0.821537 0.117987
H90   H     H_    0.734072 0.932108 0.964136 0.116316
C149  C     C_R   0.823756 0.509941 0.082516 0.088694
C150  C     C_R   0.808781 0.569507 0.156667 -0.156581
C151  C     C_R   0.737018 0.580200 0.233421 -0.131351
C152  C     C_R   0.679121 0.532167 0.235994 -0.117683
C153  C     C_R   0.692907 0.473369 0.161859 -0.131696
C154  C     C_R   0.764704 0.462420 0.085784 -0.104302
H91   H     H_    0.852950 0.607368 0.154879 0.152368
H92   H     H_    0.725978 0.625793 0.290729 0.139001
H93   H     H_    0.623527 0.540707 0.294978 0.118211
H94   H     H_    0.647874 0.436433 0.162715 0.118400
H95   H     H_    0.773465 0.417876 0.027565 0.118903
C155  C     C_R   0.174493 0.520991 0.915805 0.094593
C156  C     C_R   0.183654 0.580728 0.842800 -0.169921
C157  C     C_R   0.252794 0.593456 0.760573 -0.142593
C158  C     C_R   0.314229 0.548425 0.752528 -0.114443
C159  C     C_R   0.306644 0.490229 0.826373 -0.139119
C160  C     C_R   0.237365 0.476573 0.907090 -0.108772
H96   H     H_    0.136830 0.616784 0.848619 0.137055
H97   H     H_    0.259164 0.638301 0.703011 0.142869
H98   H     H_    0.367763 0.558828 0.689429 0.119552
H99   H     H_    0.354468 0.455577 0.821232 0.118028
H100  H     H_    0.234011 0.432113 0.963832 0.116407

loop_
_geom_bond_atom_site_label_1
_geom_bond_atom_site_label_2
_ccdc_geom_bond_type
C14   C65   S    
C6    C32   S    
C158  H98   S    
C24   H3    S    
C111  C112  A    
C7    C29   S    
C2    O2    A    
C13   N2    A    
C2    C28   S    
C117  C118  A    
C14   C18   A    
C30   C45   A    
C67   C68   A    
C34   C42   A    
C151  H92   S    
C52   H7    S    
C9    C21   A    
C104  C105  A    
C74   C75   A    
Cu2   N2    S    
C96   C97   A    
C5    O13   A    
C10   C22   A    
C122  C123  A    
C15   C19   A    
C157  H97   S    
C59   C64   A    
C119  C124  A    
C56   H11   S    
C7    O7    A    
C60   C63   A    
C81   C82   A    
C6    O6    A    
C95   C96   A    
C33   C62   A    
C152  H93   S    
C144  C145  A    
C28   C51   A    
C40   C107  S    
C29   C54   A    
C2    O10   A    
C10   C17   A    
C139  C140  A    
C15   C83   S    
C116  H63   S    
C115  H62   S    
C146  C147  A    
C107  C112  A    
C151  C152  A    
C49   C57   A    
C140  C141  A    
Cu4   O6    S    
C155  C156  A    
C136  H80   S    
C143  C144  A    
C73   H27   S    
C16   C77   S    
C112  H60   S    
C126  C127  A    
C69   C70   A    
C52   C60   A    
C135  H79   S    
C15   N4    A    
C25   C50   A    
C99   C100  A    
C53   C61   A    
C76   H30   S    
C22   N1    A    
Cu1   O4    S    
C129  C130  A    
C18   C143  S    
C116  C117  A    
C138  H81   S    
C55   C63   A    
C154  H95   S    
C126  H71   S    
C29   C46   A    
C149  C154  A    
C100  H50   S    
C56   C64   A    
C114  C115  A    
C31   C56   A    
C113  C114  A    
C36   C63   A    
C78   C79   A    
C134  C135  A    
C22   H1    S    
C86   H38   S    
C23   N4    A    
Cu2   O2    S    
C46   H17   S    
C147  H89   S    
C69   H24   S    
C44   H15   S    
C58   C61   A    
Cu1   O1    S    
C122  H68   S    
C125  C130  A    
C71   C72   A    
C17   C137  S    
C115  C116  A    
C40   C59   A    
C4    O4    A    
C158  C159  A    
C93   C94   A    
C43   H16   S    
Cu2   O9    S    
C31   C48   A    
C95   C100  A    
C81   H34   S    
C42   H13   S    
Cu1   O10   S    
Cu3   Cu4   S    
C144  H86   S    
C132  H76   S    
C68   C69   A    
C143  C148  A    
C86   C87   A    
C155  C160  A    
C21   N2    A    
C6    O14   A    
C102  H51   S    
C30   C53   A    
C11   C20   A    
C91   C92   A    
C83   C84   A    
C140  H83   S    
C89   C94   A    
C137  C142  A    
C50   C58   A    
C37   C89   S    
C130  H75   S    
C149  C150  A    
C51   H8    S    
C39   C101  S    
C77   C82   A    
C106  H55   S    
C50   H5    S    
C119  C120  A    
C98   C99   A    
C72   H26   S    
Cu3   O5    S    
C71   C76   A    
C150  C151  A    
C54   C62   A    
C57   C62   A    
C78   H31   S    
C19   C149  S    
C127  H72   S    
C33   C41   A    
C34   C61   A    
Cu4   O13   S    
C148  H90   S    
C133  H77   S    
C109  C110  A    
Cu1   N1    S    
C134  H78   S    
C14   N1    A    
C127  C128  A    
Cu2   O12   S    
C38   C57   A    
C153  H94   S    
C131  C136  A    
C142  H85   S    
C99   H49   S    
C33   C113  S    
C16   C20   A    
C147  C148  A    
Cu3   N3    S    
C120  C121  A    
C110  H58   S    
C48   H19   S    
C113  C118  A    
C66   C67   A    
C160  H100  S    
C123  C124  A    
C35   C64   A    
C145  H87   S    
C103  H52   S    
C90   C91   A    
C72   C73   A    
C67   H22   S    
C87   C88   A    
C97   H47   S    
C111  H59   S    
C103  C104  A    
C28   C43   A    
C90   H41   S    
C94   H45   S    
C36   C131  S    
C102  C103  A    
C156  C157  A    
C5    O5    A    
C109  H57   S    
C139  H82   S    
C156  H96   S    
C159  H99   S    
C79   C80   A    
C32   C47   A    
C7    O15   A    
C26   C49   A    
C51   C59   A    
C135  C136  A    
Cu1   O11   S    
C68   H23   S    
C37   C45   A    
C77   C78   A    
C24   N3    A    
C1    O9    A    
C114  H61   S    
C13   C71   S    
C35   C43   A    
C27   C52   A    
Cu2   O3    S    
C39   C47   A    
C105  H54   S    
C9    C10   A    
C3    O11   A    
C96   H46   S    
C40   C48   A    
C146  H88   S    
C92   C93   A    
C32   C55   A    
C85   H37   S    
C138  C139  A    
C91   H42   S    
C159  C160  A    
C37   C58   A    
C83   C88   A    
C150  H91   S    
C104  H53   S    
C141  C142  A    
C85   C86   A    
C35   C125  S    
C25   C42   A    
C92   H43   S    
C4    C26   S    
C11   C12   A    
Cu3   O14   S    
C73   C74   A    
C98   H48   S    
C105  C106  A    
C12   C24   A    
C80   C81   A    
C120  H66   S    
C13   C17   A    
C21   H2    S    
C118  H65   S    
C124  H70   S    
C34   C119  S    
C47   H20   S    
C54   H9    S    
C145  C146  A    
C125  C126  A    
C88   H40   S    
C89   C90   A    
Cu4   O7    S    
C8    C30   S    
C131  C132  A    
C101  C102  A    
Cu3   O8    S    
C65   C66   A    
C55   H12   S    
C129  H74   S    
C38   C95   S    
Cu3   O15   S    
C74   H28   S    
C97   C98   A    
C70   H25   S    
C128  H73   S    
C137  C138  A    
C65   C70   A    
C39   C60   A    
C4    O12   A    
C12   C19   A    
C11   C23   A    
C133  C134  A    
Cu4   N4    S    
C82   H35   S    
C108  H56   S    
C75   H29   S    
C45   H18   S    
C117  H64   S    
C23   H4    S    
Cu1   Cu2   S    
C8    O8    A    
C110  C111  A    
C128  C129  A    
C20   C155  S    
C84   H36   S    
C38   C46   A    
C36   C44   A    
C152  C153  A    
C121  H67   S    
C101  C106  A    
C53   H10   S    
C87   H39   S    
C9    C18   A    
C79   H32   S    
C3    C25   S    
C41   H14   S    
C157  C158  A    
C108  C109  A    
C16   N3    A    
C1    O1    A    
C121  C122  A    
C123  H69   S    
C153  C154  A    
C132  C133  A    
C1    C27   S    
C80   H33   S    
C49   H6    S    
C8    O16   A    
C3    O3    A    
Cu4   O16   S    
C107  C108  A    
C27   C44   A    
C66   H21   S    
C93   H44   S    
C84   C85   A    
C26   C41   A    
C75   C76   A    
C5    C31   S    
C141  H84   S    
