data_mof_unit_2094.cif
_audit_creation_date              2012-12-10T17:29:16-0500
_audit_creation_method            fapswitch 2.2
_symmetry_space_group_name_H-M    P1
_symmetry_Int_Tables_number       1
_space_group_crystal_system       triclinic
_cell_length_a                    12.093646
_cell_length_b                    12.793488
_cell_length_c                    13.149009
_cell_angle_alpha                 86.646651
_cell_angle_beta                  113.505061
_cell_angle_gamma                 94.424851
_cell_volume                      1859.19183168

loop_
_atom_site_label
_atom_site_type_symbol
_atom_type_description
_atom_site_fract_x
_atom_site_fract_y
_atom_site_fract_z
_atom_type_partial_charge
C1    C     C_R   0.476459 0.299831 0.498589 1.023349
C2    C     C_R   0.516416 0.459211 0.964136 0.125360
C3    C     C_R   0.535152 0.519914 0.878836 -0.081195
C4    C     C_R   0.443706 0.498787 0.012603 -0.075068
C5    C     C_R   0.362171 0.577416 0.956194 -0.043086
C6    C     C_R   0.379441 0.636254 0.869065 0.158096
C7    C     C_R   0.475469 0.615137 0.840415 0.092709
C8    C     C_R   0.464151 0.473575 0.123020 0.535291
C9    C     C_R   0.291690 0.568460 0.105956 0.552971
C10   C     C_R   0.604851 0.479573 0.827770 -0.289169
C11   C     C_R   0.540954 0.811477 0.507181 -0.318555
C12   C     C_R   0.566543 0.496161 0.708369 0.916150
C13   C     C_R   0.457554 0.188679 0.491536 -0.359561
C14   C     C_R   0.353021 0.039356 0.383827 0.038734
C15   C     C_R   0.359341 0.145182 0.403524 0.577666
C16   C     C_R   0.547173 0.128015 0.565161 0.575218
C17   C     C_R   0.547215 0.022541 0.545048 -0.145604
C18   C     C_R   0.448753 0.977072 0.453033 -0.221447
C19   C     C_R   0.448695 0.870895 0.434732 0.567916
C20   C     C_R   0.639902 0.856077 0.593683 0.448984
C21   C     C_R   0.644035 0.961921 0.613474 0.067021
C22   C     C_R   0.017416 0.609679 0.407178 0.521050
C23   C     C_R   0.523357 0.700179 0.501227 0.981123
C24   C     C_R   0.134496 0.596961 0.414463 0.581006
C25   C     C_R   0.154678 0.450869 0.538279 0.677377
C26   C     C_R   0.035319 0.459226 0.532197 -0.308116
C27   C     C_R   0.966088 0.540796 0.467140 -0.301760
C28   C     C_R   0.848474 0.551940 0.464815 0.280959
C29   C     C_R   0.865594 0.400735 0.582587 0.050971
C30   C     C_R   0.984038 0.389361 0.590157 0.619073
C31   C     C_R   0.433336 0.503848 0.291431 0.987211
C32   C     C_R   0.276733 0.602807 0.998381 -0.005648
C33   C     C_R   0.392110 0.511934 0.171081 -0.349480
C34   C     C_R   0.676212 0.394497 0.876856 0.679583
C35   C     C_R   0.655655 0.332560 0.958599 -0.024389
C36   C     C_R   0.567096 0.359280 0.995105 0.073367
N1    N     N_R   0.798200 0.480260 0.519790 -0.138824
N2    N     N_R   0.201820 0.519740 0.480210 -0.259020
O1    O     O_R   0.579910 0.341070 0.505280 -0.584778
O2    O     O_R   0.388440 0.353740 0.492580 -0.540984
O3    O     O_R   0.643280 0.490550 0.663120 -0.543764
O4    O     O_R   0.451810 0.503220 0.650420 -0.609090
O5    O     O_R   0.611560 0.646260 0.507420 -0.636179
O6    O     O_R   0.420090 0.658930 0.494720 -0.565522
O7    O     O_R   0.548190 0.496780 0.349580 -0.602326
O8    O     O_R   0.356720 0.509450 0.336880 -0.516318
Zn1   Zn    Zn3+2 0.627850 0.491540 0.508480 1.036554
Zn2   Zn    Zn3+2 0.372150 0.508460 0.491520 1.115563
F1    F     F_    0.216184 0.600507 0.150053 -0.572596
F2    F     F_    0.728911 0.795638 0.662878 -0.666447
N3    N     N_3   0.249814 0.999232 0.291711 -0.332784
H1    H     H_    0.204177 0.939588 0.320128 0.279967
H2    H     H_    0.278140 0.970960 0.233599 0.253594
N4    N     N_3   0.745906 0.006806 0.703630 -0.319262
H3    H     H_    0.824018 0.995323 0.690825 0.228629
H4    H     H_    0.752018 0.966582 0.777070 0.237311
F3    F     F_    0.272584 0.206836 0.332953 -0.614109
F4    F     F_    0.633880 0.173780 0.655628 -0.623039
N5    N     N_3   0.786692 0.643125 0.410076 -0.341204
H5    H     H_    0.784176 0.692099 0.469672 0.228936
H6    H     H_    0.700397 0.622356 0.352866 0.236203
N6    N     N_3   0.816516 0.328845 0.642930 -0.269752
H7    H     H_    0.815273 0.253676 0.615120 0.240125
H8    H     H_    0.875763 0.330226 0.726435 0.271457
F5    F     F_    0.955289 0.688419 0.339990 -0.586018
F6    F     F_    0.047641 0.309585 0.654199 -0.608108
F7    F     F_    0.180820 0.662569 0.354813 -0.511835
N7    N     N_3   0.309447 0.725062 0.818461 -0.414830
H9    H     H_    0.269848 0.715504 0.732649 0.191328
H10   H     H_    0.367056 0.792867 0.834839 0.214151
F8    F     F_    0.224340 0.374485 0.602423 -0.564568
N8    N     N_3   0.178120 0.666349 0.934984 -0.381719
H11   H     H_    0.185200 0.733324 0.979632 0.246631
H12   H     H_    0.097628 0.623907 0.926429 0.241149
F9    F     F_    0.566502 0.426036 0.188892 -0.645872
F10   F     F_    0.750533 0.360552 0.832764 -0.614557
N9    N     N_3   0.518028 0.281102 0.051148 -0.380967
H13   H     H_    0.588279 0.252060 0.121204 0.231383
H14   H     H_    0.477547 0.219192 0.997637 0.191680
N10   N     N_3   0.718101 0.237931 0.996494 -0.354322
H15   H     H_    0.654950 0.173893 0.976762 0.197526
H16   H     H_    0.763648 0.239705 0.082733 0.208226
N11   N     N_3   0.515814 0.695223 0.779272 -0.461232
H17   H     H_    0.456513 0.693771 0.695999 0.196864
H18   H     H_    0.603532 0.684836 0.786612 0.223191
F11   F     F_    0.359090 0.822345 0.348329 -0.618549

loop_
_geom_bond_atom_site_label_1
_geom_bond_atom_site_label_2
_ccdc_geom_bond_type
C7    N11   S    
C14   C18   A    
C35   C36   A    
C4    C8    A    
C19   F11   S    
C32   N8    S    
N9    H13   S    
C11   C19   A    
C26   C27   A    
C29   C30   A    
C18   C19   A    
C3    C7    A    
C36   N9    S    
C21   N4    S    
N10   H15   S    
C35   N10   S    
C23   O5    A    
C34   C35   A    
O7    Zn1   S    
N6    H8    S    
C9    C32   A    
C29   N6    S    
N11   H17   S    
C16   C17   A    
C31   O8    A    
C24   N2    A    
C31   C33   S    
C25   F8    S    
N1    Zn1   S    
N2    Zn2   S    
C24   F7    S    
C5    C32   A    
C6    N7    S    
N5    H5    S    
C9    C33   A    
C15   F3    S    
O8    Zn2   S    
N9    H14   S    
N4    H4    S    
C11   C20   A    
N5    H6    S    
C12   O4    A    
N3    H1    S    
C9    F1    S    
N10   H16   S    
N7    H9    S    
C16   F4    S    
C25   C26   A    
C8    F9    S    
C17   C21   A    
C23   O6    A    
N3    H2    S    
C2    C4    A    
C22   F5    S    
N6    H7    S    
C25   N2    A    
C14   N3    S    
C17   C18   A    
O3    Zn1   S    
C10   C34   A    
O4    Zn2   S    
C30   F6    S    
C10   C12   S    
N8    H12   S    
N11   H18   S    
C26   C30   A    
C22   C27   A    
C13   C15   A    
C22   C24   A    
C1    C13   S    
C12   O3    A    
O1    Zn1   S    
C28   N5    S    
C2    C36   A    
O2    Zn2   S    
N4    H3    S    
N8    H11   S    
C6    C7    A    
C1    O2    A    
C2    C3    A    
C3    C10   A    
C5    C6    A    
C28   N1    A    
C11   C23   S    
C8    C33   A    
C1    O1    A    
C4    C5    A    
C20   C21   A    
C20   F2    S    
C31   O7    A    
C13   C16   A    
C29   N1    A    
C27   C28   A    
N7    H10   S    
C14   C15   A    
O5    Zn1   S    
O6    Zn2   S    
C34   F10   S    
