data_mof_unit_1949.cif
_audit_creation_date              2012-12-10T17:48:53-0500
_audit_creation_method            fapswitch 2.2
_symmetry_space_group_name_H-M    P1
_symmetry_Int_Tables_number       1
_space_group_crystal_system       triclinic
_cell_length_a                    10.737077
_cell_length_b                    14.690438
_cell_length_c                    14.730603
_cell_angle_alpha                 64.908711
_cell_angle_beta                  103.906651
_cell_angle_gamma                 102.88768
_cell_volume                      2023.07413108

loop_
_atom_site_label
_atom_site_type_symbol
_atom_type_description
_atom_site_fract_x
_atom_site_fract_y
_atom_site_fract_z
_atom_type_partial_charge
C1    C     C_R   0.478474 0.119756 0.311652 0.851829
C2    C     C_3   0.879058 0.993410 0.510830 -0.055399
C3    C     C_3   0.904918 0.885592 0.530097 0.029147
C4    C     C_3   0.969957 0.033057 0.591261 0.020291
C5    C     C_R   0.473588 0.187019 0.202823 -0.142201
C6    C     C_R   0.546852 0.812928 0.795966 -0.062571
C7    C     C_R   0.451128 0.218128 0.024538 -0.152657
C8    C     C_R   0.445025 0.150193 0.124447 0.382913
C9    C     C_R   0.504531 0.291944 0.177607 -0.251586
C10   C     C_R   0.515568 0.360894 0.077563 0.090139
C11   C     C_R   0.486413 0.322236 0.000680 0.011328
C12   C     C_R   0.260373 0.999108 0.501925 0.848561
C13   C     C_R   0.552867 0.467102 0.051562 0.045921
C14   C     C_R   0.545601 0.533744 0.947182 -0.018485
C15   C     C_R   0.529311 0.491080 0.873725 0.364432
C16   C     C_R   0.497050 0.387115 0.900767 -0.165676
C17   C     C_R   0.601494 0.508740 0.126218 -0.169131
C18   C     C_R   0.633607 0.612829 0.099280 -0.194547
C19   C     C_R   0.610395 0.679155 0.997915 0.145648
C20   C     C_R   0.559965 0.640035 0.921581 0.114279
C21   C     C_R   0.634347 0.784404 0.971913 -0.148633
C22   C     C_R   0.605762 0.851052 0.870936 -0.121209
C23   C     C_R   0.522807 0.880240 0.687973 0.842698
C24   C     C_R   0.517526 0.708175 0.823308 -0.140274
C25   C     C_R   0.736588 0.292968 0.653739 0.326091
C26   C     C_R   0.688774 0.205987 0.633682 0.016350
C27   C     C_R   0.518171 0.285076 0.509987 0.027219
C28   C     C_R   0.557794 0.375806 0.528086 -0.123322
C29   C     C_R   0.675859 0.382069 0.596405 -0.053023
C30   C     C_R   0.484654 0.459940 0.480201 0.080858
C31   C     C_R   0.533265 0.550917 0.497702 0.024677
C32   C     C_R   0.658484 0.559039 0.552750 -0.206911
C33   C     C_R   0.728554 0.477269 0.602306 0.460058
C34   C     C_R   0.740485 0.995595 0.506804 0.828371
C35   C     C_R   0.363448 0.455787 0.416724 -0.179064
C36   C     C_R   0.292788 0.537177 0.372606 -0.154648
C37   C     C_R   0.337101 0.624570 0.392767 0.138664
C38   C     C_R   0.456599 0.632334 0.457064 0.014271
C39   C     C_R   0.261607 0.703872 0.350329 -0.269197
C40   C     C_R   0.302670 0.789181 0.374089 0.146778
C41   C     C_R   0.491442 0.720386 0.480266 0.051179
C42   C     C_3   0.058875 0.072979 0.403351 0.181875
C43   C     C_3   0.913704 0.066855 0.404688 -0.489804
C44   C     C_3   0.046901 0.889234 0.523417 -0.432686
C45   C     C_3   0.113530 0.024751 0.595887 0.006318
C46   C     C_3   0.123270 0.997112 0.506543 -0.068307
Cu1   Cu    Cu3+1 0.465900 0.918260 0.475680 0.999203
Cu2   Cu    Cu3+1 0.534100 0.081740 0.524320 0.982981
H1    H     H_    0.066992 0.051736 0.341071 0.142578
H2    H     H_    0.093985 0.831017 0.592656 0.240128
H3    H     H_    0.483761 0.356366 0.843336 0.187643
H4    H     H_    0.457553 0.680584 0.767670 0.203625
H5    H     H_    0.628786 0.932008 0.851780 0.179340
H6    H     H_    0.672615 0.641631 0.158559 0.147894
H7    H     H_    0.429455 0.189121 0.965103 0.183949
H8    H     H_    0.518148 0.318596 0.237475 0.168869
H9    H     H_    0.621022 0.462637 0.206298 0.143327
H10   H     H_    0.675756 0.815044 0.029548 0.153890
H11   H     H_    0.577031 0.729691 0.532969 0.166406
H12   H     H_    0.243991 0.850084 0.341644 0.144910
H13   H     H_    0.200655 0.530535 0.324060 0.165824
H14   H     H_    0.735225 0.138727 0.675987 0.178340
H15   H     H_    0.436131 0.277101 0.454044 0.169208
H16   H     H_    0.888767 0.143520 0.384384 0.228908
H17   H     H_    0.705839 0.630110 0.557110 0.184782
H18   H     H_    0.319184 0.390092 0.400073 0.184644
H19   H     H_    0.170566 0.699424 0.299945 0.153266
H20   H     H_    0.854364 0.039843 0.345365 0.170607
H21   H     H_    0.048520 0.869040 0.458894 0.164058
H22   H     H_    0.842824 0.861860 0.469370 0.137891
H23   H     H_    0.170364 0.100575 0.586307 0.180428
H24   H     H_    0.963771 0.115684 0.561916 0.155882
N1    N     N_R   0.585360 0.204570 0.560800 -0.212280
N2    N     N_R   0.414550 0.795430 0.439160 -0.191750
O1    O     O_R   0.455060 0.022100 0.338110 -0.530769
O2    O     O_R   0.512640 0.160150 0.379180 -0.590034
O3    O     O_R   0.288900 0.930980 0.479450 -0.608488
O4    O     O_R   0.346480 0.069030 0.520520 -0.548981
O5    O     O_R   0.487360 0.839850 0.620820 -0.568974
O6    O     O_R   0.544940 0.977900 0.661890 -0.580098
O7    O     O_R   0.653520 0.930970 0.479480 -0.589471
O8    O     O_R   0.711100 0.069020 0.520550 -0.585855
I1    I     I_    0.907562 0.983507 0.736978 -0.249857
I2    I     I_    0.853361 0.765277 0.669053 -0.202335
Cl1   Cl    Cl    0.400897 0.020788 0.144650 -0.593747
Cl2   Cl    Cl    0.137693 0.201474 0.372677 -0.670353
Cl3   Cl    Cl    0.574398 0.558182 0.752504 -0.626393
Cl4   Cl    Cl    0.887793 0.506015 0.660408 -0.472578
Cl5   Cl    Cl    0.864148 0.278608 0.757628 -0.487149
I3    I     I_    0.211126 0.925358 0.740844 -0.260030

loop_
_geom_bond_atom_site_label_1
_geom_bond_atom_site_label_2
_ccdc_geom_bond_type
C24   H4    S    
C40   H12   S    
C45   H23   S    
Cu2   O2    S    
C19   C20   A    
C16   H3    S    
Cu1   O5    S    
C7    C8    A    
C45   C46   S    
C7    C11   A    
C30   C35   A    
C1    C5    S    
C36   C37   A    
C19   C21   A    
C33   Cl4   S    
C8    Cl1   S    
C30   C31   A    
C15   C16   A    
C6    C22   A    
C29   C33   A    
C26   N1    A    
C18   C19   A    
C42   C46   S    
Cu2   O4    S    
C20   C24   A    
C13   C14   A    
C41   N2    A    
C31   C32   A    
C40   N2    A    
C43   H20   S    
C12   O4    A    
C42   Cl2   S    
C34   O7    A    
C7    H7    S    
C23   O6    A    
C9    C10   A    
C2    C34   S    
C21   C22   A    
C44   C46   S    
C43   H16   S    
C22   H5    S    
C4    C45   S    
C25   C29   A    
C3    C44   S    
C1    O1    A    
C14   C20   A    
C3    H22   S    
C41   H11   S    
C38   C41   A    
C12   C46   S    
C39   C40   A    
C35   H18   S    
C25   C26   A    
C35   C36   A    
C2    C4    S    
C5    C9    A    
C37   C38   A    
C11   C16   A    
Cu1   Cu2   S    
C2    C43   S    
C6    C24   A    
C12   O3    A    
C17   C18   A    
C44   H21   S    
C9    H8    S    
C45   I3    S    
C27   H15   S    
C42   C43   S    
Cu1   O3    S    
C36   H13   S    
C4    H24   S    
C15   Cl3   S    
C44   H2    S    
C28   C29   A    
C1    O2    A    
C39   H19   S    
Cu2   N1    S    
Cu1   N2    S    
C10   C13   A    
C5    C8    A    
C25   Cl5   S    
C31   C38   A    
C13   C17   A    
C32   C33   A    
Cu2   O6    S    
C28   C30   A    
C2    C3    S    
C26   H14   S    
Cu1   O1    S    
C21   H10   S    
C37   C39   A    
C4    I1    S    
C6    C23   S    
Cu2   O8    S    
Cu1   O7    S    
C10   C11   A    
C18   H6    S    
C42   H1    S    
C3    I2    S    
C14   C15   A    
C34   O8    A    
C23   O5    A    
C27   N1    A    
C17   H9    S    
C32   H17   S    
C27   C28   A    
