data_mof_unit_3328.cif
_audit_creation_date              2013-03-05T16:56:15-0500
_audit_creation_method            fapswitch 2.2
_symmetry_space_group_name_H-M    P1
_symmetry_Int_Tables_number       1
_space_group_crystal_system       triclinic
_cell_length_a                    17.383079
_cell_length_b                    16.79232
_cell_length_c                    10.932674
_cell_angle_alpha                 90.625807
_cell_angle_beta                  91.679158
_cell_angle_gamma                 89.803999
_cell_volume                      3189.69586563

loop_
_atom_site_label
_atom_site_type_symbol
_atom_site_description
_atom_site_fract_x
_atom_site_fract_y
_atom_site_fract_z
_atom_type_partial_charge
O1    O     O_R   0.389130 0.566570 0.500000 -0.605285
O2    O     O_R   0.389130 0.433430 0.500000 -0.654887
C1    C     C_R   0.352857 0.499980 0.500548 0.916322
O3    O     O_R   0.500000 0.566540 0.314800 -0.568749
O4    O     O_R   0.500000 0.433460 0.314800 -0.533210
C2    C     C_R   0.492454 0.499089 0.257487 0.991262
Zn1   Zn    Zn3+2 0.500020 0.588860 0.500010 1.049212
Zn2   Zn    Zn3+2 0.500020 0.411140 0.500010 1.068873
O5    O     O_R   0.610900 0.566520 0.500010 -0.631024
O6    O     O_R   0.610900 0.433480 0.500010 -0.620079
O7    O     O_R   0.500030 0.566540 0.685210 -0.590606
O8    O     O_R   0.500030 0.433460 0.685210 -0.627616
C3    C     C_R   0.646762 0.499891 0.497670 0.957409
C4    C     C_R   0.501343 0.499930 0.742758 0.925221
C5    C     C_3   0.420642 0.558379 0.067153 0.546424
C6    C     C_3   0.485914 0.400981 0.069727 0.548830
C7    C     C_3   0.419540 0.546774 0.918670 -0.349454
C8    C     C_3   0.494052 0.403456 0.921860 -0.386466
H1    H     H_    0.575530 0.590538 0.127129 0.216915
H2    H     H_    0.614812 0.499775 0.124467 0.234453
C9    C     C_3   0.566499 0.532083 0.081614 -0.650386
C10   C     C_3   0.487976 0.496025 0.120894 -0.269149
C11   C     C_3   0.497206 0.498028 0.879089 -0.272030
C12   C     C_3   0.574752 0.538261 0.940065 -0.009887
C13   C     C_R   0.833870 0.546175 0.356899 -0.015968
C14   C     C_R   0.853266 0.439346 0.507850 -0.046397
C15   C     C_R   0.756531 0.549078 0.386139 -0.251557
C16   C     C_R   0.775775 0.444532 0.535053 -0.238011
H3    H     H_    0.717689 0.589090 0.337243 0.167004
H4    H     H_    0.752360 0.406309 0.603786 0.210762
C17   C     C_R   0.728112 0.499292 0.475491 -0.020300
C18   C     C_R   0.882755 0.491970 0.420178 0.077512
C19   C     C_1   0.963590 0.497781 0.409562 0.155144
C20   C     C_1   0.031841 0.502194 0.410904 0.083714
C21   C     C_R   0.149517 0.573221 0.474888 0.002590
C22   C     C_R   0.155073 0.433688 0.403651 -0.050238
C23   C     C_R   0.227731 0.569466 0.505615 -0.245094
C24   C     C_R   0.233190 0.432121 0.435405 -0.043471
H5    H     H_    0.256676 0.621779 0.543157 0.183422
H6    H     H_    0.266297 0.378647 0.418075 0.216022
C25   C     C_R   0.269570 0.499717 0.484925 -0.049985
C26   C     C_R   0.113161 0.504473 0.424476 0.027369
C27   C     C_R   0.418717 0.825172 0.485350 0.355729
C28   C     C_R   0.418533 0.175296 0.505100 0.340383
C29   C     C_R   0.429018 0.741918 0.487539 0.020145
C30   C     C_R   0.428927 0.258529 0.504279 -0.017435
H7    H     H_    0.379159 0.704732 0.474425 0.199563
H8    H     H_    0.378777 0.295832 0.508854 0.180382
N1    N     N_R   0.500030 0.707230 0.500030 -0.136996
N2    N     N_R   0.500030 0.292770 0.500030 -0.114167
C31   C     C_R   0.563505 0.755493 0.517113 0.044103
C32   C     C_R   0.563947 0.243830 0.499670 0.148276
C33   C     C_R   0.555639 0.840074 0.525592 -0.161393
C34   C     C_R   0.556420 0.159301 0.491283 -0.155839
C35   C     C_R   0.482460 0.875828 0.505621 -0.059093
C36   C     C_R   0.482704 0.124134 0.496738 -0.043650
C37   C     C_1   0.474839 0.963544 0.501789 0.238165
C38   C     C_1   0.474887 0.036472 0.499187 0.238241
S1    S     S_3+6 0.437189 0.668153 0.109501 0.055087
O9    O     O_2   0.371687 0.716264 0.055379 -0.159927
O10   O     O_2   0.435030 0.685172 0.243895 -0.266158
O11   O     O_3   0.516683 0.712569 0.061454 -0.623583
H9    H     H_    0.543819 0.734069 0.135585 0.385349
S2    S     S_3+6 0.563659 0.333104 0.137116 0.030908
O12   O     O_2   0.543225 0.302087 0.259640 -0.271905
O13   O     O_2   0.570428 0.258995 0.059318 -0.219392
O14   O     O_3   0.651934 0.373283 0.151686 -0.670207
H10   H     H_    0.685457 0.330033 0.183846 0.387007
S3    S     S_3+6 0.325398 0.863736 0.455595 0.074036
O15   O     O_2   0.326563 0.913964 0.342788 -0.211818
O16   O     O_2   0.268142 0.797557 0.435947 -0.313893
O17   O     O_3   0.299432 0.920193 0.575369 -0.482352
H11   H     H_    0.246223 0.937789 0.554701 0.404293
S4    S     S_3+6 0.324428 0.137292 0.517218 0.077706
O18   O     O_2   0.321367 0.086873 0.629634 -0.218800
O19   O     O_2   0.266664 0.203795 0.526336 -0.259273
O20   O     O_3   0.303022 0.081200 0.392751 -0.486689
H12   H     H_    0.249125 0.064152 0.403059 0.409311
C39   C     C_2   0.640719 0.720215 0.531147 0.431525
H13   H     H_    0.656135 0.685797 0.611318 0.158216
O21   O     O_2   0.688272 0.730167 0.452832 -0.600802
C40   C     C_2   0.641565 0.278193 0.501223 0.443091
H14   H     H_    0.662148 0.308234 0.421299 0.099510
O22   O     O_2   0.684035 0.270881 0.591305 -0.569566
C41   C     C_2   0.623927 0.889802 0.560343 0.511803
H15   H     H_    0.680743 0.873563 0.530144 0.126435
O23   O     O_2   0.617861 0.947839 0.627646 -0.539264
C42   C     C_2   0.625999 0.109001 0.472176 0.509494
H16   H     H_    0.681021 0.125165 0.514392 0.119271
O24   O     O_2   0.623258 0.050674 0.404568 -0.540503
S5    S     S_3+6 0.323860 0.551514 0.135506 0.131611
O25   O     O_2   0.268161 0.599083 0.057249 -0.193772
O26   O     O_2   0.289131 0.471362 0.149561 -0.178737
O27   O     O_3   0.324286 0.592844 0.275806 -0.538978
H17   H     H_    0.281674 0.632180 0.274972 0.401339
S6    S     S_3+6 0.399418 0.344186 0.118540 0.138392
O28   O     O_2   0.377208 0.365706 0.246404 -0.294682
O29   O     O_2   0.329811 0.352202 0.035369 -0.204788
O30   O     O_3   0.419151 0.245800 0.119268 -0.400021
H18   H     H_    0.377424 0.221299 0.165739 0.400524
C43   C     C_2   0.349692 0.503998 0.858156 0.535312
H19   H     H_    0.346517 0.500555 0.758879 0.001162
O31   O     O_2   0.296037 0.475845 0.911316 -0.431312
C44   C     C_2   0.430255 0.353077 0.855828 0.664780
H20   H     H_    0.392547 0.375944 0.784601 0.026176
O32   O     O_2   0.426098 0.281273 0.872312 -0.427458
C45   C     C_2   0.413629 0.629052 0.856024 0.559717
H21   H     H_    0.461045 0.669705 0.858253 0.177750
O33   O     O_2   0.354413 0.653154 0.805065 -0.535406
C46   C     C_2   0.567973 0.359399 0.877528 0.665718
H22   H     H_    0.622234 0.363508 0.926919 0.122238
O34   O     O_2   0.568186 0.314580 0.788355 -0.497140
C47   C     C_2   0.595367 0.623869 0.909118 0.503016
H23   H     H_    0.627832 0.659072 0.976510 0.101211
O35   O     O_2   0.591668 0.650051 0.805691 -0.585046
C48   C     C_2   0.650308 0.500066 0.902477 0.301872
H24   H     H_    0.693997 0.483592 0.970704 0.114805
O36   O     O_2   0.665620 0.491469 0.794653 -0.568836
C49   C     C_2   0.860074 0.601193 0.260815 0.477957
H25   H     H_    0.821048 0.646645 0.225509 0.082610
O37   O     O_2   0.923973 0.595959 0.217965 -0.515337
C50   C     C_2   0.900351 0.378875 0.575249 0.448365
H26   H     H_    0.876312 0.348769 0.652724 0.112534
O38   O     O_2   0.964857 0.360085 0.544270 -0.568103
C51   C     C_2   0.109224 0.650158 0.497471 0.500710
H27   H     H_    0.138989 0.697433 0.547969 0.112508
O39   O     O_2   0.043833 0.662838 0.458637 -0.516523
C52   C     C_2   0.118231 0.361157 0.348710 0.564003
H28   H     H_    0.058124 0.361709 0.319241 0.076548
O40   O     O_2   0.154823 0.299642 0.334935 -0.478654

loop_
_geom_bond_atom_site_label_1
_geom_bond_atom_site_label_2
_geom_bond_distance
_ccdc_geom_bond_type
C34   C42   1.491281 S    
C14   C18   1.418717 A    
C43   H19   1.086074 S    
C15   H3    1.084751 S    
C22   C26   1.411873 A    
C20   C26   1.417630 S    
C52   H28   1.084369 S    
C44   O32   1.223786 D    
O20   H12   0.990529 S    
Zn1   O7    2.063146 S    
C7    C11   1.642849 S    
S4    O19   1.503684 D    
C21   C23   1.392264 A    
C7    C45   1.550530 S    
O4    C2    1.278137 A    
Zn2   O6    1.964861 S    
O7    C4    1.289126 A    
C2    C10   1.493404 S    
S6    O30   1.686261 S    
C48   H24   1.086059 S    
C21   C51   1.489189 S    
C29   H7    1.075223 S    
S3    O16   1.503845 D    
C21   C26   1.416530 A    
C7    C43   1.541546 S    
C46   H22   1.075070 S    
O5    C3    1.279310 A    
C46   O34   1.225158 D    
C5    C10   1.666230 S    
C32   C34   1.427606 A    
N1    C31   1.378378 A    
S4    O20   1.679897 S    
S6    O29   1.498686 D    
N2    C32   1.379786 A    
C11   C12   1.631454 S    
C36   C38   1.479376 S    
C13   C18   1.415361 A    
C33   C35   1.416917 A    
C12   C47   1.526664 S    
C43   O31   1.213241 D    
C9    C10   1.568401 S    
C45   O33   1.225651 D    
C22   C52   1.490365 S    
O3    Zn1   2.055199 S    
C13   C49   1.488841 S    
C44   H20   1.076275 S    
C28   C30   1.410072 A    
C34   C36   1.415888 A    
C49   O37   1.220600 D    
C30   H8    1.073774 S    
C6    S6    1.876974 S    
S1    O10   1.495285 D    
S4    O18   1.502334 D    
C41   O23   1.220857 D    
C15   C17   1.395048 A    
C8    C11   1.661926 S    
S2    O14   1.680960 S    
Zn1   N1    1.987705 S    
C24   C25   1.397470 A    
O3    C2    1.293614 A    
S5    O25   1.506181 D    
C39   O21   1.220590 D    
C41   H15   1.083558 S    
O14   H10   0.990617 S    
O1    C1    1.285764 A    
S2    O13   1.505886 D    
C4    C11   1.494998 S    
S3    O17   1.679810 S    
C28   S4    1.767055 S    
O11   H9    0.990978 S    
S5    O26   1.488337 D    
C28   C36   1.410136 A    
O30   H18   0.990810 S    
C29   N1    1.366977 A    
Zn2   O8    2.055095 S    
S6    O28   1.501132 D    
C19   C20   1.188621 T    
O27   H17   0.990695 S    
C8    C44   1.553338 S    
C42   H16   1.083803 S    
C32   C40   1.468838 S    
C27   C29   1.409229 A    
C27   C35   1.410101 A    
C42   O24   1.220805 D    
C12   C48   1.524911 S    
C40   O22   1.220411 D    
C35   C37   1.479389 S    
C51   H27   1.085905 S    
C45   H21   1.071578 S    
C50   O38   1.220298 D    
Zn2   N2    1.987709 S    
C47   H23   1.085886 S    
C5    C7    1.632423 S    
C1    C25   1.452850 S    
S1    O11   1.673277 S    
C6    C10   1.685572 S    
H1    C9    1.105248 S    
O1    Zn1   1.964869 S    
C5    S1    1.916302 S    
C3    C17   1.441729 S    
C16   C17   1.390073 A    
O2    Zn2   1.962355 S    
C8    C46   1.567017 S    
O8    C4    1.275229 A    
O17   H11   0.990553 S    
O6    C3    1.280329 A    
C52   O40   1.221492 D    
O4    Zn2   2.063249 S    
C49   H25   1.085964 S    
C13   C15   1.391526 A    
C6    S2    1.902064 S    
C30   N2    1.367200 A    
C14   C16   1.390205 A    
S2    O12   1.495376 D    
C22   C24   1.391935 A    
O2    C1    1.281301 A    
C23   H5    1.084587 S    
C18   C19   1.417111 S    
S5    O27   1.676467 S    
C24   H6    1.082844 S    
C37   C38   1.225280 T    
C16   H4    1.082839 S    
C48   O36   1.222978 D    
C23   C25   1.396419 A    
S3    O15   1.502365 D    
C31   C39   1.469867 S    
C5    S5    1.865201 S    
C39   H13   1.081805 S    
Zn1   O5    1.962342 S    
S1    O9    1.504648 D    
H2    C9    1.094759 S    
C6    C8    1.627878 S    
C40   H14   1.084060 S    
C9    C12   1.562940 S    
C51   O39   1.220537 D    
C33   C41   1.491376 S    
C14   C50   1.489723 S    
C31   C33   1.428662 A    
C50   H26   1.085899 S    
C27   S3    1.767242 S    
C47   O35   1.217540 D    
