data_mof_unit_1492.cif
_audit_creation_date              2012-12-11T14:08:36-0500
_audit_creation_method            fapswitch 2.2
_symmetry_space_group_name_H-M    P1
_symmetry_Int_Tables_number       1
_space_group_crystal_system       triclinic
_cell_length_a                    28.201127
_cell_length_b                    7.177581
_cell_length_c                    17.318101
_cell_angle_alpha                 90.10278
_cell_angle_beta                  101.864126
_cell_angle_gamma                 90.019713
_cell_volume                      3430.56815891

loop_
_atom_site_label
_atom_site_type_symbol
_atom_type_description
_atom_site_fract_x
_atom_site_fract_y
_atom_site_fract_z
_atom_type_partial_charge
O1    O     O_R   0.000700 0.436510 0.857920 -0.509672
O2    O     O_R   0.999300 0.563490 0.142080 -0.501571
O3    O     O_R   0.999300 0.936510 0.642080 -0.508570
O4    O     O_R   0.000700 0.063490 0.357920 -0.501969
O5    O     O_R   0.930080 0.766380 0.721890 -0.516249
O6    O     O_R   0.069920 0.233620 0.278110 -0.515899
O7    O     O_R   0.069920 0.266380 0.778110 -0.520532
O8    O     O_R   0.930080 0.733620 0.221890 -0.522522
C1    C     C_R   0.910559 0.597600 0.709203 0.839218
C2    C     C_R   0.089418 0.402446 0.291216 0.839908
C3    C     C_R   0.089446 0.097603 0.791237 0.807424
C4    C     C_R   0.910523 0.902233 0.208728 0.809285
O9    O     O_R   0.996180 0.766230 0.862310 -0.554763
O10   O     O_R   0.003820 0.233770 0.137690 -0.562729
O11   O     O_R   0.003820 0.266230 0.637690 -0.556585
O12   O     O_R   0.996180 0.733770 0.362310 -0.562193
O13   O     O_R   0.065870 0.936460 0.783500 -0.521158
O14   O     O_R   0.934130 0.063540 0.216500 -0.523795
O15   O     O_R   0.934130 0.436460 0.716500 -0.518841
O16   O     O_R   0.065870 0.563540 0.283500 -0.519134
C5    C     C_R   0.999323 0.596578 0.894728 0.690312
C6    C     C_R   0.000698 0.403428 0.105277 0.687342
C7    C     C_R   0.002315 0.095994 0.605846 0.684403
C8    C     C_R   0.997695 0.904006 0.394158 0.687213
O17   O     O_3   0.022790 0.603020 0.723980 -0.374061
O18   O     O_3   0.977210 0.396980 0.276020 -0.371554
O19   O     O_3   0.977210 0.103020 0.776020 -0.360688
O20   O     O_3   0.022790 0.896980 0.223980 -0.360407
V1    V     V_3+5 0.995770 0.877900 0.754830 1.609404
V2    V     V_3+5 0.004230 0.122100 0.245170 1.605245
V3    V     V_3+5 0.004230 0.377900 0.745170 1.602218
V4    V     V_3+5 0.995770 0.622100 0.254830 1.596556
C9    C     C_2   0.006712 0.079997 0.521417 0.153233
C10   C     C_2   0.993311 0.919995 0.478592 0.151033
C11   C     C_2   0.003409 0.583199 0.982142 0.153266
C12   C     C_2   0.996643 0.416802 0.017868 0.148729
C13   C     C_R   0.684290 0.979569 0.022916 0.729212
C14   C     C_R   0.316872 0.060679 0.972111 0.731743
C15   C     C_R   0.315031 0.508053 0.475133 0.726942
C16   C     C_R   0.684420 0.473055 0.536639 0.723993
O21   O     O_2   0.715005 0.005199 0.973563 -0.452397
O22   O     O_2   0.287169 0.087382 0.023051 -0.446063
O23   O     O_2   0.284026 0.549473 0.522474 -0.454193
O24   O     O_2   0.715377 0.409490 0.492762 -0.459756
N1    N     N_R   0.702935 0.945240 0.101093 -0.519945
N2    N     N_R   0.297351 0.052170 0.892885 -0.523523
N3    N     N_R   0.296689 0.452942 0.399082 -0.519220
N4    N     N_R   0.702829 0.552329 0.608510 -0.516345
C17   C     C_R   0.673155 0.922551 0.153535 0.679209
C18   C     C_R   0.326303 0.030859 0.839037 0.682749
C19   C     C_R   0.326683 0.411550 0.348682 0.680065
C20   C     C_R   0.672944 0.618281 0.655226 0.680296
C21   C     C_R   0.779403 0.073601 0.178021 0.261156
C22   C     C_R   0.224388 0.217386 0.822081 0.269674
C23   C     C_R   0.219873 0.579569 0.323246 0.257157
C24   C     C_R   0.779930 0.424537 0.682491 0.253073
C25   C     C_R   0.830665 0.066706 0.202604 0.162288
C26   C     C_R   0.173398 0.223601 0.793141 0.162526
C27   C     C_R   0.169279 0.561356 0.292537 0.175205
C28   C     C_R   0.830822 0.440455 0.710850 0.173669
C29   C     C_R   0.831269 0.766528 0.135463 0.163378
C30   C     C_R   0.164614 0.938380 0.865910 0.179226
C31   C     C_R   0.168271 0.276318 0.369261 0.171877
C32   C     C_R   0.831202 0.725515 0.633865 0.173891
C33   C     C_R   0.780481 0.781810 0.106318 0.267709
C34   C     C_R   0.215811 0.920313 0.885609 0.258081
C35   C     C_R   0.219655 0.284732 0.392609 0.254972
C36   C     C_R   0.779718 0.719185 0.612863 0.251573
C37   C     C_R   0.754881 0.933432 0.128773 0.252154
C38   C     C_R   0.245302 0.063054 0.866113 0.246368
C39   C     C_R   0.244796 0.438977 0.371391 0.259405
C40   C     C_R   0.754741 0.566105 0.635363 0.264944
C41   C     C_R   0.602394 0.969801 0.048156 -0.118403
C42   C     C_R   0.397896 0.024235 0.945278 -0.119291
C43   C     C_R   0.397288 0.479387 0.452247 -0.118213
C44   C     C_R   0.602212 0.525932 0.556220 -0.118224
C45   C     C_R   0.633471 0.989025 0.994129 -0.101776
C46   C     C_R   0.367521 0.042594 0.000433 -0.105677
C47   C     C_R   0.365856 0.522504 0.503746 -0.102555
C48   C     C_R   0.633607 0.457949 0.508553 -0.100271
C49   C     C_R   0.613092 0.018868 0.913556 0.427194
C50   C     C_R   0.388409 0.042881 0.081835 0.428169
C51   C     C_R   0.385918 0.577351 0.581980 0.429599
C52   C     C_R   0.613541 0.375782 0.434972 0.427524
C53   C     C_R   0.622652 0.937816 0.128491 -0.035970
C54   C     C_R   0.376940 0.019853 0.864002 -0.038345
C55   C     C_R   0.377275 0.424200 0.374117 -0.037200
C56   C     C_R   0.622285 0.605964 0.630193 -0.038014
C57   C     C_R   0.856612 0.911450 0.182232 -0.179978
C58   C     C_R   0.143312 0.086897 0.817192 -0.182043
C59   C     C_R   0.143224 0.412658 0.317626 -0.185145
C60   C     C_R   0.856656 0.588048 0.684430 -0.183863
C61   C     C_R   0.479338 0.002471 0.914693 0.077096
C62   C     C_R   0.520674 0.975129 0.078213 0.076119
C63   C     C_R   0.519859 0.576275 0.580365 0.074250
C64   C     C_R   0.479618 0.440055 0.426654 0.075857
C65   C     C_R   0.469773 0.002130 0.052799 -0.003054
C66   C     C_R   0.530720 0.002441 0.940828 -0.002862
C67   C     C_R   0.530894 0.440867 0.454507 -0.006158
C68   C     C_R   0.468585 0.554655 0.555898 -0.005028
C69   C     C_R   0.449148 0.009635 0.971051 0.072326
C70   C     C_R   0.551120 0.982559 0.022259 0.072800
C71   C     C_R   0.550835 0.514244 0.530251 0.069291
C72   C     C_R   0.448650 0.491418 0.478424 0.071524
C73   C     C_R   0.456887 0.993670 0.833811 -0.179606
C74   C     C_R   0.542315 0.938748 0.157926 -0.182285
C75   C     C_R   0.541457 0.659659 0.653282 -0.176489
C76   C     C_R   0.458042 0.391858 0.348001 -0.182653
C77   C     C_R   0.406808 0.001916 0.809204 -0.128142
C78   C     C_R   0.592172 0.920070 0.182301 -0.127887
C79   C     C_R   0.591486 0.673543 0.677532 -0.123808
C80   C     C_R   0.408048 0.384146 0.322546 -0.126811
O25   O     O_2   0.306119 0.019301 0.761445 -0.482149
O26   O     O_2   0.692412 0.885036 0.229891 -0.491476
O27   O     O_2   0.692219 0.695809 0.725754 -0.486640
O28   O     O_2   0.307569 0.357284 0.274112 -0.482372
C81   C     C_R   0.562462 0.024443 0.888109 -0.279404
C82   C     C_R   0.438797 0.023787 0.106752 -0.274761
C83   C     C_R   0.436480 0.592365 0.606846 -0.275899
C84   C     C_R   0.562974 0.367847 0.409255 -0.272894
H1    H     H_    0.391575 0.994727 0.746510 0.172427
H2    H     H_    0.606772 0.892324 0.244101 0.171824
H3    H     H_    0.605958 0.738197 0.734045 0.172278
H4    H     H_    0.393578 0.347083 0.261624 0.174201
H5    H     H_    0.476985 0.974798 0.787755 0.115278
H6    H     H_    0.521575 0.918266 0.202986 0.122988
H7    H     H_    0.520714 0.720347 0.692650 0.115835
H8    H     H_    0.478775 0.363928 0.303518 0.121249
H9    H     H_    0.548820 0.052599 0.826494 0.113543
H10   H     H_    0.453019 0.032310 0.169307 0.109265
H11   H     H_    0.449773 0.629393 0.667688 0.113340
H12   H     H_    0.549650 0.298021 0.353998 0.112906
O29   O     O_3   0.026479 0.226789 0.486669 -0.640019
H13   H     H_    0.038131 0.324269 0.526567 0.301878
O30   O     O_3   0.973565 0.773176 0.513355 -0.640871
H14   H     H_    0.961960 0.675588 0.473486 0.299670
O31   O     O_3   0.016441 0.740296 0.028375 -0.639544
H15   H     H_    0.024862 0.843064 0.995612 0.303700
O32   O     O_3   0.983659 0.259670 0.971634 -0.641075
H16   H     H_    0.975365 0.156703 0.004411 0.299528
O33   O     O_3   0.857038 0.614147 0.117724 -0.629380
H17   H     H_    0.835521 0.503738 0.110153 0.305161
O34   O     O_3   0.134746 0.816348 0.895199 -0.630400
H18   H     H_    0.152312 0.767621 0.946637 0.309687
O35   O     O_3   0.141577 0.141001 0.397861 -0.621524
H19   H     H_    0.159452 0.100631 0.450474 0.313695
O36   O     O_3   0.857570 0.859770 0.603933 -0.620787
H20   H     H_    0.838955 0.901065 0.551958 0.315166
O37   O     O_3   0.754639 0.651565 0.055714 -0.604645
H21   H     H_    0.776030 0.598804 0.022498 0.326900
O38   O     O_3   0.238333 0.765489 0.923949 -0.609804
H22   H     H_    0.215956 0.657859 0.913302 0.310821
O39   O     O_3   0.246524 0.145367 0.435950 -0.606216
H23   H     H_    0.228411 0.026601 0.426116 0.318994
O40   O     O_3   0.752616 0.858913 0.570180 -0.605207
H24   H     H_    0.770958 0.977278 0.579422 0.322916
O41   O     O_3   0.642935 0.041792 0.860067 -0.578691
H25   H     H_    0.623048 0.061663 0.806462 0.299192
O42   O     O_3   0.359246 0.060268 0.136656 -0.578511
H26   H     H_    0.379132 0.047576 0.190681 0.297657
O43   O     O_3   0.355821 0.615251 0.633865 -0.579295
H27   H     H_    0.375465 0.651453 0.686002 0.299639
O44   O     O_3   0.643640 0.302749 0.388729 -0.582100
H28   H     H_    0.623966 0.251357 0.339172 0.300797
O45   O     O_3   0.152283 0.358160 0.740128 -0.625745
H29   H     H_    0.175943 0.397911 0.708354 0.318966
O46   O     O_3   0.856105 0.207666 0.247495 -0.621857
H30   H     H_    0.838513 0.326622 0.234789 0.309038
O47   O     O_3   0.855963 0.317434 0.765650 -0.619267
H31   H     H_    0.833712 0.267575 0.797986 0.317981
O48   O     O_3   0.144664 0.683370 0.236750 -0.619720
H32   H     H_    0.167495 0.734040 0.205629 0.318272
O49   O     O_3   0.254836 0.359615 0.809162 -0.601613
H33   H     H_    0.236076 0.476775 0.799447 0.318726
O50   O     O_3   0.752065 0.215369 0.200667 -0.605822
H34   H     H_    0.768194 0.259451 0.253793 0.331579
O51   O     O_3   0.753655 0.272712 0.699087 -0.606855
H35   H     H_    0.775403 0.163296 0.709223 0.318145
O52   O     O_3   0.246103 0.732835 0.308020 -0.608645
H36   H     H_    0.224047 0.841142 0.296731 0.314958

loop_
_geom_bond_atom_site_label_1
_geom_bond_atom_site_label_2
_ccdc_geom_bond_type
O17   V3    S    
C67   C71   A    
O48   H32   S    
O1    C5    A    
O45   H29   S    
C23   C27   A    
O19   V1    S    
O13   V1    S    
O47   H31   S    
O3    C7    A    
O44   H28   S    
C68   C72   A    
C30   O34   S    
C48   C52   A    
C36   O40   S    
C21   C37   A    
O35   H19   S    
O4    V2    S    
O30   H14   S    
C34   C38   A    
O49   H33   S    
O7    C3    A    
O41   H25   S    
C25   C57   A    
C28   O47   S    
C32   C36   A    
C22   O49   S    
O9    V1    S    
O10   V2    S    
C80   H4    S    
N4    C20   A    
C22   C26   A    
O4    C8    A    
O34   H18   S    
C64   C67   A    
C49   C81   A    
O1    V3    S    
C52   C84   A    
O2    V4    S    
C51   C83   A    
C65   C82   A    
O3    V1    S    
C26   O45   S    
C61   C73   A    
C67   C84   A    
C56   C79   A    
C1    O15   A    
C62   C74   A    
O36   H20   S    
C63   C71   A    
C24   C40   A    
O2    C6    A    
C83   H11   S    
O38   H22   S    
C16   C48   A    
O14   V2    S    
C45   C49   A    
C81   H9    S    
C44   C56   A    
C36   C40   A    
C44   C71   A    
O11   C7    A    
C17   O26   S    
C64   C76   A    
O15   V3    S    
O12   C8    A    
C33   O37   S    
C31   C59   A    
C75   C79   A    
N4    C40   S    
C27   O48   S    
C1    C60   S    
C29   C57   A    
N2    C18   A    
O43   H27   S    
O5    V1    S    
C24   O51   S    
C28   C60   A    
C31   C35   A    
C49   O41   S    
C30   C34   A    
C79   H3    S    
O8    V4    S    
C17   C53   A    
C4    C57   S    
C20   C56   A    
C54   C77   A    
O7    V3    S    
C53   C78   A    
C2    O16   A    
O46   H30   S    
C21   C25   A    
C63   C68   A    
N3    C19   A    
C55   C80   A    
C14   C46   A    
C62   C65   A    
C7    C9    S    
C66   C70   A    
N1    C37   S    
C8    C10   S    
C76   C80   A    
C11   C12   D    
C15   C47   A    
C25   O46   S    
C78   H2    S    
C61   C69   A    
O5    C1    A    
C82   H10   S    
C29   C33   A    
C46   C50   A    
O42   H26   S    
C22   C38   A    
N1    C17   A    
O8    C4    A    
N3    C39   S    
C9    C10   D    
O9    C5    A    
C68   C83   A    
C27   C59   A    
C76   H8    S    
C26   C58   A    
C41   C53   A    
C52   O44   S    
C63   C75   A    
C42   C69   A    
C5    C11   S    
C29   O33   S    
C41   C70   A    
O6    V2    S    
C2    C59   S    
C19   C55   A    
C32   O36   S    
C43   C72   A    
O12   V4    S    
C50   C82   A    
C13   N1    A    
C51   O43   S    
N2    C38   S    
C21   O50   S    
C66   C81   A    
C15   N3    A    
O16   V4    S    
C20   O27   S    
C43   C55   A    
C16   N4    A    
C73   C77   A    
C3    O13   A    
C84   H12   S    
C23   O52   S    
C44   C48   A    
O6    C2    A    
C15   O23   S    
O32   H16   S    
O11   V3    S    
O18   V4    S    
C42   C54   A    
C6    C12   S    
O31   H15   S    
C74   H6    S    
C19   O28   S    
C73   H5    S    
C35   O39   S    
C18   O25   S    
O10   C6    A    
C64   C72   A    
C75   H7    S    
C34   O38   S    
O50   H34   S    
O33   H17   S    
C11   O31   S    
C47   C51   A    
C50   O42   S    
C3    C58   S    
C77   H1    S    
O29   H13   S    
C13   C45   A    
C10   O30   S    
C33   C37   A    
C30   C58   A    
O20   V2    S    
C35   C39   A    
C13   O21   S    
C12   O32   S    
C65   C69   A    
C14   N2    A    
C18   C54   A    
O52   H36   S    
C14   O22   S    
C9    O29   S    
C16   O24   S    
C24   C28   A    
C62   C70   A    
C74   C78   A    
O51   H35   S    
C42   C46   A    
C4    O14   A    
O40   H24   S    
C41   C45   A    
C32   C60   A    
O39   H23   S    
O37   H21   S    
C43   C47   A    
C61   C66   A    
C31   O35   S    
C23   C39   A    
