data_mof_unit_4016.cif
_audit_creation_date              2012-12-11T15:56:57-0500
_audit_creation_method            fapswitch 2.2
_symmetry_space_group_name_H-M    P1
_symmetry_Int_Tables_number       1
_space_group_crystal_system       triclinic
_cell_length_a                    17.394074
_cell_length_b                    24.329995
_cell_length_c                    14.991903
_cell_angle_alpha                 90.045628
_cell_angle_beta                  126.103203
_cell_angle_gamma                 89.956045
_cell_volume                      5126.11267172

loop_
_atom_site_label
_atom_site_type_symbol
_atom_type_description
_atom_site_fract_x
_atom_site_fract_y
_atom_site_fract_z
_atom_type_partial_charge
C1    C     C_R   0.308192 0.124015 0.906696 -0.095915
C2    C     C_R   0.308184 0.876046 0.906641 -0.095179
C3    C     C_R   0.808189 0.624012 0.906700 -0.095793
C4    C     C_R   0.808188 0.376041 0.906649 -0.095384
C5    C     C_R   0.645767 0.152978 0.092627 -0.230568
C6    C     C_R   0.645330 0.846926 0.092737 -0.232996
C7    C     C_R   0.145764 0.652981 0.092622 -0.230718
C8    C     C_R   0.145338 0.346930 0.092748 -0.232998
C9    C     C_R   0.550609 0.845434 0.910681 0.821866
C10   C     C_R   0.551472 0.154239 0.910351 0.801866
C11   C     C_R   0.050614 0.345431 0.910692 0.821903
C12   C     C_R   0.051467 0.654239 0.910346 0.801791
C13   C     C_R   0.550921 0.999899 0.725127 -0.434978
C14   C     C_R   0.050946 0.499903 0.725143 -0.434922
C15   C     C_R   0.823685 0.999891 0.267034 0.100455
C16   C     C_R   0.323678 0.499925 0.266977 0.100394
C17   C     C_R   0.611051 0.186522 0.002152 -0.129415
C18   C     C_R   0.610079 0.813161 0.002455 -0.134426
C19   C     C_R   0.111045 0.686523 0.002144 -0.129221
C20   C     C_R   0.110089 0.313161 0.002473 -0.134013
C21   C     C_3   0.023529 0.956407 0.501756 0.776208
C22   C     C_3   0.024926 0.045373 0.498245 0.774889
C23   C     C_3   0.523865 0.455939 0.500875 0.775934
C24   C     C_3   0.524543 0.544939 0.499106 0.775052
C25   C     C_3   0.950745 0.001677 0.470030 -0.396091
C26   C     C_3   0.450710 0.500840 0.470015 -0.396014
C27   C     C_3   0.924651 0.999865 0.352458 -0.011551
C28   C     C_3   0.424643 0.499909 0.352422 -0.011502
C29   C     C_3   0.996590 0.953600 0.384090 -0.212724
C30   C     C_3   0.997972 0.044560 0.380443 -0.210084
C31   C     C_3   0.496949 0.454012 0.383153 -0.212334
C32   C     C_3   0.497619 0.545008 0.381316 -0.210602
C33   C     C_3   0.072766 0.998285 0.415034 -0.274691
C34   C     C_3   0.572779 0.499106 0.415007 -0.274615
C35   C     C_R   0.401496 0.875967 0.091990 -0.141599
C36   C     C_R   0.401488 0.124043 0.092047 -0.141344
C37   C     C_R   0.901502 0.375967 0.091996 -0.141435
C38   C     C_R   0.901499 0.624051 0.092054 -0.141330
C39   C     C_3   0.098122 0.000122 0.532100 -0.186892
C40   C     C_3   0.598108 0.500048 0.532095 -0.186838
C41   C     C_3   0.243635 0.826369 0.096107 -0.518682
C42   C     C_3   0.243438 0.173474 0.096264 -0.519086
C43   C     C_3   0.743696 0.326352 0.096172 -0.518644
C44   C     C_3   0.743408 0.673474 0.096242 -0.519030
C45   C     C_3   0.691844 0.276195 0.100898 0.706282
C46   C     C_3   0.691230 0.723511 0.100991 0.707545
C47   C     C_3   0.191741 0.776226 0.100801 0.706235
C48   C     C_3   0.191042 0.223440 0.100866 0.707481
C49   C     C_3   0.803328 0.264640 0.012026 -0.356328
C50   C     C_3   0.802841 0.735362 0.012351 -0.358088
C51   C     C_3   0.303352 0.764643 0.012087 -0.356486
C52   C     C_3   0.302820 0.235358 0.012311 -0.358213
C53   C     C_3   0.150162 0.818654 0.890994 -0.562320
C54   C     C_3   0.149890 0.181206 0.891109 -0.564159
C55   C     C_3   0.650142 0.318681 0.891042 -0.562955
C56   C     C_3   0.649910 0.681216 0.891096 -0.563279
C57   C     C_3   0.252519 0.819620 0.999438 0.201270
C58   C     C_3   0.252264 0.180313 0.999578 0.202789
C59   C     C_3   0.752525 0.319622 0.999455 0.201555
C60   C     C_3   0.752271 0.680316 0.999585 0.202811
C61   C     C_3   0.659268 0.236675 0.002292 -0.007264
C62   C     C_3   0.658531 0.763077 0.002511 -0.007262
C63   C     C_3   0.159257 0.736676 0.002277 -0.007223
C64   C     C_3   0.158534 0.263072 0.002536 -0.007628
C65   C     C_3   0.747727 0.216192 0.011024 -0.491523
C66   C     C_3   0.746941 0.783695 0.011324 -0.490111
C67   C     C_3   0.247763 0.716201 0.011122 -0.491677
C68   C     C_3   0.247062 0.283685 0.011598 -0.490373
C69   C     C_3   0.594968 0.269966 0.892834 0.614756
C70   C     C_3   0.594415 0.729780 0.892996 0.613193
C71   C     C_3   0.094995 0.769934 0.892783 0.614629
C72   C     C_3   0.094474 0.229847 0.892917 0.613756
C73   C     C_3   0.628922 0.047861 0.647774 -0.339376
C74   C     C_3   0.611350 0.945428 0.634286 -0.314338
C75   C     C_3   0.128931 0.547875 0.647773 -0.339412
C76   C     C_3   0.111416 0.445440 0.634331 -0.314269
C77   C     C_R   0.551334 0.045498 0.305701 -0.143445
C78   C     C_R   0.551118 0.954243 0.305168 -0.136443
C79   C     C_R   0.051353 0.545498 0.305709 -0.143337
C80   C     C_R   0.051138 0.454244 0.305179 -0.136556
C81   C     C_3   0.626573 0.050669 0.543538 -0.429688
C82   C     C_3   0.624346 0.947774 0.541597 -0.456814
C83   C     C_3   0.126570 0.550685 0.543530 -0.429699
C84   C     C_3   0.124417 0.447789 0.541645 -0.456817
C85   C     C_3   0.464089 0.005168 0.527073 -0.382667
C86   C     C_3   0.964121 0.505153 0.527092 -0.382740
C87   C     C_3   0.564931 0.999637 0.636934 0.418030
C88   C     C_3   0.064965 0.499641 0.636955 0.418049
C89   C     C_3   0.573688 0.999653 0.469738 0.372657
C90   C     C_3   0.073721 0.499654 0.469757 0.372660
C91   C     C_3   0.468788 0.000548 0.429387 -0.411341
C92   C     C_3   0.968820 0.500524 0.429407 -0.411320
C93   C     C_R   0.239386 0.954069 0.696975 -0.070227
C94   C     C_R   0.239373 0.046012 0.697162 -0.072469
C95   C     C_R   0.739379 0.454044 0.697026 -0.071524
C96   C     C_R   0.739365 0.545987 0.697118 -0.071157
C97   C     C_R   0.311236 0.137043 0.999079 0.072829
C98   C     C_R   0.311261 0.862989 0.999001 0.073740
C99   C     C_R   0.811244 0.637047 0.999089 0.072728
C100  C     C_R   0.811265 0.362990 0.999012 0.073535
C101  C     C_R   0.569696 0.999766 0.369455 0.015398
C102  C     C_R   0.069725 0.499767 0.369470 0.015370
C103  C     C_R   0.189542 0.000072 0.638388 0.085204
C104  C     C_R   0.689527 0.500029 0.638394 0.085174
C105  C     C_R   0.519293 0.045679 0.750937 0.636735
C106  C     C_R   0.520782 0.954295 0.752882 0.641035
C107  C     C_R   0.019303 0.545683 0.750938 0.636609
C108  C     C_R   0.020800 0.454298 0.752893 0.641045
C109  C     C_R   0.768851 0.953817 0.244965 -0.118330
C110  C     C_R   0.768868 0.046061 0.244809 -0.122098
C111  C     C_R   0.268851 0.453836 0.244890 -0.118936
C112  C     C_R   0.268856 0.546078 0.244812 -0.121455
H1    H     H_    0.251582 0.131597 0.821190 0.131432
H2    H     H_    0.251569 0.868507 0.821104 0.131679
H3    H     H_    0.751563 0.631582 0.821191 0.131490
H4    H     H_    0.751576 0.368489 0.821117 0.131720
H5    H     H_    0.982456 0.915792 0.335122 0.153558
H6    H     H_    0.984903 0.080884 0.328461 0.153192
H7    H     H_    0.483097 0.416550 0.333427 0.153407
H8    H     H_    0.484283 0.581709 0.330071 0.153248
H9    H     H_    0.125348 0.996923 0.395779 0.175586
H10   H     H_    0.625377 0.498410 0.395742 0.175567
H11   H     H_    0.128754 0.790289 0.096457 0.070953
H12   H     H_    0.128007 0.209167 0.096161 0.071414
H13   H     H_    0.628900 0.290247 0.096666 0.070870
H14   H     H_    0.628318 0.709317 0.096614 0.071303
H15   H     H_    0.876292 0.264175 0.090913 0.192671
H16   H     H_    0.875750 0.735877 0.091306 0.192405
H17   H     H_    0.376308 0.764196 0.090983 0.192570
H18   H     H_    0.375822 0.235842 0.091140 0.192262
H19   H     H_    0.795048 0.191542 0.087550 0.237599
H20   H     H_    0.794126 0.808373 0.087863 0.237021
H21   H     H_    0.295068 0.691586 0.087694 0.237535
H22   H     H_    0.294297 0.308213 0.088355 0.237149
H23   H     H_    0.151014 0.813573 0.817968 0.173015
H24   H     H_    0.150721 0.186335 0.818091 0.173490
H25   H     H_    0.650949 0.313614 0.817981 0.173164
H26   H     H_    0.650795 0.686446 0.818135 0.173272
H27   H     H_    0.431114 0.867856 0.177256 0.105861
H28   H     H_    0.431092 0.132055 0.177370 0.106106
H29   H     H_    0.931128 0.367858 0.177264 0.105912
H30   H     H_    0.931112 0.632070 0.177377 0.106097
H31   H     H_    0.113195 0.858065 0.880634 0.230999
H32   H     H_    0.113100 0.141746 0.880705 0.229836
H33   H     H_    0.613204 0.358097 0.880737 0.230743
H34   H     H_    0.613157 0.641724 0.880555 0.230116
H35   H     H_    0.573060 0.243941 0.820586 0.141311
H36   H     H_    0.572256 0.755869 0.820792 0.141483
H37   H     H_    0.073155 0.743888 0.820591 0.141182
H38   H     H_    0.072578 0.255976 0.820839 0.141332
H39   H     H_    0.810956 0.259670 0.943700 0.193829
H40   H     H_    0.810567 0.740419 0.944135 0.194242
H41   H     H_    0.311001 0.759653 0.943783 0.193824
H42   H     H_    0.310329 0.240448 0.943928 0.194364
H43   H     H_    0.725756 0.188920 0.939917 0.174839
H44   H     H_    0.724870 0.810972 0.940258 0.178408
H45   H     H_    0.225859 0.688896 0.940086 0.174844
H46   H     H_    0.225146 0.311108 0.940765 0.178421
H47   H     H_    0.606009 0.088355 0.657597 0.238182
H48   H     H_    0.564667 0.909669 0.615225 0.242340
H49   H     H_    0.106007 0.588366 0.657590 0.238165
H50   H     H_    0.064754 0.409672 0.615285 0.242391
H51   H     H_    0.589377 0.089104 0.498258 0.175523
H52   H     H_    0.594655 0.909316 0.492847 0.170392
H53   H     H_    0.089338 0.589110 0.498231 0.175469
H54   H     H_    0.094761 0.409323 0.492913 0.170476
H55   H     H_    0.432340 0.045589 0.523571 0.205963
H56   H     H_    0.415829 0.972631 0.520236 0.173329
H57   H     H_    0.932355 0.545572 0.523568 0.205866
H58   H     H_    0.915875 0.472612 0.520272 0.173419
H59   H     H_    0.564648 0.087934 0.331947 0.105961
H60   H     H_    0.564418 0.911683 0.330155 0.104133
H61   H     H_    0.064669 0.587934 0.331952 0.105937
H62   H     H_    0.064436 0.411684 0.330168 0.104212
H63   H     H_    0.429710 0.035846 0.372653 0.168655
H64   H     H_    0.431956 0.962245 0.382553 0.173001
H65   H     H_    0.929709 0.535808 0.372642 0.168602
H66   H     H_    0.932020 0.462207 0.382607 0.173044
H67   H     H_    0.225463 0.912193 0.667055 0.158650
H68   H     H_    0.225665 0.087890 0.667382 0.163923
H69   H     H_    0.725512 0.412164 0.667141 0.159926
H70   H     H_    0.725595 0.587861 0.667300 0.162674
H71   H     H_    0.688050 0.164834 0.178335 0.223437
H72   H     H_    0.687667 0.835185 0.178492 0.223977
H73   H     H_    0.188059 0.664839 0.178329 0.223428
H74   H     H_    0.187708 0.335203 0.178511 0.224181
H75   H     H_    0.899939 0.003048 0.492040 0.176515
H76   H     H_    0.399883 0.501540 0.492027 0.176504
N1    N     N_R   0.392450 0.103580 0.942190 -0.043711
N2    N     N_R   0.392450 0.896420 0.942190 -0.044763
N3    N     N_R   0.892450 0.603580 0.942190 -0.043760
N4    N     N_R   0.892450 0.396420 0.942190 -0.044712
N5    N     N_R   0.450490 0.896000 0.057360 -0.045225
N6    N     N_R   0.450490 0.104000 0.057360 -0.044630
N7    N     N_R   0.950490 0.396000 0.057360 -0.045204
N8    N     N_R   0.950490 0.604000 0.057360 -0.044629
N9    N     N_R   0.525490 0.028390 0.207550 -0.036074
N10   N     N_R   0.525490 0.971610 0.207550 -0.036655
N11   N     N_R   0.025490 0.528390 0.207550 -0.036087
N12   N     N_R   0.025490 0.471610 0.207550 -0.036660
N13   N     N_R   0.317450 0.971190 0.792000 -0.065694
N14   N     N_R   0.317450 0.028810 0.792000 -0.065527
N15   N     N_R   0.817450 0.471190 0.792000 -0.065713
N16   N     N_R   0.817450 0.528810 0.792000 -0.065520
N17   N     N_R   0.473900 0.028390 0.792280 -0.138885
N18   N     N_R   0.473900 0.971610 0.792280 -0.139722
N19   N     N_R   0.973900 0.528390 0.792280 -0.138915
N20   N     N_R   0.973900 0.471610 0.792280 -0.139690
N21   N     N_R   0.682310 0.971180 0.208170 -0.044188
N22   N     N_R   0.682310 0.028820 0.208170 -0.044141
N23   N     N_R   0.182310 0.471180 0.208170 -0.044184
N24   N     N_R   0.182310 0.528820 0.208170 -0.044132
N25   N     N_R   0.606470 0.103570 0.057210 -0.097986
N26   N     N_R   0.606470 0.896430 0.057210 -0.098415
N27   N     N_R   0.106470 0.603570 0.057210 -0.097977
N28   N     N_R   0.106470 0.396430 0.057210 -0.098462
N29   N     N_R   0.549740 0.896000 0.943240 -0.117938
N30   N     N_R   0.549740 0.104000 0.943240 -0.120623
N31   N     N_R   0.049740 0.396000 0.943240 -0.118019
N32   N     N_R   0.049740 0.604000 0.943240 -0.120628
Ni1   Ni    Ni4+2 0.433780 0.065390 0.868430 0.287305
Ni2   Ni    Ni4+2 0.433780 0.934610 0.868430 0.285376
Ni3   Ni    Ni4+2 0.933780 0.565390 0.868430 0.287164
Ni4   Ni    Ni4+2 0.933780 0.434610 0.868430 0.285505
Ni5   Ni    Ni4+2 0.565800 0.934190 0.131570 0.210334
Ni6   Ni    Ni4+2 0.565800 0.065810 0.131570 0.210302
Ni7   Ni    Ni4+2 0.065800 0.434190 0.131570 0.210403
Ni8   Ni    Ni4+2 0.065800 0.565810 0.131570 0.210323
F1    F     F_    0.036962 0.911172 0.565325 -0.693155
F2    F     F_    0.039560 0.092522 0.557971 -0.693338
F3    F     F_    0.537598 0.410220 0.563505 -0.693178
F4    F     F_    0.538858 0.591640 0.559801 -0.693408
H77   H     H_    0.314577 0.830208 0.176516 0.207838
H78   H     H_    0.314441 0.169828 0.176664 0.208176
H79   H     H_    0.814652 0.330193 0.176563 0.207869
H80   H     H_    0.814370 0.669707 0.176640 0.207952
H81   H     H_    0.203685 0.864640 0.084713 0.146083
H82   H     H_    0.203879 0.135074 0.084969 0.146084
H83   H     H_    0.703740 0.364616 0.084811 0.146081
H84   H     H_    0.703662 0.635136 0.084795 0.146211
F5    F     F_    0.753809 0.250484 0.201772 -0.709629
F6    F     F_    0.752922 0.749243 0.201923 -0.709627
F7    F     F_    0.253622 0.750539 0.201707 -0.709918
F8    F     F_    0.252483 0.249129 0.201913 -0.709363
F9    F     F_    0.013732 0.788455 0.880292 -0.666912
F10   F     F_    0.013217 0.211207 0.880227 -0.667834
F11   F     F_    0.513745 0.288495 0.880439 -0.667001
F12   F     F_    0.513358 0.711033 0.880642 -0.668094
H85   H     H_    0.703280 0.041445 0.721903 0.160257
H86   H     H_    0.680947 0.938129 0.715195 0.171199
H87   H     H_    0.203295 0.541469 0.721898 0.160298
H88   H     H_    0.181016 0.438154 0.715245 0.171164
H89   H     H_    0.700378 0.052598 0.567301 0.179694
H90   H     H_    0.701415 0.948922 0.577334 0.189161
H91   H     H_    0.200371 0.552635 0.567284 0.179804
H92   H     H_    0.201487 0.448958 0.577387 0.189053
F13   F     F_    0.516581 0.098303 0.720453 -0.685858
F14   F     F_    0.526580 0.900925 0.732872 -0.695383
F15   F     F_    0.016580 0.598308 0.720439 -0.685935
F16   F     F_    0.026613 0.400927 0.732889 -0.695321
H93   H     H_    0.792222 0.911508 0.260763 0.130993
H94   H     H_    0.792335 0.088343 0.260572 0.132945
H95   H     H_    0.292249 0.411532 0.260667 0.131356
H96   H     H_    0.292302 0.588363 0.260587 0.132431
F17   F     F_    0.478228 0.826064 0.810316 -0.647543
F18   F     F_    0.479779 0.173520 0.809593 -0.643163
F19   F     F_    0.978249 0.326056 0.810322 -0.647114
F20   F     F_    0.979767 0.673520 0.809592 -0.643207

loop_
_geom_bond_atom_site_label_1
_geom_bond_atom_site_label_2
_ccdc_geom_bond_type
C16   C28   S    
C54   H32   S    
N15   N16   A    
N8    Ni8   S    
C53   C71   S    
N19   Ni3   S    
C55   C59   S    
C43   C59   S    
C27   C29   S    
C86   H57   S    
N22   Ni6   S    
N13   N14   A    
C4    N4    A    
C77   C101  A    
C68   H22   S    
N14   Ni1   S    
N28   N31   A    
C108  N20   A    
C60   C99   S    
C76   C84   S    
C12   F20   S    
C42   H82   S    
C41   H81   S    
N17   N18   A    
C2    C98   A    
C5    H71   S    
C83   H53   S    
C16   C112  A    
C33   C39   S    
C82   C89   S    
C1    H1    S    
C46   C62   S    
C34   C40   S    
C64   C68   S    
C67   H21   S    
C24   C26   S    
N2    Ni2   S    
C47   C63   S    
C17   C61   S    
C55   H33   S    
C5    C17   A    
C22   C39   S    
C10   C17   A    
C95   N15   A    
C23   C40   S    
C80   N12   A    
C29   C33   S    
N18   Ni2   S    
C62   C70   S    
N5    Ni5   S    
C107  F15   S    
N27   Ni8   S    
C23   C26   S    
C72   F10   S    
C83   C90   S    
N26   Ni5   S    
C79   H61   S    
N3    N8    A    
C73   C87   S    
C7    C19   A    
N25   Ni6   S    
C25   H75   S    
N2    N5    A    
C35   H27   S    
N31   Ni4   S    
C49   C65   S    
C76   H50   S    
N1    N6    A    
C69   F11   S    
N15   Ni4   S    
C90   C102  S    
C19   C63   S    
C22   C25   S    
C6    N26   A    
C84   H92   S    
C105  F13   S    
C43   H79   S    
C79   C102  A    
C11   F19   S    
C36   C97   A    
C51   C57   S    
C74   C87   S    
C89   C91   S    
C35   C98   A    
C93   N13   A    
N11   Ni8   S    
C76   C88   S    
C11   N31   A    
C107  N19   A    
C52   C68   S    
N10   Ni5   S    
C48   F8    S    
C82   H90   S    
C81   C89   S    
N9    Ni6   S    
C14   C108  A    
C5    N25   A    
N11   N12   A    
C34   H10   S    
C50   H40   S    
N23   Ni7   S    
C27   C30   S    
C33   H9    S    
C59   C100  S    
C81   H51   S    
C15   C110  A    
C42   C58   S    
C110  N22   A    
C58   C97   S    
C84   C90   S    
N13   Ni2   S    
C74   C82   S    
C75   H87   S    
C44   H84   S    
C73   C81   S    
C65   H19   S    
C4    H4    S    
C96   N16   A    
N3    Ni3   S    
C73   H85   S    
C85   C87   S    
C85   C91   S    
C15   C27   S    
C49   H15   S    
C6    C18   A    
C63   C67   S    
C11   C20   A    
N28   Ni7   S    
C79   N11   A    
C49   H39   S    
C86   C88   S    
C26   H76   S    
N19   N20   A    
C85   H55   S    
N4    N7    A    
C50   H16   S    
C28   C32   S    
N4    Ni4   S    
C13   C105  A    
C1    C97   A    
C62   C66   S    
C18   C62   S    
C42   C48   S    
C44   C46   S    
C6    H72   S    
C8    H74   S    
C32   C34   S    
C45   F5    S    
C29   H5    S    
C51   H17   S    
C46   H14   S    
C56   C60   S    
C83   H91   S    
C53   H31   S    
N12   Ni7   S    
C23   C31   S    
C20   C64   S    
C78   C101  A    
C24   C32   S    
C48   H12   S    
C22   C30   S    
C3    N3    A    
C40   C104  S    
C56   H26   S    
C9    C18   A    
C90   C92   S    
N23   N24   A    
C22   F2    S    
C7    N27   A    
C21   F1    S    
C77   H59   S    
C77   N9    A    
C54   H24   S    
C13   C87   S    
C78   H60   S    
N21   N22   A    
C41   C47   S    
C31   C34   S    
C91   H63   S    
C67   H45   S    
C51   C67   S    
C105  N17   A    
C43   C45   S    
C36   H28   S    
C111  H95   S    
C55   C69   S    
C2    H2    S    
C52   C58   S    
C112  H96   S    
C94   N14   A    
C92   H66   S    
C94   H68   S    
C14   C107  A    
C8    C20   A    
C63   C71   S    
C94   C103  A    
C50   C60   S    
C56   C70   S    
C15   C109  A    
C4    C100  A    
N16   Ni3   S    
C9    F17   S    
C43   H83   S    
C53   H23   S    
C108  F16   S    
C25   C27   S    
C46   F6    S    
C48   C64   S    
C109  H93   S    
C76   H88   S    
C112  N24   A    
C13   C106  A    
N17   Ni1   S    
C95   C104  A    
C10   N30   A    
N30   Ni1   S    
C54   C58   S    
C9    N29   A    
N29   Ni2   S    
C96   C104  A    
C21   C25   S    
C24   F4    S    
C51   H41   S    
C53   C57   S    
C10   F18   S    
C30   C33   S    
C89   C101  S    
C37   H29   S    
C86   H58   S    
C85   H56   S    
C26   C28   S    
C21   C39   S    
C7    H73   S    
C28   C31   S    
C95   H69   S    
C2    N2    A    
C96   H70   S    
C38   C99   A    
C8    N28   A    
N26   N29   A    
C49   C59   S    
C21   C29   S    
C106  N18   A    
N25   N30   A    
C50   C66   S    
C39   C103  S    
C47   H11   S    
C31   H7    S    
N7    Ni7   S    
N20   Ni4   S    
C30   H6    S    
C73   H47   S    
C70   H36   S    
C72   H38   S    
C55   H25   S    
C66   H20   S    
C74   H48   S    
C75   H49   S    
C61   C69   S    
N6    Ni6   S    
C36   N6    A    
C44   H80   S    
C66   H44   S    
C74   H86   S    
C41   C57   S    
N21   Ni5   S    
C3    H3    S    
N27   N32   A    
C47   F7    S    
C52   H18   S    
C42   H78   S    
C75   C83   S    
C71   H37   S    
C41   H77   S    
C44   C60   S    
C69   H35   S    
C57   C98   S    
C12   C19   A    
C45   C61   S    
C68   H46   S    
C38   N8    A    
C91   H64   S    
C38   H30   S    
N1    Ni1   S    
C45   H13   S    
C37   N7    A    
C61   C65   S    
C56   H34   S    
N9    N10   A    
C111  N23   A    
C110  H94   S    
C64   C72   S    
C84   H54   S    
C92   H65   S    
C35   N5    A    
C14   C88   S    
N24   Ni8   S    
C82   H52   S    
C3    C99   A    
C75   C88   S    
C93   H67   S    
C54   C72   S    
C24   C40   S    
C65   H43   S    
C80   C102  A    
C106  F14   S    
C71   F9    S    
C80   H62   S    
C86   C92   S    
C78   N10   A    
C81   H89   S    
C32   H8    S    
C52   H42   S    
C12   N32   A    
N32   Ni3   S    
C23   F3    S    
C37   C100  A    
C16   C111  A    
C70   F12   S    
C93   C103  A    
C109  N21   A    
C1    N1    A    
