data_mof_unit_1487.cif
_audit_creation_date              2012-12-10T17:03:51-0500
_audit_creation_method            fapswitch 2.2
_symmetry_space_group_name_H-M    P1
_symmetry_Int_Tables_number       1
_space_group_crystal_system       triclinic
_cell_length_a                    18.904473
_cell_length_b                    18.656989
_cell_length_c                    18.711643
_cell_angle_alpha                 109.504446
_cell_angle_beta                  109.687781
_cell_angle_gamma                 109.177512
_cell_volume                      5083.05407612

loop_
_atom_site_label
_atom_site_type_symbol
_atom_type_description
_atom_site_fract_x
_atom_site_fract_y
_atom_site_fract_z
_atom_type_partial_charge
C1    C     C_R   0.999668 0.119356 0.620189 1.015960
C2    C     C_R   0.282476 0.259123 0.668969 0.503662
C3    C     C_3   0.316537 0.589579 0.564305 -0.316641
C4    C     C_3   0.307852 0.635534 0.642691 -1.018103
C5    C     C_3   0.937037 0.341520 0.310099 -0.774453
C6    C     C_3   0.107371 0.618550 0.335215 -0.822532
C7    C     C_3   0.044910 0.118931 0.111764 0.087750
C8    C     C_3   0.033571 0.142698 0.039410 -0.332142
C9    C     C_3   0.119803 0.192784 0.045951 -0.800120
C10   C     C_3   0.294059 0.241818 0.265884 -0.701905
C11   C     C_3   0.477428 0.528099 0.733365 -0.641984
C12   C     C_3   0.533258 0.448053 0.892002 -0.798536
C13   C     C_R   0.886621 0.068997 0.691495 0.458793
C14   C     C_3   0.235389 0.242173 0.769303 0.114416
C15   C     C_3   0.248857 0.167725 0.778319 -0.331072
C16   C     C_3   0.282633 0.186543 0.872648 -1.006380
C17   C     C_R   0.120312 0.122841 0.503212 0.934742
C18   C     C_R   0.812089 0.044187 0.699027 -0.251277
C19   C     C_R   0.789438 0.106177 0.732044 -0.225521
C20   C     C_R   0.843649 0.194155 0.762938 -0.157566
C21   C     C_R   0.920960 0.221318 0.759150 0.059276
C22   C     C_R   0.935352 0.156575 0.712018 -0.007321
C23   C     C_R   0.997251 0.182339 0.686504 -0.110330
C24   C     C_R   0.049300 0.269779 0.714318 -0.261420
C25   C     C_R   0.176719 0.181150 0.423447 0.016916
C26   C     C_R   0.046010 0.333924 0.773942 -0.196410
C27   C     C_R   0.984381 0.310735 0.799477 -0.104065
C28   C     C_R   0.884039 0.705603 0.473634 0.319776
C29   C     C_R   0.001702 0.881795 0.380022 0.888341
C30   C     C_R   0.868744 0.618881 0.449250 0.431574
C31   C     C_R   0.815798 0.568276 0.469686 -0.269546
C32   C     C_R   0.765924 0.595327 0.498663 -0.269261
C33   C     C_R   0.761085 0.669414 0.499025 0.049257
C34   C     C_R   0.823008 0.728284 0.489993 -0.075859
C35   C     C_R   0.818174 0.804774 0.495133 -0.085389
C36   C     C_R   0.315784 0.313520 0.501579 -0.153700
C37   C     C_R   0.754362 0.819913 0.507212 -0.190021
C38   C     C_R   0.693761 0.761127 0.513742 -0.250675
C39   C     C_R   0.695485 0.685603 0.508125 -0.083568
C40   C     C_R   0.161175 0.917542 0.375981 -0.269431
C41   C     C_R   0.881021 0.873962 0.494639 1.026956
C42   C     C_R   0.239110 0.930275 0.378855 -0.236956
C43   C     C_R   0.243547 0.860627 0.325746 0.557853
C44   C     C_R   0.169176 0.778250 0.269226 -0.288799
C45   C     C_R   0.088089 0.766029 0.260181 0.024447
C46   C     C_R   0.085190 0.834771 0.317933 0.083590
C47   C     C_R   0.334342 0.314602 0.583773 -0.099172
C48   C     C_R   0.005698 0.819051 0.314863 -0.072540
C49   C     C_R   0.930061 0.739169 0.254161 -0.224083
C50   C     C_R   0.931879 0.673265 0.194934 -0.267697
C51   C     C_R   0.009532 0.686708 0.195970 -0.100651
C52   C     C_R   0.621794 0.501468 0.619866 0.870310
C53   C     C_R   0.105555 0.106373 0.343215 -0.213539
C54   C     C_R   0.380399 0.379694 0.500358 1.011007
C55   C     C_R   0.375771 0.495942 0.380482 1.034080
C56   C     C_R   0.623180 0.620324 0.503022 0.856784
C57   C     C_R   0.880918 0.506785 0.886209 0.979172
C58   C     C_R   0.267225 0.254053 0.585834 -0.047762
C59   C     C_R   0.993746 0.379385 0.874069 0.875571
C60   C     C_R   0.119634 0.503271 0.123752 0.936322
C61   C     C_R   0.004264 0.620104 0.124214 0.925358
C62   C     C_R   0.778378 0.664927 0.747587 -0.179492
C63   C     C_R   0.848498 0.747069 0.814918 0.236375
C64   C     C_R   0.907580 0.752496 0.887647 -0.347824
C65   C     C_R   0.075245 0.110209 0.267327 -0.306262
C66   C     C_R   0.894137 0.678644 0.898938 0.484297
C67   C     C_R   0.826980 0.593512 0.826481 0.004962
C68   C     C_R   0.765780 0.588426 0.753219 -0.070415
C69   C     C_R   0.188677 0.188727 0.504891 -0.156190
C70   C     C_R   0.693244 0.506232 0.685323 -0.181662
C71   C     C_R   0.686973 0.428149 0.681690 0.465048
C72   C     C_R   0.748596 0.432112 0.750602 -0.315815
C73   C     C_R   0.816641 0.512649 0.823204 -0.162231
C74   C     C_R   0.201694 0.445071 0.368106 0.428188
C75   C     C_R   0.113605 0.405035 0.343307 -0.266033
C76   C     C_R   0.057546 0.424021 0.292292 0.175016
C77   C     C_R   0.124644 0.182167 0.264478 0.482925
C78   C     C_R   0.090787 0.477469 0.260572 0.166795
C79   C     C_R   0.166957 0.487264 0.256727 -0.004452
C80   C     C_R   0.417430 0.372059 0.664749 0.109552
C81   C     C_R   0.226653 0.476150 0.315314 -0.114395
C82   C     C_R   0.306779 0.494923 0.316371 -0.212945
C83   C     C_R   0.324542 0.518887 0.258279 0.444526
C84   C     C_R   0.261997 0.522126 0.196735 -0.315622
C85   C     C_R   0.184730 0.507712 0.196037 -0.130828
C86   C     C_R   0.209143 0.243987 0.336160 0.153633
C87   C     C_R   0.235667 0.247798 0.420673 -0.017503
C88   C     C_3   0.940765 0.984862 0.729135 0.069112
C89   C     C_3   0.039400 0.027426 0.776036 -0.303957
C90   C     C_3   0.072390 0.998292 0.841255 -1.026550
C91   C     C_R   0.435565 0.353488 0.733359 0.165802
C92   C     C_3   0.033702 0.777214 0.532915 0.159948
C93   C     C_3   0.068402 0.843870 0.628453 -0.358084
C94   C     C_3   0.143156 0.842558 0.692238 -1.012979
C95   C     C_3   0.880096 0.570886 0.325682 0.116702
C96   C     C_3   0.801816 0.478799 0.260354 -0.378351
C97   C     C_3   0.773104 0.458587 0.166028 -0.973261
C98   C     C_3   0.338435 0.909903 0.280796 0.062806
C99   C     C_3   0.305092 0.838413 0.188117 -0.346071
C100  C     C_3   0.323438 0.877943 0.132655 -0.972031
C101  C     C_3   0.554738 0.307138 0.617835 0.069492
C102  C     C_R   0.368567 0.296264 0.734132 -0.360931
C103  C     C_3   0.521887 0.208818 0.576534 -0.312684
C104  C     C_3   0.445700 0.162824 0.586789 -0.982439
C105  C     C_3   0.790952 0.826181 0.749069 -0.811779
C106  C     C_3   0.968110 0.766395 0.052325 0.089157
C107  C     C_3   0.064686 0.832230 0.096644 -0.323686
C108  C     C_3   0.088512 0.922092 0.164539 -0.982526
C109  C     C_3   0.452034 0.617683 0.281078 0.069317
C110  C     C_3   0.533575 0.627641 0.276263 -0.304519
C111  C     C_3   0.587883 0.718760 0.292706 -0.954551
C112  C     C_3   0.257659 0.489976 0.516188 0.122386
H1    H     H_    0.385487 0.288771 0.791120 0.167655
H2    H     H_    0.643523 0.773407 0.520500 0.161640
H3    H     H_    0.238451 0.189270 0.199889 0.219088
H4    H     H_    0.322702 0.211352 0.300010 0.230336
H5    H     H_    0.543070 0.461800 0.710891 0.220869
H6    H     H_    0.520296 0.586591 0.734951 0.234926
H7    H     H_    0.499552 0.542297 0.801837 0.215956
H8    H     H_    0.410424 0.517102 0.703259 0.215942
H9    H     H_    0.550470 0.361593 0.805690 0.218239
H10   H     H_    0.602286 0.499487 0.937554 0.244268
H11   H     H_    0.515983 0.403688 0.918230 0.228419
H12   H     H_    0.492967 0.480093 0.889398 0.244132
H13   H     H_    0.869559 0.727680 0.253140 0.152163
H14   H     H_    0.180798 0.239805 0.780080 0.162666
H15   H     H_    0.290246 0.308712 0.822137 0.118948
H16   H     H_    0.187082 0.104911 0.735618 0.233532
H17   H     H_    0.294396 0.157472 0.756881 0.203460
H18   H     H_    0.346982 0.247030 0.916551 0.269625
H19   H     H_    0.289425 0.130959 0.876841 0.267385
H20   H     H_    0.236872 0.194828 0.894931 0.271016
H21   H     H_    0.160750 0.973405 0.418178 0.161994
H22   H     H_    0.296316 0.994256 0.422685 0.154393
H23   H     H_    0.176099 0.724756 0.232916 0.175634
H24   H     H_    0.871659 0.612714 0.145905 0.175741
H25   H     H_    0.735470 0.660477 0.688995 0.164601
H26   H     H_    0.013486 0.056478 0.211674 0.142390
H27   H     H_    0.961837 0.816807 0.938327 0.144621
H28   H     H_    0.744220 0.371071 0.745898 0.168876
H29   H     H_    0.771828 0.976572 0.679046 0.148725
H30   H     H_    0.092207 0.366060 0.371213 0.160774
H31   H     H_    0.272870 0.533158 0.147115 0.169943
H32   H     H_    0.094612 0.288466 0.691871 0.169379
H33   H     H_    0.912466 0.912593 0.695456 0.178965
H34   H     H_    0.920875 0.002595 0.779310 0.124977
H35   H     H_    0.059930 0.008372 0.727186 0.246235
H36   H     H_    0.068782 0.099882 0.811103 0.214687
H37   H     H_    0.052781 0.015887 0.891276 0.269143
H38   H     H_    0.144136 0.031312 0.874840 0.275154
H39   H     H_    0.046114 0.926305 0.806682 0.270168
H40   H     H_    0.730603 0.086336 0.735480 0.158091
H41   H     H_    0.081450 0.803003 0.513435 0.161033
H42   H     H_    0.032544 0.716356 0.529332 0.170319
H43   H     H_    0.092920 0.910782 0.637413 0.232853
H44   H     H_    0.016053 0.829400 0.645006 0.227199
H45   H     H_    0.120784 0.777561 0.688119 0.276701
H46   H     H_    0.168211 0.893304 0.760204 0.274548
H47   H     H_    0.196519 0.856768 0.677138 0.266682
H48   H     H_    0.932915 0.576137 0.310649 0.180807
H49   H     H_    0.863834 0.620744 0.316916 0.145620
H50   H     H_    0.818852 0.429763 0.269634 0.240792
H51   H     H_    0.821981 0.239337 0.785892 0.166757
H52   H     H_    0.747139 0.473355 0.272494 0.220110
H53   H     H_    0.753615 0.505602 0.154704 0.262465
H54   H     H_    0.716776 0.391291 0.120368 0.266665
H55   H     H_    0.826430 0.462571 0.151937 0.266800
H56   H     H_    0.409754 0.951060 0.312924 0.169285
H57   H     H_    0.311502 0.954626 0.277845 0.123325
H58   H     H_    0.336959 0.798195 0.192127 0.227326
H59   H     H_    0.234190 0.794725 0.155305 0.216773
H60   H     H_    0.290147 0.916536 0.126024 0.263892
H61   H     H_    0.299052 0.824638 0.066257 0.264181
H62   H     H_    0.092353 0.401716 0.800466 0.171430
H63   H     H_    0.394176 0.921110 0.163142 0.265832
H64   H     H_    0.501984 0.317646 0.583206 0.158498
H65   H     H_    0.571326 0.332884 0.687614 0.113152
H66   H     H_    0.501193 0.180281 0.505698 0.226338
H67   H     H_    0.575177 0.197689 0.608964 0.221202
H68   H     H_    0.464122 0.192072 0.657026 0.264297
H69   H     H_    0.426496 0.092521 0.560723 0.268478
H70   H     H_    0.389605 0.168376 0.550155 0.268424
H71   H     H_    0.921381 0.875628 0.842202 0.219663
H72   H     H_    0.788814 0.797738 0.685678 0.249180
H73   H     H_    0.751460 0.878287 0.511861 0.175225
H74   H     H_    0.804009 0.894294 0.769333 0.223160
H75   H     H_    0.727467 0.788824 0.742438 0.260366
H76   H     H_    0.956232 0.749719 0.099790 0.166135
H77   H     H_    0.926924 0.796418 0.037381 0.120411
H78   H     H_    0.082034 0.839082 0.047296 0.215102
H79   H     H_    0.103811 0.807885 0.129145 0.237255
H80   H     H_    0.055441 0.950585 0.131587 0.250415
H81   H     H_    0.159560 0.966525 0.199624 0.265997
H82   H     H_    0.068892 0.916833 0.212975 0.275817
H83   H     H_    0.471379 0.662401 0.349595 0.132468
H84   H     H_    0.811814 0.506458 0.461119 0.183056
H85   H     H_    0.417576 0.636973 0.236448 0.142579
H86   H     H_    0.572826 0.615889 0.325649 0.234480
H87   H     H_    0.515030 0.577997 0.210302 0.227006
H88   H     H_    0.552607 0.727830 0.238545 0.259103
H89   H     H_    0.649904 0.726418 0.296059 0.271435
H90   H     H_    0.602210 0.770092 0.355395 0.268605
H91   H     H_    0.280542 0.465188 0.560357 0.163472
H92   H     H_    0.191743 0.474862 0.505306 0.114090
H93   H     H_    0.385035 0.605673 0.588500 0.245923
H94   H     H_    0.299360 0.614781 0.518726 0.218621
H95   H     H_    0.728682 0.555176 0.517142 0.190795
H96   H     H_    0.240492 0.623155 0.620627 0.275972
H97   H     H_    0.352232 0.707260 0.676907 0.269618
H98   H     H_    0.325159 0.611730 0.689521 0.261717
H99   H     H_    0.927109 0.384289 0.219239 0.215548
H100  H     H_    0.870282 0.328339 0.293747 0.230441
H101  H     H_    0.976740 0.373876 0.382476 0.246765
H102  H     H_    0.934477 0.278020 0.277925 0.240974
H103  H     H_    0.995024 0.510770 0.225065 0.235610
H104  H     H_    0.077503 0.659741 0.329397 0.245697
H105  H     H_    0.176048 0.655110 0.353213 0.254736
H106  H     H_    0.069213 0.044945 0.338441 0.174971
H107  H     H_    0.104459 0.605952 0.388500 0.253151
H108  H     H_    0.979052 0.080870 0.100127 0.106223
H109  H     H_    0.076185 0.077591 0.106762 0.119017
H110  H     H_    0.990587 0.081576 0.974589 0.160882
H111  H     H_    0.001728 0.183365 0.043474 0.228879
H112  H     H_    0.162261 0.256564 0.108218 0.285111
H113  H     H_    0.107899 0.205699 0.990424 0.235866
H114  H     H_    0.153218 0.153706 0.042796 0.238084
H115  H     H_    0.243295 0.323754 0.286404 0.251364
H116  H     H_    0.343397 0.284554 0.257301 0.245907
N1    N     N_2   0.859006 0.826395 0.814635 -0.311942
N2    N     N_2   0.971896 0.398314 0.279227 -0.294223
N3    N     N_2   0.061069 0.536946 0.253164 -0.297236
N4    N     N_2   0.266954 0.293028 0.316426 -0.255023
N5    N     N_2   0.481267 0.452372 0.683120 -0.268057
N6    N     N_2   0.521403 0.399658 0.806158 -0.309894
O1    O     O_R   0.051710 0.091600 0.643330 -0.630129
O2    O     O_R   0.856640 0.448280 0.908400 -0.647244
O3    O     O_R   0.051720 0.460120 0.908370 -0.625977
O4    O     O_R   0.948270 0.091620 0.539910 -0.621126
O5    O     O_R   0.948290 0.356670 0.908380 -0.631927
O6    O     O_R   0.143340 0.551720 0.091580 -0.642409
O7    O     O_R   0.039910 0.448270 0.091590 -0.617972
O8    O     O_R   0.051690 0.643330 0.091600 -0.620414
O9    O     O_R   0.948270 0.539880 0.091610 -0.643757
O10   O     O_R   0.143340 0.091610 0.551710 -0.603214
O11   O     O_R   0.039890 0.091630 0.448290 -0.636246
O12   O     O_R   0.591640 0.448340 0.539940 -0.589696
O13   O     O_R   0.051730 0.908380 0.460090 -0.618382
O14   O     O_R   0.948290 0.908400 0.356670 -0.643402
O15   O     O_R   0.960110 0.908370 0.551710 -0.598977
O16   O     O_R   0.856660 0.908390 0.448290 -0.638980
O17   O     O_R   0.591600 0.551770 0.643360 -0.641309
O18   O     O_3   0.911660 0.007888 0.664204 -0.669781
O19   O     O_3   0.952892 0.763807 0.474033 -0.651177
O20   O     O_3   0.910797 0.585147 0.412151 -0.662386
O21   O     O_3   0.321590 0.871850 0.331403 -0.654774
O22   O     O_3   0.625154 0.347439 0.607268 -0.625141
O23   O     O_R   0.408370 0.460150 0.551730 -0.595003
O24   O     O_3   0.944428 0.688167 0.979322 -0.638476
O25   O     O_3   0.399888 0.529751 0.256111 -0.635215
O26   O     O_3   0.260446 0.447549 0.438821 -0.654758
O27   O     O_3   0.094881 0.196505 0.194268 -0.633482
O28   O     O_3   0.213053 0.230783 0.684086 -0.647519
O29   O     O_R   0.408410 0.356720 0.448320 -0.621175
O30   O     O_R   0.408360 0.551760 0.460120 -0.625985
O31   O     O_R   0.408400 0.448330 0.356700 -0.596304
O32   O     O_R   0.591600 0.643380 0.551740 -0.640181
O33   O     O_R   0.591640 0.539950 0.448320 -0.620263
O34   O     O_R   0.960070 0.551730 0.908390 -0.580045
Zn1   Zn    Zn3+2 0.069070 0.999990 0.569050 0.919628
Zn2   Zn    Zn3+2 0.930930 0.000010 0.430950 0.953727
Zn3   Zn    Zn3+2 0.499980 0.569110 0.569080 0.906256
Zn4   Zn    Zn3+2 0.500030 0.430990 0.430980 0.966044
Zn5   Zn    Zn3+2 0.069050 0.569070 0.999980 0.953270
Zn6   Zn    Zn3+2 0.930930 0.430930 0.000000 0.921387

loop_
_geom_bond_atom_site_label_1
_geom_bond_atom_site_label_2
_ccdc_geom_bond_type
O7    Zn6   S    
C89   H36   S    
C104  H70   S    
C49   C50   A    
C17   C69   S    
C94   H47   S    
H99   N2    S    
C100  H60   S    
C112  H92   S    
C2    O28   S    
C109  H85   S    
C19   C20   A    
C51   C61   S    
C90   H38   S    
C11   H7    S    
C111  H89   S    
C81   C82   A    
C10   H4    S    
C7    C8    S    
C99   H58   S    
C31   C32   A    
C45   C46   A    
C40   C46   A    
C91   N6    S    
C60   O7    A    
C37   C38   A    
C77   O27   S    
C13   C18   A    
H103  N3    S    
C54   O29   A    
C50   H24   S    
H115  N4    S    
C35   C37   A    
O31   Zn4   S    
C76   C78   A    
C18   C19   A    
O12   Zn4   S    
O32   Zn3   S    
C95   H49   S    
C38   C39   A    
C38   H2    S    
C99   H59   S    
C106  C107  S    
C45   C51   A    
C95   O20   S    
C15   C16   S    
C25   C87   A    
C4    H98   S    
O6    Zn5   S    
C24   H32   S    
C36   C47   A    
C34   C35   A    
C57   C73   S    
O4    Zn2   S    
C16   H19   S    
C110  C111  S    
C14   O28   S    
C9    H114  S    
C98   H57   S    
C37   H73   S    
C95   C96   S    
C57   O34   A    
C8    C9    S    
C55   O31   A    
C41   O16   A    
C107  C108  S    
C30   O20   S    
C83   O25   S    
C92   H41   S    
C67   C73   A    
C17   O11   A    
C56   O32   A    
H71   N1    S    
C103  H67   S    
O1    Zn1   S    
C88   O18   S    
C92   O19   S    
C44   H23   S    
C40   C42   A    
C66   C67   A    
C21   C27   A    
C28   C34   A    
C101  C103  S    
C21   C22   A    
C10   H116  S    
C110  H86   S    
C29   O13   A    
C7    O27   S    
C47   C80   A    
C90   H37   S    
C16   H20   S    
C11   H8    S    
C111  H90   S    
C22   C23   A    
C98   O21   S    
C103  C104  S    
C4    H96   S    
C18   H29   S    
C36   C87   A    
C9    H112  S    
C46   C48   A    
C6    H104  S    
C65   C77   A    
C74   C75   A    
C106  H77   S    
C29   C48   S    
C95   H48   S    
C3    H93   S    
O15   Zn1   S    
C93   H43   S    
C101  O22   S    
C52   C70   S    
C28   O19   S    
C17   O10   A    
C11   N5    S    
O17   Zn3   S    
C79   C81   A    
C78   C79   A    
C72   C73   A    
C84   H31   S    
C50   C51   A    
C78   N3    S    
C97   H55   S    
C20   H51   S    
C82   C83   A    
C105  H72   S    
C4    H97   S    
O10   Zn1   S    
C55   C82   S    
C105  N1    S    
C105  H74   S    
O34   Zn5   S    
C12   N6    S    
C75   C76   A    
C62   C63   A    
C75   H30   S    
C111  H88   S    
C6    H105  S    
O33   Zn4   S    
C83   C84   A    
C15   H17   S    
H5    N5    S    
C3    C112  S    
C88   H33   S    
C5    H101  S    
C96   C97   S    
C20   C21   A    
C100  H63   S    
C10   N4    S    
C33   C34   A    
C26   C27   A    
C12   H10   S    
C7    H109  S    
C33   C39   A    
C84   C85   A    
C32   H95   S    
O9    Zn6   S    
C109  O25   S    
C8    H111  S    
O23   Zn3   S    
C7    H108  S    
C53   H106  S    
C68   C70   A    
C48   C49   A    
C77   C86   A    
C98   C99   S    
O30   Zn3   S    
C15   H16   S    
C43   C44   A    
C76   N2    S    
C29   O14   A    
C107  H79   S    
C25   C69   A    
C42   C43   A    
C65   H26   S    
C91   C102  A    
C108  H82   S    
C3    C4    S    
C39   C56   S    
C59   O5    A    
C79   C85   A    
C57   O2    A    
C8    H110  S    
C44   C45   A    
C40   H21   S    
C43   O21   S    
C61   O8    A    
C89   H35   S    
C13   O18   S    
O29   Zn4   S    
C88   H34   S    
C59   O3    A    
C110  H87   S    
C86   C87   A    
C3    H94   S    
C55   O30   A    
C80   N5    S    
C93   H44   S    
O3    Zn5   S    
C14   C15   S    
O8    Zn5   S    
C25   C53   A    
C90   H39   S    
C66   O24   S    
C52   O12   A    
C9    H113  S    
C60   C85   S    
C2    C58   A    
C58   C69   A    
C1    C23   S    
C67   C68   A    
C74   O26   S    
C1    O4    A    
C94   H45   S    
C49   H13   S    
C93   C94   S    
C60   O6    A    
C14   H14   S    
C99   C100  S    
C63   N1    S    
C42   H22   S    
C103  H66   S    
C86   N4    S    
C32   C33   A    
C105  H75   S    
C80   C91   A    
C28   C30   A    
O11   Zn2   S    
C89   C90   S    
C106  H76   S    
C71   C72   A    
C102  H1    S    
C27   C59   S    
C109  C110  S    
C112  O26   S    
C47   C58   A    
C30   C31   A    
C104  H68   S    
C12   H11   S    
C53   C65   A    
C1    O1    A    
C5    H100  S    
C97   H53   S    
C5    H102  S    
C107  H78   S    
C63   C64   A    
C92   C93   S    
O16   Zn2   S    
C96   H50   S    
C13   C22   A    
C104  H69   S    
C109  H83   S    
O2    Zn6   S    
C62   C68   A    
O13   Zn1   S    
C62   H25   S    
C35   C41   S    
C52   O17   A    
C71   O22   S    
C70   C71   A    
C36   C54   S    
C14   H15   S    
C23   C24   A    
C6    H107  S    
C31   H84   S    
C96   H52   S    
C72   H28   S    
O14   Zn2   S    
C88   C89   S    
C24   C26   A    
C94   H46   S    
H9    N6    S    
O5    Zn6   S    
C41   O15   A    
C100  H61   S    
C106  O24   S    
C54   O23   A    
C2    C102  A    
C5    N2    S    
C108  H80   S    
C101  H64   S    
C92   H42   S    
C16   H18   S    
C74   C81   A    
C112  H91   S    
C108  H81   S    
C6    N3    S    
C11   H6    S    
C26   H62   S    
C12   H12   S    
C101  H65   S    
C98   H56   S    
C10   H3    S    
C97   H54   S    
C64   C66   A    
C61   O9    A    
C56   O33   A    
C64   H27   S    
C19   H40   S    
