data_mof_unit_2188.cif
_audit_creation_date              2013-03-05T15:40:16-0500
_audit_creation_method            fapswitch 2.2
_symmetry_space_group_name_H-M    P1
_symmetry_Int_Tables_number       1
_space_group_crystal_system       triclinic
_cell_length_a                    30.000724
_cell_length_b                    17.589796
_cell_length_c                    19.182363
_cell_angle_alpha                 90.032032
_cell_angle_beta                  140.81879
_cell_angle_gamma                 89.909798
_cell_volume                      6395.23328859

loop_
_atom_site_label
_atom_site_type_symbol
_atom_site_description
_atom_site_fract_x
_atom_site_fract_y
_atom_site_fract_z
_atom_type_partial_charge
C1    C     C_R   0.171813 0.424794 0.813201 -0.050533
C2    C     C_R   0.826404 0.423043 0.186379 -0.061787
C3    C     C_R   0.671108 0.925596 0.812985 -0.056370
C4    C     C_R   0.327880 0.924528 0.186723 -0.059469
H1    H     H_    0.217093 0.460889 0.876003 0.181985
H2    H     H_    0.780536 0.458531 0.123376 0.182097
H3    H     H_    0.715957 0.962195 0.875662 0.182679
H4    H     H_    0.282460 0.960560 0.123761 0.180668
N1    N     N_R   0.126390 0.429310 0.705280 -0.076042
N2    N     N_R   0.873610 0.429310 0.294720 -0.078355
N3    N     N_R   0.626390 0.929310 0.705280 -0.076361
N4    N     N_R   0.373610 0.929310 0.294720 -0.078111
C5    C     C_R   0.852021 0.588814 0.465133 -0.149993
C6    C     C_R   0.150669 0.591599 0.540488 -0.150806
C7    C     C_R   0.359880 0.080809 0.480273 -0.135452
C8    C     C_R   0.647957 0.088774 0.534704 -0.145052
H5    H     H_    0.805368 0.559276 0.425695 0.187794
H6    H     H_    0.198610 0.563800 0.582696 0.183892
H7    H     H_    0.316960 0.047391 0.448517 0.187048
H8    H     H_    0.694563 0.059068 0.574028 0.183131
N5    N     N_R   0.889410 0.573560 0.453390 -0.092712
N6    N     N_R   0.110590 0.573560 0.546610 -0.092150
N7    N     N_R   0.389410 0.073560 0.453390 -0.085964
N8    N     N_R   0.610590 0.073560 0.546610 -0.091138
C9    C     C_R   0.920560 0.309522 0.517135 -0.190839
C10   C     C_R   0.073419 0.314994 0.465578 -0.242215
C11   C     C_R   0.420280 0.809093 0.515831 -0.276836
C12   C     C_R   0.578178 0.810198 0.479834 -0.196945
H9    H     H_    0.946633 0.254878 0.546192 0.173416
H10   H     H_    0.047513 0.260391 0.433568 0.168838
H11   H     H_    0.446819 0.754700 0.545626 0.172975
H12   H     H_    0.551990 0.755714 0.450218 0.174210
N9    N     N_R   0.940610 0.372370 0.507810 -0.076605
N10   N     N_R   0.059390 0.372370 0.492190 -0.063939
N11   N     N_R   0.440610 0.872370 0.507810 -0.061218
N12   N     N_R   0.559390 0.872370 0.492190 -0.071290
C13   C     C_R   0.108531 0.694963 0.709700 -0.105359
C14   C     C_R   0.891515 0.694890 0.289807 -0.107590
C15   C     C_R   0.608792 0.195183 0.708927 -0.130394
C16   C     C_R   0.390974 0.195139 0.290615 -0.081068
H13   H     H_    0.085738 0.751048 0.679797 0.223502
H14   H     H_    0.914023 0.750987 0.319722 0.224426
H15   H     H_    0.586197 0.251290 0.678284 0.222032
H16   H     H_    0.412987 0.251337 0.321331 0.222434
N13   N     N_R   0.075190 0.630500 0.650860 -0.083820
N14   N     N_R   0.924810 0.630500 0.349140 -0.083542
N15   N     N_R   0.575190 0.130500 0.650860 -0.092143
N16   N     N_R   0.424810 0.130500 0.349140 -0.086492
C17   C     C_R   0.836975 0.397478 0.426762 0.565663
C18   C     C_R   0.156865 0.403033 0.555251 0.572709
C19   C     C_R   0.336174 0.896339 0.424239 0.545607
C20   C     C_R   0.661988 0.897709 0.570025 0.542862
N17   N     N_R   0.889410 0.427540 0.453390 -0.122972
N18   N     N_R   0.110590 0.427540 0.546610 -0.119962
N19   N     N_R   0.389410 0.927540 0.453390 -0.121701
N20   N     N_R   0.610590 0.927540 0.546610 -0.119663
C21   C     C_R   0.189493 0.605998 0.793543 0.522640
C22   C     C_R   0.810580 0.606109 0.205485 0.522870
C23   C     C_R   0.689571 0.106108 0.792951 0.518992
C24   C     C_R   0.310406 0.106106 0.206185 0.536965
N21   N     N_R   0.126390 0.575330 0.705280 -0.130235
N22   N     N_R   0.873610 0.575330 0.294720 -0.130048
N23   N     N_R   0.626390 0.075330 0.705280 -0.132490
N24   N     N_R   0.373610 0.075330 0.294720 -0.132484
C25   C     C_R   0.932163 0.680964 0.547658 0.339008
C26   C     C_R   0.069142 0.682371 0.455413 0.340382
C27   C     C_R   0.438222 0.174476 0.561140 0.370288
C28   C     C_R   0.566173 0.179584 0.449118 0.332286
N25   N     N_R   0.940610 0.629500 0.507810 -0.095368
N26   N     N_R   0.059390 0.629500 0.492190 -0.095005
N27   N     N_R   0.440610 0.129500 0.507810 -0.093186
N28   N     N_R   0.559390 0.129500 0.492190 -0.094322
C29   C     C_R   0.089982 0.334070 0.726771 -0.067085
C30   C     C_R   0.907634 0.331427 0.272639 -0.083837
C31   C     C_R   0.589460 0.834758 0.726686 -0.072136
C32   C     C_R   0.409629 0.833476 0.273209 -0.096825
H17   H     H_    0.061098 0.285350 0.710278 0.121991
H18   H     H_    0.934069 0.280405 0.287838 0.123757
H19   H     H_    0.560295 0.786380 0.710128 0.123826
H20   H     H_    0.438050 0.784179 0.289498 0.123472
N29   N     N_R   0.075190 0.373370 0.650860 -0.037846
N30   N     N_R   0.924810 0.373370 0.349140 -0.038350
N31   N     N_R   0.575190 0.873370 0.650860 -0.035640
N32   N     N_R   0.424810 0.873370 0.349140 -0.039542
C33   C     C_R   0.149739 0.366690 0.829127 0.017526
C34   C     C_R   0.847299 0.363403 0.170360 0.019809
C35   C     C_R   0.648772 0.867906 0.828920 0.004985
C36   C     C_R   0.349749 0.866035 0.170840 0.022836
C37   C     C_R   0.878437 0.655581 0.524766 0.017183
C38   C     C_R   0.124573 0.658706 0.481675 0.011091
C39   C     C_R   0.389612 0.143541 0.547996 -0.056578
C40   C     C_R   0.620454 0.154734 0.472681 0.013926
C41   C     C_R   0.856360 0.324984 0.468607 0.126054
C42   C     C_R   0.132263 0.335084 0.499386 0.072290
C43   C     C_R   0.355172 0.823419 0.464548 -0.001989
C44   C     C_R   0.641442 0.825837 0.525919 0.060450
C45   C     C_R   0.180127 0.680429 0.800408 0.056630
C46   C     C_R   0.820040 0.680421 0.198420 0.057203
C47   C     C_R   0.680371 0.180701 0.799272 0.068921
C48   C     C_R   0.319512 0.180622 0.199568 0.049841
Ni1   Ni    Ni4+2 0.118300 0.501760 0.624810 0.225678
Ni2   Ni    Ni4+2 0.881700 0.501760 0.375190 0.223989
Ni3   Ni    Ni4+2 0.618300 0.001760 0.624810 0.222484
Ni4   Ni    Ni4+2 0.381700 0.001760 0.375190 0.231589
Ni5   Ni    Ni4+2 1.000000 0.373470 0.500000 0.263794
Ni6   Ni    Ni4+2 0.500000 0.873470 0.500000 0.247169
Ni7   Ni    Ni4+2 1.000000 0.628290 0.500000 0.296627
Ni8   Ni    Ni4+2 0.500000 0.128290 0.500000 0.295240
C49   C     C_2   0.837150 0.288120 0.053549 -0.410614
C50   C     C_2   0.160406 0.289288 0.945728 -0.392270
C51   C     C_2   0.338878 0.788417 0.054255 -0.394191
C52   C     C_2   0.659773 0.789640 0.945434 -0.401940
C53   C     C_2   0.805991 0.333763 0.062880 0.329964
C54   C     C_2   0.189948 0.339405 0.937455 0.319233
C55   C     C_2   0.309139 0.838115 0.062700 0.326712
C56   C     C_2   0.688315 0.841942 0.937479 0.323562
H21   H     H_    0.894270 0.282745 0.122360 0.176245
H22   H     H_    0.103772 0.280291 0.875265 0.177265
H23   H     H_    0.395622 0.779857 0.124312 0.174397
H24   H     H_    0.603458 0.778911 0.874356 0.172289
C57   C     C_2   0.297198 0.724112 0.978861 0.441627
C58   C     C_2   0.703060 0.725000 0.019917 0.447776
C59   C     C_2   0.797574 0.224063 0.977552 0.449584
C60   C     C_2   0.202426 0.224762 0.020953 0.424362
C61   C     C_2   0.235576 0.737262 0.871398 -0.227792
C62   C     C_2   0.764553 0.737486 0.127623 -0.230613
C63   C     C_2   0.735816 0.237523 0.870308 -0.238526
C64   C     C_2   0.263849 0.237537 0.128619 -0.156679
H25   H     H_    0.222511 0.794156 0.837812 0.187297
H26   H     H_    0.777036 0.793641 0.162586 0.185805
H27   H     H_    0.722089 0.295051 0.838136 0.183637
H28   H     H_    0.276596 0.294200 0.162546 0.190266
C65   C     C_R   0.165595 0.290541 0.486101 -0.171026
C66   C     C_R   0.816345 0.277172 0.465314 -0.069243
C67   C     C_R   0.678347 0.777809 0.523194 -0.153056
C68   C     C_R   0.316610 0.775403 0.464320 -0.231879
C69   C     C_R   0.839105 0.700429 0.525301 -0.043026
C70   C     C_R   0.160731 0.702335 0.473756 -0.049062
C71   C     C_R   0.354809 0.181850 0.562346 -0.021921
C72   C     C_R   0.655721 0.197916 0.462490 -0.065007
C73   C     C_R   0.747900 0.794513 0.426786 0.416970
C74   C     C_R   0.236644 0.808484 0.541369 0.406482
C75   C     C_R   0.335993 0.187328 0.663914 0.335110
C76   C     C_R   0.718196 0.312490 0.508990 0.337236
C77   C     C_R   0.801102 0.761438 0.452609 -0.264926
C78   C     C_R   0.190877 0.771021 0.530209 -0.250584
C79   C     C_R   0.377796 0.167481 0.657755 -0.177281
C80   C     C_R   0.675592 0.272211 0.502291 -0.204011
C81   C     C_R   0.827266 0.671855 0.577561 0.373043
C82   C     C_R   0.172422 0.670572 0.422177 0.378346
C83   C     C_R   0.289395 0.215668 0.469969 0.376973
C84   C     C_R   0.676109 0.162539 0.424949 0.358366
C85   C     C_R   0.774959 0.705450 0.555184 -0.139296
C86   C     C_R   0.219158 0.706921 0.433538 -0.215035
C87   C     C_R   0.246959 0.237023 0.474721 -0.167351
C88   C     C_R   0.721964 0.201235 0.435916 -0.094269
C89   C     C_R   0.271726 0.227020 0.574263 -0.213061
C90   C     C_R   0.747428 0.274265 0.486485 -0.205852
C91   C     C_R   0.734896 0.767764 0.479572 -0.128361
C92   C     C_R   0.254891 0.773742 0.499314 -0.123273
C93   C     C_R   0.231941 0.258974 0.580868 0.584993
C94   C     C_R   0.801376 0.306882 0.512675 0.490988
C95   C     C_R   0.685256 0.803011 0.462514 0.489819
C96   C     C_R   0.309389 0.802138 0.524241 0.546197
C97   C     C_R   0.138052 0.292605 0.384470 0.482568
C98   C     C_R   0.788112 0.208397 0.407866 0.484788
C99   C     C_R   0.714456 0.714677 0.592725 0.549085
C100  C     C_R   0.277642 0.712788 0.392322 0.541662
C101  C     C_R   0.180089 0.268176 0.381145 -0.064378
C102  C     C_R   0.742340 0.169144 0.396498 -0.214586
C103  C     C_R   0.762967 0.678598 0.608476 -0.210735
C104  C     C_R   0.230867 0.677726 0.380617 -0.080509
H29   H     H_    0.793181 0.631785 0.666251 0.197477
H30   H     H_    0.201689 0.629265 0.325916 0.212622
H31   H     H_    0.159795 0.274989 0.304177 0.210260
H32   H     H_    0.720791 0.115496 0.352945 0.206645
H33   H     H_    0.809055 0.779486 0.408744 0.191068
H34   H     H_    0.179698 0.794878 0.567605 0.204226
H35   H     H_    0.425867 0.135162 0.724183 0.191362
H36   H     H_    0.658493 0.299070 0.529442 0.208399
N33   N     N_R   0.730687 0.341882 0.975736 0.231373
O1    O     O_R   0.695776 0.304332 0.980499 -0.317817
O2    O     O_R   0.699964 0.397648 0.905855 -0.317902
N34   N     N_R   0.264407 0.354486 0.028225 0.227376
O3    O     O_R   0.304590 0.324721 0.029151 -0.310985
O4    O     O_R   0.288786 0.409349 0.096310 -0.307003
N35   N     N_R   0.234449 0.852097 0.972814 0.229149
O5    O     O_R   0.195344 0.820546 0.972986 -0.316756
O6    O     O_R   0.208770 0.907645 0.904775 -0.306096
N36   N     N_R   0.761988 0.860712 0.029717 0.231009
O7    O     O_R   0.804635 0.835194 0.033648 -0.317357
O8    O     O_R   0.783059 0.914640 0.096708 -0.313304
N37   N     N_R   0.817139 0.150192 0.026834 0.271899
O9    O     O_R   0.881458 0.126241 0.095757 -0.302127
O10   O     O_R   0.777773 0.116707 0.025402 -0.330390
N38   N     N_R   0.184271 0.151618 0.970693 0.269517
O11   O     O_R   0.119909 0.126991 0.898896 -0.301685
O12   O     O_R   0.225786 0.119215 0.975800 -0.328920
N39   N     N_R   0.315799 0.650695 0.028844 0.270463
O13   O     O_R   0.380228 0.626201 0.100124 -0.306763
O14   O     O_R   0.274722 0.617867 0.024268 -0.327512
N40   N     N_R   0.685315 0.652260 0.968940 0.270496
O15   O     O_R   0.620836 0.627581 0.895512 -0.312156
O16   O     O_R   0.727844 0.620031 0.976100 -0.335694
O17   O     O_3   0.258221 0.266166 0.679556 -0.659883
H37   H     H_    0.308336 0.281622 0.736540 0.352716
O18   O     O_3   0.841905 0.366623 0.586148 -0.677816
H38   H     H_    0.848428 0.359900 0.644954 0.347036
O19   O     O_3   0.648112 0.865648 0.393614 -0.638367
H39   H     H_    0.602398 0.869413 0.362989 0.328898
O20   O     O_3   0.355340 0.855325 0.607783 -0.692761
H40   H     H_    0.400551 0.854443 0.636725 0.322264
O21   O     O_3   0.073156 0.323534 0.288766 -0.688061
H41   H     H_    0.044739 0.331696 0.296839 0.323408
O22   O     O_3   0.805181 0.181641 0.362950 -0.702392
H42   H     H_    0.780579 0.132698 0.325121 0.358276
O23   O     O_3   0.704438 0.692414 0.648990 -0.698362
H43   H     H_    0.734187 0.647230 0.694857 0.351531
O24   O     O_3   0.282095 0.684903 0.330445 -0.679461
H44   H     H_    0.317862 0.713405 0.347033 0.340176
N41   N     N_R   0.355662 0.158768 0.755202 0.251351
O25   O     O_R   0.421723 0.157393 0.853747 -0.315914
O26   O     O_R   0.309791 0.121893 0.736996 -0.255489
N42   N     N_R   0.726085 0.392986 0.529140 0.263077
O27   O     O_R   0.716971 0.439385 0.466025 -0.266660
O28   O     O_R   0.729962 0.420634 0.596670 -0.341483
N43   N     N_R   0.705402 0.851356 0.341892 0.288061
O29   O     O_R   0.640211 0.835885 0.247077 -0.299519
O30   O     O_R   0.735600 0.909735 0.349567 -0.302147
N44   N     N_R   0.260650 0.882990 0.589922 0.284722
O31   O     O_R   0.278908 0.896810 0.676217 -0.305677
O32   O     O_R   0.251300 0.939849 0.536152 -0.291264
N45   N     N_R   0.867915 0.608133 0.651498 0.234853
O33   O     O_R   0.836923 0.543920 0.627531 -0.307540
O34   O     O_R   0.936502 0.610805 0.733364 -0.327943
N46   N     N_R   0.139175 0.599985 0.363059 0.232016
O35   O     O_R   0.177512 0.540175 0.396571 -0.361108
O36   O     O_R   0.071017 0.592927 0.285150 -0.336492
N47   N     N_R   0.265208 0.224873 0.370062 0.222818
O37   O     O_R   0.298230 0.270434 0.367906 -0.339535
O38   O     O_R   0.214940 0.181890 0.285144 -0.361264
N48   N     N_R   0.652370 0.086828 0.380290 0.236234
O39   O     O_R   0.697941 0.031990 0.428159 -0.318408
O40   O     O_R   0.585378 0.070875 0.300532 -0.320937
O41   O     O_3   0.768866 0.424275 0.346079 -0.703183
H45   H     H_    0.766077 0.466911 0.309216 0.301937
O42   O     O_3   0.224849 0.428706 0.630448 -0.724058
H46   H     H_    0.234564 0.461559 0.683075 0.307637
O43   O     O_3   0.268090 0.923270 0.343426 -0.704585
H47   H     H_    0.266273 0.968403 0.310524 0.313561
O44   O     O_3   0.730179 0.923758 0.649432 -0.703530
H48   H     H_    0.734298 0.965238 0.689032 0.306027
O45   O     O_3   0.251073 0.578141 0.839871 -0.711857
H49   H     H_    0.239674 0.529660 0.802347 0.303284
O46   O     O_3   0.748533 0.578716 0.157659 -0.712002
H50   H     H_    0.759584 0.530479 0.195224 0.301925
O47   O     O_3   0.750925 0.077957 0.838813 -0.710297
H51   H     H_    0.739625 0.028545 0.803154 0.304271
O48   O     O_3   0.248710 0.078196 0.159130 -0.684475
H52   H     H_    0.259961 0.029285 0.195669 0.306006
N49   N     N_R   0.957838 0.757198 0.575462 0.220415
O49   O     O_R   0.960844 0.791763 0.519285 -0.361399
O50   O     O_R   0.967641 0.795892 0.644323 -0.301413
N50   N     N_R   0.041039 0.757681 0.424379 0.215886
O51   O     O_R   0.038237 0.793008 0.480479 -0.360650
O52   O     O_R   0.028378 0.795030 0.351864 -0.310910
N51   N     N_R   0.463143 0.251095 0.592762 0.237326
O53   O     O_R   0.462683 0.291083 0.535177 -0.328338
O54   O     O_R   0.474898 0.284770 0.666258 -0.317068
N52   N     N_R   0.535033 0.253546 0.411388 0.210595
O55   O     O_R   0.535878 0.293994 0.469204 -0.370845
O56   O     O_R   0.515072 0.284662 0.328913 -0.308289

loop_
_geom_bond_atom_site_label_1
_geom_bond_atom_site_label_2
_geom_bond_distance
_ccdc_geom_bond_type
C22   N22   1.333642 A    
C16   C48   1.381369 A    
C60   N38   1.438140 S    
C10   C42   1.374354 A    
N36   O7    1.301062 A    
N15   Ni8   1.828760 S    
C94   O18   1.383724 S    
C87   C89   1.424609 A    
N9    N17   1.378930 A    
C23   C47   1.364903 A    
C6    H6    1.075240 S    
N18   Ni1   1.862498 S    
C11   C43   1.366142 A    
N47   O37   1.300596 A    
C22   C46   1.366922 A    
C3    N3    1.332454 A    
C14   C46   1.381849 A    
C93   O17   1.381123 S    
N42   O27   1.301477 A    
C72   C80   1.393494 A    
C13   C45   1.382473 A    
N34   O3    1.300977 A    
C95   O19   1.384549 S    
C49   H21   1.086629 S    
C73   N43   1.433925 S    
C26   C38   1.375459 A    
C102  H32   1.081726 S    
O17   H37   0.991128 S    
C70   C82   1.396713 A    
C25   C37   1.376559 A    
C103  H29   1.081295 S    
O48   H52   0.989122 S    
C71   C79   1.390050 A    
O43   H47   0.989246 S    
C18   N18   1.334940 A    
N6    Ni1   1.833579 S    
N40   O16   1.301662 A    
C11   N11   1.335044 A    
N14   N22   1.381509 A    
C84   C88   1.397910 A    
C1    H1    1.079144 S    
C92   C96   1.393418 A    
C24   O48   1.376197 S    
C69   C77   1.388890 A    
C33   C54   1.454895 S    
C88   C102  1.406779 A    
N4    Ni4   1.866448 S    
C3    H3    1.079019 S    
N26   Ni7   1.900384 S    
C13   H13   1.077160 S    
N15   N23   1.378928 A    
N49   O49   1.300238 A    
C79   H35   1.084445 S    
C25   N25   1.329205 A    
N16   N24   1.381510 A    
C45   C61   1.453559 S    
C51   C57   1.460686 S    
C62   H26   1.084777 S    
C96   O20   1.386094 S    
C42   C65   1.439135 S    
C27   N51   1.429140 S    
N46   O35   1.301371 A    
N4    N32   1.388478 A    
C9    H9    1.081064 S    
C51   H23   1.086003 S    
O47   H51   0.989440 S    
N30   Ni5   1.828309 S    
C71   C83   1.396931 A    
C21   N21   1.332143 A    
C81   C85   1.396088 A    
C57   N39   1.438070 S    
C56   N36   1.436554 S    
C50   C60   1.461792 S    
C57   C61   1.345990 D    
C80   H36   1.082047 S    
C15   C47   1.381649 A    
C10   N10   1.336951 A    
C6    C38   1.381421 A    
N28   Ni8   1.900384 S    
N36   O8    1.300739 A    
N50   O51   1.300224 A    
N37   O10   1.301649 A    
C19   C43   1.372398 A    
C27   N27   1.337926 A    
N48   O40   1.301177 A    
C66   C98   1.396417 A    
N52   O56   1.300856 A    
C2    C34   1.372633 A    
C83   C87   1.395934 A    
C4    N4    1.332263 A    
N45   O33   1.300636 A    
C72   C84   1.400388 A    
N49   O50   1.300744 A    
C4    H4    1.078840 S    
C98   O22   1.381611 S    
C60   C64   1.346207 D    
C65   C93   1.401029 A    
C7    N7    1.332250 A    
C82   N46   1.439180 S    
N39   O13   1.300795 A    
C8    N8    1.333567 A    
N27   Ni8   1.900320 S    
C1    C33   1.375699 A    
C67   C99   1.394098 A    
C69   C81   1.391701 A    
C2    H2    1.078775 S    
C43   C68   1.430721 S    
C30   N30   1.338280 A    
C26   N50   1.428032 S    
C64   H28   1.085272 S    
C29   N29   1.339227 A    
C38   C70   1.430726 S    
C73   C91   1.418590 A    
C24   N24   1.333474 A    
C75   C89   1.420935 A    
C44   C67   1.424408 S    
N25   Ni7   1.900320 S    
N32   Ni6   1.828309 S    
N33   O2    1.300699 A    
C97   C101  1.379183 A    
O19   H39   0.990494 S    
N29   Ni5   1.828304 S    
C32   N32   1.338950 A    
C14   N14   1.345852 A    
N40   O15   1.300856 A    
C3    C35   1.375583 A    
O18   H38   0.991264 S    
O21   H41   0.987774 S    
N7    N27   1.391073 A    
O44   H48   0.989332 S    
C1    N1    1.332395 A    
N23   Ni3   1.879954 S    
C41   C66   1.427576 S    
O24   H44   0.988015 S    
C52   H24   1.085608 S    
C18   C42   1.377256 A    
C28   C40   1.379908 A    
C15   H15   1.076951 S    
C68   C100  1.409412 A    
N3    N31   1.391075 A    
O23   H43   0.991718 S    
N33   O1    1.300829 A    
N12   Ni6   1.900301 S    
N19   Ni4   1.863163 S    
N2    N30   1.388478 A    
N11   N19   1.378930 A    
C81   N45   1.439133 S    
N21   Ni1   1.879954 S    
C66   C94   1.389748 A    
N5    N25   1.391073 A    
C58   C62   1.346096 D    
C7    H7    1.077276 S    
O22   H42   0.991697 S    
O20   H40   0.990304 S    
C28   N52   1.427622 S    
N41   O25   1.301386 A    
N12   N20   1.381509 A    
C76   N42   1.438352 S    
C65   C97   1.409738 A    
N44   O31   1.301375 A    
C55   N35   1.436463 S    
C87   C101  1.400659 A    
C5    H5    1.077751 S    
C59   C63   1.345749 D    
N43   O29   1.301372 A    
N50   O52   1.300738 A    
C12   H12   1.080860 S    
N17   Ni2   1.863163 S    
C28   N28   1.327473 A    
C21   C45   1.366153 A    
N14   Ni7   1.828679 S    
C85   C103  1.403131 A    
C9    N9    1.336050 A    
C27   C39   1.385183 A    
N48   O39   1.301292 A    
C101  H31   1.082252 S    
C86   C104  1.403331 A    
C22   O46   1.376110 S    
N47   O38   1.301209 A    
C8    H8    1.077084 S    
C54   N34   1.436492 S    
C30   C34   1.390846 A    
N44   O32   1.301741 A    
C50   H22   1.085858 S    
N45   O34   1.301159 A    
C29   C33   1.394000 A    
C35   C56   1.456655 S    
N16   Ni8   1.828679 S    
C39   C71   1.436381 S    
N5    Ni2   1.832925 S    
C10   H10   1.079526 S    
C46   C62   1.454101 S    
C97   O21   1.383261 S    
N43   O30   1.301137 A    
C78   H34   1.084122 S    
C75   C79   1.391723 A    
C37   C69   1.424980 S    
C34   C53   1.448455 S    
C11   H11   1.081058 S    
C82   C86   1.396820 A    
C6    N6    1.334315 A    
C91   C95   1.396839 A    
C53   N33   1.436347 S    
C31   H19   1.077864 S    
C13   N13   1.346119 A    
O46   H50   0.989187 S    
C40   C72   1.434550 S    
C89   C93   1.410240 A    
C50   C54   1.344775 D    
C52   C56   1.344631 D    
C99   O23   1.382851 S    
C85   C91   1.429946 A    
N8    N28   1.388476 A    
C15   N15   1.346415 A    
C68   C96   1.405115 A    
C100  C104  1.383515 A    
C31   C35   1.394354 A    
N24   Ni4   1.880614 S    
C32   C36   1.392960 A    
C16   N16   1.347057 A    
C74   C78   1.382865 A    
C5    C37   1.382699 A    
C48   C64   1.454650 S    
N10   Ni5   1.900301 S    
C67   C95   1.403311 A    
C23   O47   1.376371 S    
C32   H20   1.077734 S    
N20   Ni3   1.862498 S    
C74   C92   1.416662 A    
N38   O11   1.300798 A    
C24   C48   1.365230 A    
N42   O28   1.301524 A    
C75   N41   1.437067 S    
C47   C63   1.453409 S    
N51   O53   1.300888 A    
N31   Ni6   1.828304 S    
C98   C102  1.395903 A    
C4    C36   1.374520 A    
C49   C53   1.344378 D    
C83   N47   1.438597 S    
C52   C58   1.463313 S    
C26   N26   1.330308 A    
C23   N23   1.332098 A    
N13   Ni7   1.828760 S    
N34   O4    1.300720 A    
N9    Ni5   1.900361 S    
C99   C103  1.388441 A    
C12   C44   1.363704 A    
N8    Ni3   1.833579 S    
C9    C41   1.367194 A    
C49   C59   1.457209 S    
C58   N40   1.438875 S    
C36   C55   1.453008 S    
C88   C90   1.423931 A    
N35   O5    1.300949 A    
N41   O26   1.301521 A    
N11   Ni6   1.900361 S    
C5    N5    1.331034 A    
C51   C55   1.344578 D    
N51   O54   1.300681 A    
N10   N18   1.381509 A    
C31   N31   1.339782 A    
O45   H49   0.990385 S    
C20   N20   1.333706 A    
C70   C78   1.390665 A    
C17   N17   1.331081 A    
N2    Ni2   1.866448 S    
N13   N21   1.378928 A    
C73   C77   1.379507 A    
C104  H30   1.082261 S    
N46   O36   1.301177 A    
C20   C44   1.373594 A    
C19   N19   1.335118 A    
N7    Ni4   1.832925 S    
C21   O45   1.376704 S    
C100  O24   1.382846 S    
C19   O43   1.374234 S    
C20   O44   1.373511 S    
C63   H27   1.086180 S    
N35   O6    1.300719 A    
N38   O12   1.301650 A    
C74   N44   1.437133 S    
C84   N48   1.438931 S    
C90   C94   1.393941 A    
C7    C39   1.380549 A    
C8    C40   1.385303 A    
C14   H14   1.076881 S    
C61   H25   1.085456 S    
C16   H16   1.076395 S    
C12   N12   1.332173 A    
N1    Ni1   1.867106 S    
N37   O9    1.300731 A    
C30   H18   1.076568 S    
C77   H33   1.085124 S    
N39   O14   1.301655 A    
C29   H17   1.078159 S    
N52   O55   1.300940 A    
C59   N37   1.437114 S    
N3    Ni3   1.867106 S    
C25   N49   1.428795 S    
C17   C41   1.372462 A    
C86   C92   1.424106 A    
O41   H45   0.989002 S    
C76   C90   1.411481 A    
N6    N26   1.388476 A    
C17   O41   1.373952 S    
C18   O42   1.373194 S    
O42   H46   0.990827 S    
N1    N29   1.391075 A    
N22   Ni2   1.880614 S    
C76   C80   1.378483 A    
C2    N2    1.331995 A    
