data_mof_unit_3809.cif
_audit_creation_date              2012-10-26T19:18:49-0400
_audit_creation_method            fapswitch 2.2
_symmetry_space_group_name_H-M    P1
_symmetry_Int_Tables_number       1
_space_group_crystal_system       triclinic
_cell_length_a                    9.707745
_cell_length_b                    10.921215
_cell_length_c                    15.455103
_cell_angle_alpha                 89.510417
_cell_angle_beta                  73.40064
_cell_angle_gamma                 91.349758
_cell_volume                      1569.6349699

loop_
_atom_site_label
_atom_site_type_symbol
_atom_type_description
_atom_site_fract_x
_atom_site_fract_y
_atom_site_fract_z
_atom_type_partial_charge
C1    C     C_R   0.997436 0.265366 0.501750 0.569837
C2    C     C_R   0.253546 0.612540 0.054408 0.039107
C3    C     C_R   0.332699 0.534907 0.095261 0.051785
C4    C     C_R   0.916475 0.498572 0.672396 0.551100
C5    C     C_R   0.116478 0.649315 0.103417 -0.123443
C6    C     C_R   0.059440 0.610960 0.192816 -0.160846
C7    C     C_R   0.259812 0.476785 0.178271 0.132885
C8    C     C_2   0.892223 0.929742 0.502117 -0.124148
C9    C     C_2   0.015693 0.868480 0.476728 0.201446
C10   C     C_2   0.888980 0.062920 0.489695 0.274306
C11   C     C_2   0.991249 0.133303 0.509278 -0.028504
C12   C     C_R   0.678891 0.517844 0.911960 0.003638
C13   C     C_2   0.392756 0.440114 0.559094 0.003299
C14   C     C_2   0.549129 0.431269 0.554224 0.205467
C15   C     C_R   0.005372 0.734974 0.492783 0.539688
C16   C     C_R   0.083420 0.501797 0.327873 0.552160
C17   C     C_R   0.870134 0.493652 0.771535 -0.020897
C18   C     C_R   0.130349 0.524393 0.230455 -0.001701
C19   C     C_R   0.913085 0.439695 0.913989 0.083092
C20   C     C_R   0.961778 0.452459 0.820174 -0.100784
C21   C     C_R   0.729966 0.525022 0.817327 -0.115577
C22   C     C_3   0.272537 0.889938 0.428982 0.023329
C23   C     C_R   0.771433 0.472517 0.960744 0.009258
C24   C     C_3   0.291531 0.908544 0.523721 -0.263605
C25   C     C_3   0.432762 0.856865 0.530604 -0.457667
C26   C     C_3   0.771549 0.090265 0.381417 0.007207
C27   C     C_3   0.836986 0.200759 0.320634 -0.238636
C28   C     C_3   0.828883 0.183113 0.224415 -0.454535
C29   C     C_3   0.533444 0.618003 0.223545 0.009015
C30   C     C_3   0.676335 0.661803 0.236901 -0.278491
C31   C     C_3   0.665583 0.789014 0.277685 -0.498629
C32   C     C_R   0.536431 0.550657 0.958857 -0.001325
C33   C     C_R   0.481399 0.520399 0.052023 0.037498
C34   C     C_R   0.580359 0.491580 0.100885 0.273292
C35   C     C_R   0.721480 0.463789 0.054973 -0.088364
C36   C     C_R   0.449568 0.618304 0.917078 -0.112639
C37   C     C_R   0.312757 0.653124 0.965570 -0.104259
Cu1   Cu    Cu3+1 0.138640 0.500020 0.499980 0.946156
Cu2   Cu    Cu3+1 0.861360 0.499980 0.500020 0.968730
H1    H     H_    0.791957 0.438308 0.094691 0.157569
H2    H     H_    0.069941 0.425853 0.785006 0.152418
H3    H     H_    0.660614 0.550969 0.777278 0.140786
H4    H     H_    0.488205 0.653531 0.848809 0.109766
H5    H     H_    0.357130 0.947493 0.381302 0.153579
H6    H     H_    0.294975 0.795902 0.403233 0.152005
H7    H     H_    0.291633 0.008013 0.538089 0.167503
H8    H     H_    0.201867 0.863498 0.576435 0.173110
H9    H     H_    0.436799 0.757439 0.515985 0.143959
H10   H     H_    0.441655 0.869671 0.600019 0.166342
H11   H     H_    0.525372 0.905471 0.482536 0.150326
H12   H     H_    0.057118 0.712577 0.074243 0.120709
H13   H     H_    0.658164 0.076539 0.380617 0.149663
H14   H     H_    0.828629 0.005534 0.353392 0.121663
H15   H     H_    0.778054 0.284362 0.348392 0.210399
H16   H     H_    0.951445 0.214327 0.319163 0.186854
H17   H     H_    0.888491 0.100800 0.194658 0.165497
H18   H     H_    0.878027 0.264539 0.182491 0.188850
H19   H     H_    0.715074 0.172647 0.223760 0.172691
H20   H     H_    0.449154 0.620200 0.289444 0.160828
H21   H     H_    0.499775 0.682809 0.177645 0.119169
H22   H     H_    0.708499 0.596237 0.282559 0.179903
H23   H     H_    0.789859 0.882822 0.533443 0.116344
H24   H     H_    0.760042 0.664665 0.170592 0.159092
H25   H     H_    0.635448 0.856669 0.232644 0.157055
H26   H     H_    0.771162 0.817440 0.286498 0.145020
H27   H     H_    0.584043 0.787622 0.344621 0.126006
H28   H     H_    0.075416 0.092315 0.532152 0.091921
H29   H     H_    0.314655 0.390700 0.613235 0.156921
H30   H     H_    0.420121 0.539080 0.446334 0.197761
H31   H     H_    0.625204 0.565842 0.462561 0.176490
H32   H     H_    0.962015 0.650979 0.233421 0.123894
H33   H     H_    0.252253 0.710659 0.932944 0.121944
I1    I     I_    0.585509 0.298156 0.645612 -0.289546
I2    I     I_    0.312322 0.296301 0.212853 -0.300145
I3    I     I_    0.058752 0.362435 0.977815 -0.429888
N1    N     N_2   0.346430 0.498660 0.500980 -0.364542
N2    N     N_2   0.652550 0.498630 0.501000 -0.340805
O1    O     O_R   0.117050 0.321960 0.499980 -0.490639
O2    O     O_3   0.770509 0.113967 0.471506 -0.534232
O3    O     O_3   0.543540 0.495129 0.194259 -0.550032
O4    O     O_R   0.882890 0.321920 0.500020 -0.423068
O5    O     O_R   0.052910 0.500040 0.629810 -0.506017
O6    O     O_R   0.818750 0.499990 0.629840 -0.471340
O7    O     O_R   0.117110 0.678080 0.499980 -0.511272
O8    O     O_R   0.882950 0.678040 0.500020 -0.524888
O9    O     O_R   0.181250 0.500010 0.370160 -0.475202
O10   O     O_R   0.947090 0.499960 0.370190 -0.518291
O11   O     O_3   0.138599 0.930683 0.421963 -0.594373

loop_
_geom_bond_atom_site_label_1
_geom_bond_atom_site_label_2
_ccdc_geom_bond_type
C31   H27   S    
C19   C20   A    
C1    C11   S    
Cu2   O10   S    
C20   H2    S    
C28   H17   S    
C27   H15   S    
Cu1   N1    S    
C28   H18   S    
C4    O6    A    
C12   C23   A    
C26   C27   S    
Cu1   O9    S    
C5    C6    A    
Cu2   N2    S    
C36   C37   A    
C3    C7    A    
C9    O11   S    
C30   C31   S    
C27   H16   S    
C3    C33   A    
C1    O4    A    
C17   C20   A    
H30   N1    S    
C34   C35   A    
C14   N2    D    
C25   H11   S    
C34   O3    S    
C22   H5    S    
C29   H20   S    
C8    C9    D    
C16   O10   A    
C13   N1    D    
C22   O11   S    
C15   O8    A    
C13   C14   S    
C12   C32   A    
H31   N2    S    
C16   O9    A    
C1    O1    A    
C11   H28   S    
C7    I2    S    
C6    H32   S    
C6    C18   A    
C14   I1    S    
C24   C25   S    
Cu2   O4    S    
Cu1   O1    S    
C12   C21   A    
C17   C21   A    
C19   C23   A    
C29   C30   S    
C26   H13   S    
C29   H21   S    
C7    C18   A    
C33   C34   A    
C25   H9    S    
C4    C17   S    
C16   C18   S    
C23   C35   A    
C22   C24   S    
C37   H33   S    
C2    C5    A    
Cu2   O8    S    
C26   H14   S    
C32   C36   A    
C31   H26   S    
Cu1   O7    S    
C24   H8    S    
C31   H25   S    
C10   O2    S    
C15   O7    A    
C28   H19   S    
C26   O2    S    
C24   H7    S    
C32   C33   A    
C19   I3    S    
C35   H1    S    
C9    C15   S    
Cu2   O6    S    
C2    C37   A    
Cu1   Cu2   S    
C29   O3    S    
C2    C3    A    
C25   H10   S    
C10   C11   D    
C21   H3    S    
C22   H6    S    
C4    O5    A    
C8    C10   S    
C30   H22   S    
C27   C28   S    
C5    H12   S    
C36   H4    S    
C30   H24   S    
Cu1   O5    S    
C8    H23   S    
C13   H29   S    
