data_mof_unit_3469.cif
_audit_creation_date              2012-12-10T16:57:03-0500
_audit_creation_method            fapswitch 2.2
_symmetry_space_group_name_H-M    P1
_symmetry_Int_Tables_number       1
_space_group_crystal_system       triclinic
_cell_length_a                    7.761139
_cell_length_b                    8.634211
_cell_length_c                    16.540427
_cell_angle_alpha                 91.800248
_cell_angle_beta                  80.8858
_cell_angle_gamma                 93.412181
_cell_volume                      1092.1897279

loop_
_atom_site_label
_atom_site_type_symbol
_atom_type_description
_atom_site_fract_x
_atom_site_fract_y
_atom_site_fract_z
_atom_type_partial_charge
C1    C     C_R   0.545564 0.794328 0.496736 0.890417
C2    C     C_R   0.374220 0.456569 0.223353 -0.208439
C3    C     C_R   0.550789 0.268548 0.833759 -0.156290
C4    C     C_R   0.373225 0.400175 0.144014 -0.143970
C5    C     C_R   0.401553 0.298642 0.890405 0.202444
C6    C     C_R   0.525558 0.342132 0.098577 0.206263
C7    C     C_R   0.273786 0.389992 0.868564 -0.171028
C8    C     C_R   0.679812 0.347047 0.132543 -0.182708
C9    C     C_R   0.300171 0.458893 0.792355 -0.190831
C10   C     C_R   0.681032 0.404111 0.211831 -0.179237
C11   C     C_2   0.393052 0.263361 0.976749 -0.239103
C12   C     C_R   0.454446 0.205675 0.503321 0.883996
C13   C     C_2   0.535060 0.296972 0.012047 -0.223805
C14   C     C_2   0.566957 0.956030 0.483947 0.180119
C15   C     C_2   0.433142 0.044020 0.516234 0.185068
C16   C     C_R   0.476198 0.493166 0.654496 0.854267
C17   C     C_R   0.521588 0.493492 0.345126 0.856554
C18   C     C_R   0.454914 0.436942 0.737749 -0.034540
C19   C     C_R   0.527442 0.457188 0.258121 -0.033987
C20   C     C_R   0.578502 0.339125 0.758427 -0.203917
H1    H     H_    0.801084 0.402894 0.237403 0.158402
H2    H     H_    0.976975 0.619590 0.560582 0.206238
H3    H     H_    0.695362 0.314693 0.715875 0.162877
H4    H     H_    0.254340 0.497601 0.257758 0.156036
H5    H     H_    0.787872 0.931904 0.409553 0.343705
H6    H     H_    0.212621 0.068302 0.590867 0.343741
H7    H     H_    0.200904 0.530243 0.776429 0.156343
H8    H     H_    0.662303 0.315601 0.974399 0.147376
H9    H     H_    0.264904 0.245344 0.013367 0.144073
H10   H     H_    0.158261 0.414587 0.912018 0.122957
H11   H     H_    0.799623 0.306907 0.097555 0.121617
H12   H     H_    0.254066 0.406334 0.118444 0.121389
H13   H     H_    0.649010 0.195250 0.848984 0.133183
H14   H     H_    0.023035 0.380446 0.439393 0.203536
N1    N     N_2   0.953500 0.457650 0.478520 -0.169162
N2    N     N_2   0.046500 0.542350 0.521480 -0.166984
O1    O     O_R   0.388470 0.738640 0.505270 -0.549297
O2    O     O_3   0.287859 0.983477 0.568173 -0.775098
O3    O     O_R   0.611530 0.261360 0.494730 -0.554248
O4    O     O_R   0.679650 0.711510 0.491500 -0.642885
O5    O     O_R   0.320350 0.288490 0.508500 -0.645519
O6    O     O_R   0.337210 0.515200 0.623500 -0.608407
O7    O     O_R   0.662790 0.484800 0.376500 -0.614430
O8    O     O_R   0.628380 0.488060 0.609730 -0.630905
O9    O     O_R   0.371620 0.511940 0.390270 -0.628682
O10   O     O_3   0.712352 0.016631 0.432091 -0.775173
Zn1   Zn    Zn3+2 0.305580 0.518120 0.509190 0.976578
Zn2   Zn    Zn3+2 0.694420 0.481880 0.490810 0.971465

loop_
_geom_bond_atom_site_label_1
_geom_bond_atom_site_label_2
_ccdc_geom_bond_type
C2    C4    A    
C12   C15   S    
C13   H8    S    
C12   O5    A    
O1    Zn1   S    
H2    N2    S    
O7    Zn2   S    
C16   O8    A    
N1    N2    D    
C20   H3    S    
C1    O1    A    
C10   C19   A    
C7    C9    A    
C12   O3    A    
C17   O7    A    
O5    Zn1   S    
C3    C20   A    
C14   O10   S    
C7    H10   S    
C6    C13   S    
C11   C13   D    
C11   H9    S    
C4    H12   S    
C15   O2    S    
N1    Zn2   S    
C8    C10   A    
C17   C19   S    
C17   O9    A    
C5    C11   S    
C18   C20   A    
O6    Zn1   S    
O9    Zn1   S    
C10   H1    S    
C2    H4    S    
C3    H13   S    
C16   O6    A    
C9    C18   A    
C9    H7    S    
N2    Zn1   S    
C4    C6    A    
H14   N1    S    
C5    C7    A    
O4    Zn2   S    
C14   C15   D    
H6    O2    S    
C6    C8    A    
C1    C14   S    
C1    O4    A    
C2    C19   A    
C8    H11   S    
H5    O10   S    
C16   C18   S    
O8    Zn2   S    
O3    Zn2   S    
C3    C5    A    
