data_mof_unit_2940.cif
_audit_creation_date              2012-12-11T14:20:59-0500
_audit_creation_method            fapswitch 2.2
_symmetry_space_group_name_H-M    P1
_symmetry_Int_Tables_number       1
_space_group_crystal_system       triclinic
_cell_length_a                    11.637091
_cell_length_b                    11.673101
_cell_length_c                    19.528633
_cell_angle_alpha                 89.898359
_cell_angle_beta                  90.507254
_cell_angle_gamma                 59.813553
_cell_volume                      2292.90392545

loop_
_atom_site_label
_atom_site_type_symbol
_atom_type_description
_atom_site_fract_x
_atom_site_fract_y
_atom_site_fract_z
_atom_type_partial_charge
C1    C     C_R   0.640817 0.115987 0.599261 0.542782
C2    C     C_1   0.654864 0.147380 0.668540 0.003785
C3    C     C_R   0.691388 0.610579 0.203674 0.008521
C4    C     C_R   0.614049 0.743473 0.597782 0.554428
C5    C     C_R   0.581452 0.625325 0.240841 0.006380
C6    C     C_R   0.531060 0.722168 0.290181 0.026902
C7    C     C_R   0.733892 0.727407 0.294121 -0.140412
C8    C     C_R   0.762968 0.672101 0.228804 -0.020577
C9    C     C_R   0.499712 0.576043 0.218557 -0.091643
C10   C     C_R   0.363522 0.659931 0.218510 -0.122248
C11   C     C_R   0.312090 0.775597 0.255772 -0.143897
C12   C     C_1   0.652653 0.682691 0.663966 -0.000978
C13   C     C_R   0.394099 0.800190 0.296746 -0.092921
C14   C     C_R   0.616950 0.750499 0.325384 -0.015764
C15   C     C_R   0.130217 0.206778 0.197966 -0.007102
C16   C     C_R   0.242490 0.144330 0.598244 0.545711
C17   C     C_R   0.149957 0.298555 0.236178 0.035324
C18   C     C_R   0.131615 0.304301 0.307332 0.046260
C19   C     C_R   0.131653 0.098978 0.304854 -0.177156
C20   C     C_R   0.114464 0.111412 0.233870 -0.150169
C21   C     C_R   0.180580 0.389345 0.206221 -0.103222
C22   C     C_R   0.158329 0.500923 0.241915 -0.166397
C23   C     C_1   0.124805 0.200962 0.859185 0.003467
C24   C     C_R   0.112333 0.521185 0.308816 -0.145638
C25   C     C_R   0.101663 0.421779 0.342247 -0.083669
C26   C     C_R   0.152155 0.188823 0.341490 -0.013551
C27   C     C_R   0.688669 0.180785 0.199451 -0.026439
C28   C     C_R   0.645886 0.117816 0.404997 0.524763
C29   C     C_R   0.796377 0.082275 0.240147 0.035435
C30   C     C_R   0.793074 0.095362 0.311659 0.022187
C31   C     C_R   0.563787 0.273548 0.303936 -0.020265
C32   C     C_R   0.571745 0.270425 0.232359 -0.164026
C33   C     C_R   0.903771 0.965186 0.213744 -0.113189
C34   C     C_1   0.171783 0.170080 0.727657 -0.030334
C35   C     C_R   0.999356 0.869937 0.256756 -0.176008
C36   C     C_R   0.004878 0.895245 0.325341 -0.135361
C37   C     C_R   0.907515 0.013902 0.351520 -0.079838
C38   C     C_R   0.671102 0.173413 0.342825 -0.002827
C39   C     C_R   0.079746 0.232654 0.928410 0.543979
C40   C     C_R   0.585209 0.796612 0.394886 0.551574
C41   C     C_R   0.708373 0.546904 0.923058 0.563106
C42   C     C_R   0.707964 0.207653 0.930145 0.538669
C43   C     C_R   0.081643 0.236980 0.126438 0.535448
C44   C     C_R   0.707117 0.559536 0.133978 0.545911
C45   C     C_1   0.149030 0.183744 0.798916 -0.030456
C46   C     C_R   0.710869 0.209441 0.128091 0.526907
C47   C     C_R   0.234413 0.146600 0.404694 0.525393
C48   C     C_1   0.697870 0.580896 0.852002 -0.000185
C49   C     C_1   0.673770 0.643756 0.722298 -0.030996
C50   C     C_1   0.688923 0.608042 0.792030 -0.032482
C51   C     C_3   0.442962 0.387800 0.336763 -0.235483
C52   C     C_3   0.481394 0.459801 0.390113 -0.279035
C53   C     C_3   0.358129 0.573265 0.422625 -0.426055
C54   C     C_3   0.853454 0.699298 0.185393 -0.221799
C55   C     C_3   0.773100 0.808594 0.131269 -0.271534
C56   C     C_1   0.196484 0.159638 0.667371 0.003596
C57   C     C_3   0.857664 0.797214 0.069219 -0.416625
C58   C     C_1   0.677198 0.193449 0.860668 0.000441
C59   C     C_1   0.659774 0.166118 0.728849 -0.030973
C60   C     C_1   0.665204 0.182002 0.800155 -0.031629
Cr1   Cr    Cr6+3 0.404720 0.198220 0.499960 1.000224
Cr2   Cr    Cr6+3 0.698290 0.897110 0.500380 1.017866
Cr3   Cr    Cr6+3 0.396970 0.904720 0.499610 0.998065
Cr4   Cr    Cr6+3 0.926180 0.151990 0.028120 1.006169
Cr5   Cr    Cr6+3 0.921330 0.451820 0.027470 0.988103
Cr6   Cr    Cr6+3 0.626260 0.446870 0.028710 1.008704
H1    H     H_    0.794700 0.763087 0.317603 0.150089
H2    H     H_    0.538871 0.489555 0.187825 0.156054
H3    H     H_    0.301512 0.641193 0.184684 0.096041
H4    H     H_    0.212344 0.849706 0.250469 0.121371
H5    H     H_    0.353405 0.887946 0.327013 0.146019
H6    H     H_    0.134810 0.017026 0.331516 0.128388
H7    H     H_    0.219197 0.376813 0.154913 0.136609
H8    H     H_    0.089324 0.046633 0.206616 0.153153
H9    H     H_    0.297193 0.648139 0.383101 0.149711
H10   H     H_    0.297639 0.535598 0.447127 0.140153
H11   H     H_    0.388212 0.621262 0.462334 0.177084
H12   H     H_    0.173606 0.572375 0.216075 0.089591
H13   H     H_    0.544527 0.390965 0.431439 0.172581
H14   H     H_    0.539322 0.499944 0.365225 0.183908
H15   H     H_    0.381458 0.461633 0.297243 0.146619
H16   H     H_    0.378350 0.353584 0.359147 0.205090
H17   H     H_    0.957679 0.778018 0.085027 0.119767
H18   H     H_    0.871286 0.714319 0.036091 0.194049
H19   H     H_    0.806938 0.890362 0.038651 0.161365
H20   H     H_    0.684350 0.805469 0.112567 0.196719
H21   H     H_    0.732108 0.907444 0.155055 0.147450
H22   H     H_    0.907250 0.732220 0.218285 0.129789
H23   H     H_    0.091544 0.610256 0.335759 0.114169
H24   H     H_    0.933895 0.606981 0.162948 0.194668
H25   H     H_    0.071995 0.435754 0.395389 0.132116
H26   H     H_    0.912283 0.936798 0.161353 0.157079
H27   H     H_    0.486395 0.339477 0.201959 0.109516
H28   H     H_    0.073847 0.778482 0.235295 0.097019
H29   H     H_    0.085316 0.824845 0.357743 0.099859
H30   H     H_    0.913937 0.034366 0.405102 0.125078
O1    O     O_R   0.267740 0.231960 0.575440 -0.507298
O2    O     O_R   0.596130 0.579390 0.952730 -0.492551
O3    O     O_R   0.639060 0.321160 0.958670 -0.506763
O4    O     O_R   0.527280 0.186640 0.570530 -0.495873
O5    O     O_R   0.821240 0.124200 0.104370 -0.533894
O6    O     O_R   0.036890 0.167040 0.097840 -0.498324
O7    O     O_R   0.056180 0.349610 0.102880 -0.538089
O8    O     O_R   0.797660 0.564870 0.097950 -0.510696
O9    O     O_R   0.595880 0.584250 0.104270 -0.513952
O10   O     O_R   0.638830 0.325670 0.099150 -0.525087
O11   O     O_3   0.824590 0.350230 0.028100 -0.285301
O12   O     O_R   0.685970 0.784660 0.430010 -0.502718
O13   O     O_R   0.728090 0.003450 0.576380 -0.508624
O14   O     O_R   0.682970 0.789190 0.570490 -0.488542
O15   O     O_R   0.499290 0.771880 0.575530 -0.506391
O16   O     O_R   0.285330 0.030870 0.569730 -0.493772
O17   O     O_R   0.270980 0.227080 0.423890 -0.530737
O18   O     O_R   0.530280 0.182120 0.430050 -0.511576
O19   O     O_R   0.731330 0.998570 0.424830 -0.526037
O20   O     O_R   0.502530 0.767000 0.423990 -0.529215
O21   O     O_R   0.288330 0.026350 0.429250 -0.527637
O22   O     O_3   0.499990 0.000020 0.499980 -0.265298
O23   O     O_R   0.821500 0.119340 0.952830 -0.509052
O24   O     O_R   0.037130 0.162530 0.957360 -0.490985
O25   O     O_R   0.056440 0.344740 0.951340 -0.513477
O26   O     O_R   0.797900 0.560360 0.957470 -0.498427

loop_
_geom_bond_atom_site_label_1
_geom_bond_atom_site_label_2
_ccdc_geom_bond_type
Cr6   O3    S    
C34   C56   T    
C23   C45   T    
C29   C33   A    
C27   C29   A    
C19   C20   A    
C18   C26   A    
Cr6   O11   S    
C24   H23   S    
C42   C58   S    
C12   C49   T    
C44   O8    A    
C11   H4    S    
C7    C8    A    
C44   O9    A    
Cr4   O6    S    
Cr4   O23   S    
C36   C37   A    
C54   H24   S    
C5    C6    A    
Cr3   O21   S    
C16   O1    A    
Cr2   O12   S    
C58   C60   T    
C39   O24   A    
C21   H7    S    
C30   C38   A    
C15   C17   A    
C1    C2    S    
Cr3   O16   S    
C19   C26   A    
C1    O13   A    
C7    C14   A    
C35   C36   A    
C57   H17   S    
Cr5   O25   S    
C4    C12   S    
C52   H13   S    
C9    C10   A    
C51   H15   S    
C40   O12   A    
C48   C50   T    
C32   H27   S    
Cr1   O22   S    
C59   C60   S    
C21   C22   A    
Cr3   O15   S    
C19   H6    S    
C53   H9    S    
C18   C25   A    
Cr6   O10   S    
C1    O4    A    
C9    H2    S    
Cr4   O5    S    
C46   O5    A    
C3    C44   S    
C25   H25   S    
C51   C52   S    
C24   C25   A    
C22   H12   S    
C3    C8    A    
C33   H26   S    
C8    C54   S    
Cr3   O22   S    
C2    C59   T    
C13   H5    S    
C7    H1    S    
C17   C21   A    
C30   C37   A    
C15   C20   A    
C41   O26   A    
C53   H11   S    
C16   C56   S    
C5    C9    A    
C29   C30   A    
C28   O19   A    
C6    C14   A    
C31   C32   A    
Cr2   O14   S    
C28   C38   S    
C17   C18   A    
C57   H18   S    
C20   H8    S    
C34   C45   S    
Cr5   O26   S    
C51   H16   S    
C28   O18   A    
C26   C47   S    
Cr3   O20   S    
C27   C46   S    
C4    O15   A    
C55   C57   S    
Cr1   O17   S    
C22   C24   A    
Cr1   O4    S    
Cr5   O7    S    
Cr6   O9    S    
C52   C53   S    
C16   O16   A    
Cr4   O11   S    
C35   H28   S    
C47   O17   A    
C4    O14   A    
C54   C55   S    
C27   C32   A    
Cr1   O1    S    
C31   C51   S    
C3    C5    A    
Cr4   O24   S    
C39   O25   A    
C31   C38   A    
Cr6   O2    S    
C55   H20   S    
C43   O6    A    
C15   C43   S    
Cr2   O19   S    
C42   O3    A    
C6    C13   A    
C54   H22   S    
C11   C13   A    
C36   H29   S    
C40   O20   A    
Cr2   O13   S    
C23   C39   S    
C46   O10   A    
C33   C35   A    
C41   C48   S    
C57   H19   S    
C55   H21   S    
C42   O23   A    
C43   O7    A    
Cr2   O22   S    
C10   C11   A    
C14   C40   S    
C53   H10   S    
C10   H3    S    
C47   O21   A    
C37   H30   S    
C49   C50   S    
Cr1   O18   S    
C41   O2    A    
Cr5   O8    S    
C52   H14   S    
Cr5   O11   S    
