data_mof_unit_2742.cif
_audit_creation_date              2013-03-05T16:03:17-0500
_audit_creation_method            fapswitch 2.2
_symmetry_space_group_name_H-M    P1
_symmetry_Int_Tables_number       1
_space_group_crystal_system       triclinic
_cell_length_a                    27.77735
_cell_length_b                    11.716245
_cell_length_c                    10.465303
_cell_angle_alpha                 89.71633
_cell_angle_beta                  89.721495
_cell_angle_gamma                 90.036094
_cell_volume                      3405.81078407

loop_
_atom_site_label
_atom_site_type_symbol
_atom_site_description
_atom_site_fract_x
_atom_site_fract_y
_atom_site_fract_z
_atom_type_partial_charge
O1    O     O_R   0.500000 0.337200 0.605810 -0.565864
O2    O     O_R   0.500000 0.662800 0.394190 -0.565893
O3    O     O_R   0.500000 0.662800 0.605810 -0.572245
O4    O     O_R   0.500000 0.337200 0.394190 -0.572704
C1    C     C_R   0.500001 0.283325 0.500246 0.823240
C2    C     C_R   0.500000 0.716675 0.499754 0.823345
O5    O     O_R   0.430260 0.500000 0.605800 -0.573004
O6    O     O_R   0.569740 0.500000 0.394200 -0.574764
O7    O     O_R   0.569740 0.500000 0.605800 -0.574002
O8    O     O_R   0.430260 0.500000 0.394200 -0.572079
C3    C     C_R   0.407233 0.500451 0.500342 0.847646
C4    C     C_R   0.592804 0.499446 0.499655 0.849221
Cu1   Cu    Cu3+1 0.500000 0.500000 0.625300 0.988928
Cu2   Cu    Cu3+1 0.500000 0.500000 0.374700 0.988329
C5    C     C_R   0.177680 0.456209 0.604197 0.600955
C6    C     C_R   0.822624 0.543622 0.397449 0.605975
C7    C     C_R   0.177915 0.571608 0.415980 0.602690
C8    C     C_R   0.822492 0.425967 0.583918 0.597427
O9    O     O_2   0.202392 0.400069 0.695707 -0.529444
O10   O     O_2   0.797961 0.601964 0.307574 -0.524172
O11   O     O_2   0.202884 0.629292 0.325473 -0.534103
O12   O     O_2   0.797672 0.367449 0.674041 -0.530378
N1    N     N_R   0.201926 0.511195 0.507866 -0.441913
N2    N     N_R   0.798347 0.486712 0.492426 -0.443487
C9    C     C_R   0.279859 0.569876 0.597067 0.445140
C10   C     C_R   0.720336 0.434964 0.397377 0.465918
C11   C     C_R   0.277954 0.444935 0.411696 0.442644
C12   C     C_R   0.722178 0.545231 0.594401 0.439731
C13   C     C_R   0.330117 0.563933 0.597094 -0.297358
C14   C     C_R   0.669981 0.443137 0.397155 -0.314589
C15   C     C_R   0.328311 0.445414 0.407795 -0.296780
C16   C     C_R   0.671858 0.545129 0.597992 -0.296260
C17   C     C_R   0.253602 0.508600 0.505544 0.149666
C18   C     C_R   0.746589 0.488929 0.494681 0.147845
C19   C     C_R   0.101734 0.512792 0.509681 -0.061219
C20   C     C_R   0.898623 0.486256 0.491078 -0.062023
C21   C     C_R   0.127165 0.457493 0.607833 -0.064902
C22   C     C_R   0.873139 0.542318 0.393620 -0.066014
C23   C     C_R   0.127388 0.574615 0.416198 -0.061254
C24   C     C_R   0.873024 0.423611 0.583944 -0.065592
C25   C     C_R   0.101846 0.411815 0.711620 -0.268915
C26   C     C_R   0.898401 0.588762 0.290154 -0.265198
C27   C     C_R   0.102273 0.644468 0.331222 -0.271686
C28   C     C_R   0.898213 0.353656 0.668673 -0.269481
C29   C     C_R   0.354507 0.503172 0.501620 -0.162280
C30   C     C_R   0.645597 0.495984 0.498413 -0.161060
H1    H     H_    0.346830 0.397997 0.333776 0.179321
H2    H     H_    0.653436 0.586613 0.676540 0.182230
H3    H     H_    0.350033 0.609413 0.669647 0.179325
H4    H     H_    0.649927 0.406362 0.318924 0.175727
H5    H     H_    0.121273 0.379749 0.793834 0.185275
H6    H     H_    0.878919 0.621389 0.208305 0.184730
H7    H     H_    0.121864 0.701464 0.267805 0.180617
H8    H     H_    0.878695 0.296170 0.731686 0.182514
C31   C     C_R   0.974796 0.431645 0.591976 0.039734
C32   C     C_R   0.025587 0.567609 0.408702 0.039683
C33   C     C_R   0.974930 0.551746 0.396977 0.037310
C34   C     C_R   0.025403 0.447877 0.603969 0.037855
C35   C     C_R   0.949621 0.491182 0.494342 -0.092222
C36   C     C_R   0.050736 0.508124 0.506445 -0.093167
C37   C     C_R   0.948700 0.350525 0.666804 0.478287
C38   C     C_R   0.051791 0.648306 0.333533 0.478341
C39   C     C_R   0.948873 0.585489 0.286201 0.478004
C40   C     C_R   0.051367 0.414730 0.715113 0.477672
C41   C     C_1   0.500004 0.161964 0.500603 -0.176958
C42   C     C_1   0.499999 0.838037 0.499396 -0.176636
C43   C     C_1   0.500004 0.059724 0.500304 0.004207
C44   C     C_1   0.500001 0.940277 0.499694 0.004352
N3    N     N_1   0.500000 0.500000 0.186410 -0.140753
N4    N     N_1   0.500000 0.500000 0.813590 -0.140552
C45   C     C_1   0.500001 0.499999 0.072053 0.095814
C46   C     C_1   0.500001 0.500000 0.927947 0.096272
O13   O     O_3   0.252373 0.385460 0.320832 -0.573878
C47   C     C_3   0.245290 0.272834 0.365808 0.038401
H9    H     H_    0.228172 0.272250 0.462470 0.160615
H10   H     H_    0.280353 0.226832 0.370319 0.141770
C48   C     C_3   0.212034 0.209988 0.274018 -0.296399
H11   H     H_    0.177380 0.256936 0.266442 0.232503
H12   H     H_    0.228999 0.207058 0.177666 0.235145
C49   C     C_3   0.201973 0.088396 0.319987 -0.909256
H13   H     H_    0.236093 0.039489 0.327742 0.259624
H14   H     H_    0.178139 0.044736 0.250748 0.265421
H15   H     H_    0.183708 0.089645 0.414635 0.259570
O14   O     O_3   0.747627 0.596815 0.691375 -0.569324
C50   C     C_3   0.756670 0.711317 0.656022 0.038711
H16   H     H_    0.722295 0.760256 0.653018 0.142194
H17   H     H_    0.774745 0.716772 0.560751 0.155822
C51   C     C_3   0.789817 0.765257 0.754896 -0.295241
H18   H     H_    0.771909 0.763439 0.850121 0.236667
H19   H     H_    0.823693 0.715032 0.760965 0.233329
C52   C     C_3   0.802078 0.888472 0.719603 -0.907659
H20   H     H_    0.821449 0.891667 0.626530 0.257884
H21   H     H_    0.825671 0.925590 0.794024 0.266093
H22   H     H_    0.768762 0.940574 0.713179 0.261723
O15   O     O_3   0.256137 0.632283 0.689572 -0.572893
C53   C     C_3   0.251911 0.746049 0.645897 0.035639
H23   H     H_    0.235319 0.749842 0.549086 0.161537
H24   H     H_    0.288027 0.787437 0.642289 0.142455
C54   C     C_3   0.219699 0.812183 0.738142 -0.298248
H25   H     H_    0.183936 0.769792 0.744593 0.232308
H26   H     H_    0.236157 0.811844 0.834754 0.236122
C55   C     C_3   0.212822 0.935380 0.693740 -0.904883
H27   H     H_    0.248089 0.979884 0.687580 0.258826
H28   H     H_    0.189538 0.981257 0.763034 0.268301
H29   H     H_    0.195264 0.937558 0.598620 0.258505
O16   O     O_3   0.744627 0.383331 0.297193 -0.570440
C56   C     C_3   0.736924 0.263826 0.299260 0.051814
H30   H     H_    0.744850 0.231562 0.201764 0.188546
H31   H     H_    0.698901 0.239666 0.320499 0.122589
C57   C     C_3   0.771078 0.205134 0.393662 -0.361377
H32   H     H_    0.808699 0.232683 0.373826 0.236502
H33   H     H_    0.761403 0.230283 0.492626 0.239039
C58   C     C_3   0.767975 0.075446 0.383911 -0.881055
H34   H     H_    0.730806 0.045949 0.405742 0.254065
H35   H     H_    0.792965 0.035853 0.453685 0.261504
H36   H     H_    0.778320 0.047215 0.286406 0.263249
O17   O     O_3   0.972530 0.260978 0.725349 -0.686362
H37   H     H_    0.949013 0.211241 0.770540 0.325457
O18   O     O_3   0.028122 0.738175 0.275150 -0.686282
H38   H     H_    0.051712 0.787545 0.229720 0.324748
O19   O     O_3   0.972652 0.601937 0.171153 -0.675621
H39   H     H_    0.949133 0.621816 0.103606 0.330405
O20   O     O_3   0.027447 0.398413 0.829983 -0.675853
H40   H     H_    0.050902 0.378939 0.897831 0.330671

loop_
_geom_bond_atom_site_label_1
_geom_bond_atom_site_label_2
_geom_bond_distance
_ccdc_geom_bond_type
O5    Cu1   1.948898 S    
C42   C44   1.197893 T    
C31   C35   1.421303 A    
C12   O14   1.381095 S    
C16   H2    1.083507 S    
O13   C47   1.412121 S    
O15   C53   1.412100 S    
C20   C35   1.418307 A    
C10   O16   1.385779 S    
O20   H40   0.991860 S    
C13   H3    1.083615 S    
C48   H11   1.111963 S    
C11   C17   1.407114 A    
O5    C3    1.278287 A    
C7    N1    1.367711 A    
C47   H10   1.114536 S    
O1    C1    1.275082 A    
C19   C21   1.405338 A    
C22   C26   1.395433 A    
C50   C51   1.527361 S    
O16   C56   1.416309 S    
C34   C36   1.421383 A    
C53   C54   1.527358 S    
C32   C33   1.425177 A    
C55   H29   1.110844 S    
C7    C23   1.403958 A    
N3    C45   1.196781 T    
O7    Cu1   1.946922 S    
C57   H32   1.111801 S    
C5    C21   1.403602 A    
C20   C24   1.405143 A    
C8    C24   1.403921 A    
C5    O9    1.349693 S    
C27   H7    1.083593 S    
C41   C43   1.197891 T    
C47   C48   1.527418 S    
C53   H24   1.114371 S    
C56   H30   1.110940 S    
O3    Cu1   1.917275 S    
O6    C4    1.278785 A    
C58   H36   1.110789 S    
O3    C2    1.274125 A    
C50   H17   1.115662 S    
C14   H4    1.083438 S    
C12   C18   1.408732 A    
C6    N2    1.368801 A    
C15   H1    1.083538 S    
Cu1   Cu2   2.622605 S    
C9    C13   1.397809 A    
C56   H31   1.114331 S    
O2    C2    1.275079 A    
C49   H15   1.110867 S    
C39   O19   1.383070 S    
C10   C18   1.407668 A    
C33   C39   1.424129 A    
C48   H12   1.111647 S    
C34   C40   1.424054 A    
C47   H9    1.115677 S    
C11   C15   1.399191 A    
C43   C44   1.399513 S    
C12   C16   1.398070 A    
O14   C50   1.411902 S    
C1    C41   1.421879 S    
O8    Cu2   1.946925 S    
C52   H20   1.110938 S    
C49   H13   1.110940 S    
C23   C27   1.395310 A    
N1    C17   1.435870 S    
C50   H16   1.114574 S    
C37   O17   1.383023 S    
N2    C18   1.438041 S    
C32   C36   1.421471 A    
C13   C29   1.401841 A    
C19   C36   1.418175 A    
C19   C23   1.405396 A    
C52   H21   1.110476 S    
C54   H25   1.111984 S    
C51   C52   1.526208 S    
C2    C42   1.421885 S    
C6    O10   1.349713 S    
C53   H23   1.115802 S    
O19   H39   0.991866 S    
C55   H28   1.110346 S    
C57   C58   1.525803 S    
C38   O18   1.382978 S    
C4    C30   1.467016 S    
C54   H26   1.111641 S    
C51   H19   1.112056 S    
C10   C14   1.402092 A    
C15   C29   1.401600 A    
C56   C57   1.533671 S    
C8    N2    1.368661 A    
C3    C29   1.464942 S    
O1    Cu1   1.919283 S    
C58   H34   1.110893 S    
C48   C49   1.526588 S    
O6    Cu2   1.948895 S    
C8    O12   1.349675 S    
C16   C30   1.400898 A    
C14   C30   1.401835 A    
O4    C1    1.274123 A    
O18   H38   0.991850 S    
C9    O15   1.381108 S    
C28   C37   1.402939 A    
C40   O20   1.383104 S    
C20   C22   1.404904 A    
C45   C46   1.508112 S    
O4    Cu2   1.917275 S    
C6    C22   1.403648 A    
O17   H37   0.991843 S    
C52   H22   1.111072 S    
C31   C37   1.424162 A    
C5    N1    1.367970 A    
Cu2   N3    1.970512 S    
C49   H14   1.110360 S    
C32   C38   1.424349 A    
C21   C25   1.395394 A    
C55   H27   1.110899 S    
O2    Cu2   1.919283 S    
O7    C4    1.279691 A    
C57   H33   1.110002 S    
C33   C35   1.421720 A    
O8    C3    1.279150 A    
C28   H8    1.083574 S    
C24   C28   1.395400 A    
C54   C55   1.526561 S    
C51   H18   1.111753 S    
Cu1   N4    1.970513 S    
C31   C34   1.424655 A    
C9    C17   1.406312 A    
N4    C46   1.196781 T    
C25   C40   1.402919 A    
C11   O13   1.381012 S    
C26   C39   1.402950 A    
C25   H5    1.083597 S    
C27   C38   1.403100 A    
C26   H6    1.083614 S    
C58   H35   1.110049 S    
C7    O11   1.349677 S    
