data_mof_unit_613.cif
_audit_creation_date              2012-12-11T15:48:03-0500
_audit_creation_method            fapswitch 2.2
_symmetry_space_group_name_H-M    P1
_symmetry_Int_Tables_number       1
_space_group_crystal_system       triclinic
_cell_length_a                    6.926978
_cell_length_b                    17.609841
_cell_length_c                    19.453283
_cell_angle_alpha                 108.547474
_cell_angle_beta                  89.411442
_cell_angle_gamma                 90.702761
_cell_volume                      2249.4983925

loop_
_atom_site_label
_atom_site_type_symbol
_atom_type_description
_atom_site_fract_x
_atom_site_fract_y
_atom_site_fract_z
_atom_type_partial_charge
O1    O     O_R   0.494330 0.415710 0.413720 -0.534331
O2    O     O_R   0.819360 0.430070 0.560210 -0.547319
O3    O     O_R   0.994320 0.584290 0.586280 -0.543441
C1    C     C_R   0.649823 0.414418 0.581424 0.694218
O4    O     O_R   0.823740 0.406290 0.412670 -0.543775
O5    O     O_R   0.998730 0.560340 0.437690 -0.532493
C2    C     C_R   0.654764 0.382950 0.384785 0.727643
O6    O     O_R   0.489920 0.439660 0.562310 -0.542429
O7    O     O_3   0.662330 0.550570 0.508380 -0.360924
V1    V     V_3+5 0.935370 0.490620 0.498440 1.428738
O8    O     O_R   0.328720 0.569930 0.439790 -0.523067
C3    C     C_R   0.161982 0.582267 0.415709 0.761975
O9    O     O_R   0.324340 0.593710 0.587330 -0.545929
C4    C     C_R   0.155149 0.616916 0.615312 0.678699
V2    V     V_3+5 0.435940 0.509380 0.501560 1.447889
O10   O     O_3   0.159110 0.449430 0.491620 -0.375737
C5    C     C_R   0.312400 0.723914 0.718452 -0.148789
H1    H     H_    0.453395 0.704851 0.695281 0.116683
C6    C     C_R   0.301199 0.787706 0.783408 -0.135550
H2    H     H_    0.434139 0.815936 0.808153 0.119614
C7    C     C_R   0.121267 0.814694 0.815826 -0.043927
C8    C     C_R   0.952857 0.776135 0.781389 -0.146318
H3    H     H_    0.811852 0.795196 0.804552 0.116223
C9    C     C_R   0.964056 0.712350 0.716439 -0.144294
H4    H     H_    0.831102 0.684130 0.691697 0.117523
C10   C     C_R   0.143984 0.685335 0.684034 -0.045408
C11   C     C_R   0.308367 0.624038 0.311947 0.088281
C12   C     C_R   0.157819 0.628771 0.363602 -0.117752
C13   C     C_R   0.998753 0.678278 0.365368 -0.211191
C14   C     C_R   0.988097 0.724293 0.318547 0.095750
C15   C     C_R   0.140186 0.722229 0.269275 0.022666
C16   C     C_R   0.301496 0.672518 0.265975 0.058792
C17   C     C_R   0.827553 0.772941 0.320601 -0.160133
C18   C     C_R   0.816750 0.819025 0.273985 -0.185292
C19   C     C_R   0.966821 0.817764 0.224700 0.091552
C20   C     C_R   0.129929 0.769733 0.222705 0.067477
C21   C     C_R   0.282763 0.769200 0.174137 0.093581
C22   C     C_R   0.442347 0.720516 0.171407 -0.202107
C23   C     C_R   0.451364 0.672603 0.216256 -0.146952
C24   C     C_R   0.957092 0.863879 0.177591 -0.219952
C25   C     C_R   0.111090 0.864512 0.129941 -0.082785
C26   C     C_R   0.273828 0.817280 0.128973 -0.218639
H5    H     H_    0.882569 0.681485 0.403957 0.150082
H6    H     H_    0.709297 0.774961 0.358035 0.140362
H7    H     H_    0.690639 0.855631 0.276457 0.137095
H8    H     H_    0.831464 0.900503 0.179029 0.124308
H9    H     H_    0.392621 0.816959 0.092131 0.127818
H10   H     H_    0.561330 0.719544 0.134513 0.135276
H11   H     H_    0.579318 0.637012 0.211858 0.172217
C27   C     C_R   0.471728 0.187227 0.869010 -0.152284
C28   C     C_R   0.624516 0.135641 0.869881 -0.107105
C29   C     C_R   0.782354 0.130286 0.822558 -0.159125
C30   C     C_R   0.787629 0.174763 0.773661 0.009098
C31   C     C_R   0.633134 0.226815 0.773818 0.010131
C32   C     C_R   0.475476 0.233121 0.821836 0.156813
C33   C     C_R   0.941800 0.168098 0.723953 0.382453
C34   C     C_R   0.944002 0.214457 0.677259 -0.218389
C35   C     C_R   0.792374 0.266640 0.677735 0.021212
C36   C     C_R   0.635011 0.272217 0.725469 0.061076
C37   C     C_R   0.479250 0.323120 0.724823 0.118005
C38   C     C_R   0.323892 0.328763 0.772950 -0.191809
C39   C     C_R   0.322395 0.284448 0.821201 -0.142217
C40   C     C_R   0.795332 0.313047 0.630904 -0.188200
C41   C     C_R   0.640892 0.363984 0.629810 -0.080559
C42   C     C_R   0.482089 0.367886 0.676451 -0.219486
H12   H     H_    0.349375 0.191826 0.905279 0.123720
H13   H     H_    0.898607 0.090050 0.823255 0.180079
H14   H     H_    0.064497 0.209223 0.640085 0.168101
H15   H     H_    0.917787 0.308997 0.594781 0.128332
H16   H     H_    0.362863 0.407174 0.676339 0.121301
H17   H     H_    0.203077 0.367366 0.773187 0.125266
H18   H     H_    0.200013 0.289583 0.857500 0.121373
C43   C     C_R   0.811575 0.275941 0.281807 -0.144380
H19   H     H_    0.952233 0.294767 0.305254 0.116655
C44   C     C_R   0.800464 0.212209 0.216811 -0.145973
H20   H     H_    0.933104 0.183781 0.192322 0.118206
C45   C     C_R   0.620982 0.185470 0.184071 -0.047518
C46   C     C_R   0.452941 0.224356 0.218139 -0.150482
H21   H     H_    0.312297 0.205566 0.194664 0.116819
C47   C     C_R   0.464060 0.288100 0.283135 -0.125949
H22   H     H_    0.331463 0.316606 0.307592 0.123013
C48   C     C_R   0.643517 0.314705 0.315952 -0.040104
O11   O     O_R   0.774940 0.060470 0.937800 -0.540290
O12   O     O_R   0.440880 0.093730 0.087350 -0.545163
O13   O     O_R   0.266130 0.939630 0.062280 -0.541429
C49   C     C_R   0.609784 0.117017 0.115365 0.683184
O14   O     O_R   0.445480 0.069960 0.939820 -0.535965
O15   O     O_R   0.270770 0.915690 0.913690 -0.539776
C50   C     C_R   0.615059 0.085584 0.918586 0.721900
O16   O     O_R   0.770300 0.084410 0.086380 -0.542565
O17   O     O_3   0.602600 0.949510 0.991670 -0.372628
V3    V     V_3+5 0.329470 0.009370 0.001550 1.421554
O18   O     O_R   0.940760 0.906160 0.912560 -0.544672
C51   C     C_R   0.110010 0.883056 0.884585 0.698468
O19   O     O_R   0.936150 0.929930 0.060100 -0.543870
C52   C     C_R   0.103833 0.914824 0.081677 0.706471
V4    V     V_3+5 0.828930 0.990450 0.998310 1.410808
O20   O     O_3   0.105670 0.050490 0.008320 -0.368795
Cl1   Cl    Cl    0.133607 0.101001 0.716695 -0.668196
I1    I     I_    0.535042 0.537653 0.296801 -0.443037

loop_
_geom_bond_atom_site_label_1
_geom_bond_atom_site_label_2
_ccdc_geom_bond_type
O18   C51   A    
C43   H19   S    
O19   C52   A    
C1    O6    A    
V4    O20   S    
V3    O20   S    
C30   C31   A    
C24   H8    S    
C13   C14   A    
C3    C12   S    
C5    C10   A    
C12   C13   A    
C6    C7    A    
O12   C49   A    
C15   C20   A    
O5    C3    A    
C14   C15   A    
O13   C52   A    
C46   C47   A    
C25   C52   S    
C7    C51   S    
C42   H16   S    
C32   C39   A    
C33   C34   A    
C18   C19   A    
C25   C26   A    
C16   C23   A    
C21   C26   A    
O8    V2    S    
O15   V3    S    
O1    V2    S    
O9    C4    A    
O7    V1    S    
O16   V4    S    
C22   H10   S    
C38   H17   S    
C36   C37   A    
O14   V3    S    
C13   H5    S    
C43   C44   A    
O13   V3    S    
C17   C18   A    
C31   C36   A    
O11   C50   A    
O15   C51   A    
C11   I1    S    
C28   C29   A    
C40   H15   S    
C9    H4    S    
C47   C48   A    
C49   O16   A    
O17   V3    S    
O4    C2    A    
C46   H21   S    
C27   C28   A    
C35   C36   A    
C45   C46   A    
O17   V4    S    
C37   C38   A    
C19   C20   A    
O2    C1    A    
C44   H20   S    
O5    V1    S    
C21   C22   A    
C27   H12   S    
C15   C16   A    
C5    H1    S    
C39   H18   S    
C18   H7    S    
C4    C10   S    
C44   C45   A    
O3    C4    A    
C24   C25   A    
C23   H11   S    
C45   C49   S    
O6    V2    S    
O14   C50   A    
C8    C9    A    
C34   H14   S    
O2    V1    S    
O18   V4    S    
C43   C48   A    
C29   C30   A    
C30   C33   A    
C35   C40   A    
C31   C32   A    
C20   C21   A    
C14   C17   A    
C11   C16   A    
O1    C2    A    
C17   H6    S    
C9    C10   A    
C47   H22   S    
C37   C42   A    
O8    C3    A    
O19   V4    S    
C1    C41   S    
C27   C32   A    
C41   C42   A    
C6    H2    S    
O9    V2    S    
C19   C24   A    
O7    V2    S    
O4    V1    S    
O3    V1    S    
V1    O10   S    
C28   C50   S    
C34   C35   A    
C22   C23   A    
C29   H13   S    
C5    C6    A    
C26   H9    S    
C38   C39   A    
C40   C41   A    
C2    C48   S    
O11   V4    S    
C11   C12   A    
C8    H3    S    
O12   V3    S    
C33   Cl1   S    
C7    C8    A    
V2    O10   S    
