data_mof_unit_630.cif
_audit_creation_date              2012-12-10T19:45:42-0500
_audit_creation_method            fapswitch 2.2
_symmetry_space_group_name_H-M    P1
_symmetry_Int_Tables_number       1
_space_group_crystal_system       triclinic
_cell_length_a                    10.907219
_cell_length_b                    14.755352
_cell_length_c                    14.774805
_cell_angle_alpha                 65.325208
_cell_angle_beta                  103.764534
_cell_angle_gamma                 102.630169
_cell_volume                      2079.41522131

loop_
_atom_site_label
_atom_site_type_symbol
_atom_type_description
_atom_site_fract_x
_atom_site_fract_y
_atom_site_fract_z
_atom_type_partial_charge
C1    C     C_R   0.477312 0.119501 0.312405 0.793648
C2    C     C_R   0.521196 0.880262 0.687658 0.799092
C3    C     C_R   0.870091 0.000935 0.494051 -0.090289
C4    C     C_R   0.129900 0.001321 0.503221 -0.088677
C5    C     C_R   0.908377 0.939467 0.456220 0.016145
C6    C     C_R   0.091579 0.064229 0.539403 0.018882
C7    C     C_R   0.457868 0.187165 0.205058 -0.061972
C8    C     C_R   0.531779 0.811597 0.795002 -0.069766
C9    C     C_R   0.376851 0.217212 0.029115 -0.149829
C10   C     C_R   0.581858 0.781088 0.972883 -0.154588
C11   C     C_R   0.398593 0.150754 0.129564 -0.156833
C12   C     C_R   0.569440 0.847828 0.872438 -0.166549
C13   C     C_R   0.494308 0.290819 0.178884 -0.251861
C14   C     C_R   0.503332 0.707324 0.819769 -0.246428
C15   C     C_R   0.467587 0.360075 0.078734 0.086523
C16   C     C_R   0.509770 0.638223 0.920822 0.086832
C17   C     C_R   0.411098 0.321264 0.003124 0.151770
C18   C     C_R   0.552841 0.677068 0.997611 0.148930
C19   C     C_R   0.495522 0.466301 0.051774 0.068950
C20   C     C_R   0.476325 0.532083 0.947826 0.068111
C21   C     C_R   0.421138 0.489663 0.874856 -0.221429
C22   C     C_R   0.538379 0.508942 0.125521 -0.222366
C23   C     C_R   0.263024 0.999885 0.502008 0.785612
C24   C     C_R   0.736927 0.000751 0.497135 0.789677
C25   C     C_R   0.388199 0.386479 0.902424 -0.213557
C26   C     C_R   0.566159 0.612073 0.098569 -0.214214
C27   C     C_R   0.715378 0.289896 0.665264 -0.246998
C28   C     C_R   0.289427 0.711542 0.331820 -0.264827
C29   C     C_R   0.681209 0.206284 0.639977 0.370557
C30   C     C_R   0.318489 0.793468 0.359932 0.388544
C31   C     C_R   0.521742 0.286758 0.506446 -0.016184
C32   C     C_R   0.481731 0.714869 0.491300 -0.016520
C33   C     C_R   0.552848 0.374222 0.530956 -0.020940
C34   C     C_R   0.454016 0.628699 0.464778 -0.020810
C35   C     C_R   0.650672 0.372586 0.613334 0.097751
C36   C     C_R   0.357071 0.630497 0.381864 0.100820
C37   C     C_R   0.488769 0.461446 0.479475 0.080255
C38   C     C_R   0.520034 0.542383 0.515070 0.077237
C39   C     C_R   0.616560 0.534521 0.599236 -0.240712
C40   C     C_R   0.394237 0.470187 0.394002 -0.244612
C41   C     C_R   0.681799 0.451952 0.646119 -0.193124
C42   C     C_R   0.328717 0.552515 0.347222 -0.199561
C43   C     C_R   0.340199 0.159763 0.719285 0.189168
C44   C     C_R   0.653331 0.855618 0.271894 0.192771
C45   C     C_R   0.264844 0.094612 0.674576 -0.105296
C46   C     C_R   0.732926 0.917008 0.319122 -0.097285
C47   C     C_R   0.179766 0.132682 0.583976 0.093901
C48   C     C_R   0.819435 0.874888 0.407575 0.090168
C49   C     C_R   0.169129 0.236120 0.540712 -0.173928
C50   C     C_R   0.828474 0.771481 0.445377 -0.168990
C51   C     C_R   0.242228 0.300226 0.587021 -0.174364
C52   C     C_R   0.751198 0.711143 0.396317 -0.168239
C53   C     C_R   0.328278 0.262263 0.675807 -0.147235
C54   C     C_R   0.662630 0.752916 0.310474 -0.149138
C55   C     C_R   0.962326 0.062909 0.533780 -0.235277
C56   C     C_R   0.037652 0.940234 0.462323 -0.233786
Cu1   Cu    Cu3+1 0.466270 0.918260 0.475690 0.942663
Cu2   Cu    Cu3+1 0.533730 0.081740 0.524310 0.938676
H1    H     H_    0.386282 0.312643 0.710344 0.151334
H2    H     H_    0.600057 0.705244 0.274865 0.145674
H3    H     H_    0.331448 0.187344 0.971763 0.167458
H4    H     H_    0.614197 0.810868 0.031517 0.173034
H5    H     H_    0.397883 0.534112 0.795499 0.142101
H6    H     H_    0.548156 0.465100 0.205517 0.141431
H7    H     H_    0.756223 0.449358 0.710283 0.148838
H8    H     H_    0.255475 0.555611 0.282244 0.150576
H9    H     H_    0.557325 0.720805 0.551184 0.136226
H10   H     H_    0.445709 0.280946 0.446773 0.137964
H11   H     H_    0.790365 0.288166 0.728962 0.161873
H12   H     H_    0.213864 0.712510 0.268657 0.156828
H13   H     H_    0.644622 0.591299 0.630794 0.138289
H14   H     H_    0.368222 0.414380 0.361179 0.138541
H15   H     H_    0.272359 0.014855 0.710160 0.136423
H16   H     H_    0.726733 0.996923 0.287669 0.135460
H17   H     H_    0.102678 0.266778 0.471848 0.138909
H18   H     H_    0.895972 0.737811 0.512488 0.138445
H19   H     H_    0.232492 0.379521 0.553853 0.158404
H20   H     H_    0.758943 0.631696 0.425507 0.156715
H21   H     H_    0.934202 0.110282 0.562802 0.159577
H22   H     H_    0.065948 0.893949 0.431981 0.176480
H23   H     H_    0.344159 0.357482 0.844204 0.144815
H24   H     H_    0.598871 0.641162 0.157564 0.143220
H25   H     H_    0.478579 0.681759 0.758642 0.151039
H26   H     H_    0.545052 0.315396 0.238307 0.151971
H27   H     H_    0.590291 0.927354 0.856006 0.178221
H28   H     H_    0.368022 0.071248 0.148106 0.176075
N1    N     N_R   0.584450 0.204570 0.560790 -0.192073
N2    N     N_R   0.415550 0.795430 0.439210 -0.192224
O1    O     O_R   0.455540 0.022090 0.338120 -0.594267
O2    O     O_R   0.544460 0.977910 0.661880 -0.590553
O3    O     O_R   0.512510 0.160150 0.379180 -0.591109
O4    O     O_R   0.487490 0.839850 0.620820 -0.590105
O5    O     O_R   0.291160 0.930970 0.479480 -0.600239
O6    O     O_R   0.708840 0.069030 0.520520 -0.600329
O7    O     O_R   0.348130 0.069020 0.520540 -0.574635
O8    O     O_R   0.651870 0.930980 0.479460 -0.574294
N3    N     N_3   0.242195 0.873156 0.301131 -0.606162
H29   H     H_    0.261281 0.931450 0.325275 0.272090
H30   H     H_    0.261037 0.903601 0.227271 0.216396
N4    N     N_3   0.746377 0.121961 0.704836 -0.598579
H31   H     H_    0.787160 0.095821 0.665401 0.243623
H32   H     H_    0.685666 0.066407 0.750242 0.250999
I1    I     I_    0.471176 0.104476 0.852733 -0.427027
I2    I     I_    0.519020 0.917107 0.142732 -0.437931

loop_
_geom_bond_atom_site_label_1
_geom_bond_atom_site_label_2
_ccdc_geom_bond_type
C1    O1    A    
Cu1   O4    S    
C27   C29   A    
C5    C56   A    
C36   C42   A    
C19   C20   A    
C18   C26   A    
C6    C55   A    
Cu2   N1    S    
N3    H29   S    
C53   H1    S    
C39   C41   A    
C54   H2    S    
C29   N1    A    
C15   C19   A    
C13   H26   S    
Cu1   O1    S    
C12   H27   S    
C9    H3    S    
C37   C40   A    
C24   O6    A    
C24   O8    A    
C38   C39   A    
C11   H28   S    
C32   N2    A    
C45   H15   S    
C2    O2    A    
C3    C55   A    
C43   C53   A    
C52   C54   A    
C49   C51   A    
Cu1   O8    S    
C50   C52   A    
C49   H17   S    
Cu2   O3    S    
C27   H11   S    
C8    C12   A    
C9    C11   A    
C40   C42   A    
C26   H24   S    
C1    C7    S    
C4    C56   A    
C25   H23   S    
C3    C24   S    
C10   H4    S    
C14   H25   S    
C52   H20   S    
N3    H30   S    
C44   C46   A    
C45   C47   A    
C44   I2    S    
C31   H10   S    
C5    C48   S    
C46   C48   A    
C31   N1    A    
C6    C47   S    
C19   C22   A    
C4    C6    A    
C4    C23   S    
C41   H7    S    
C27   C35   A    
C33   C37   A    
C23   O5    A    
C51   C53   A    
C32   C34   A    
C7    C11   A    
Cu2   O7    S    
C51   H19   S    
C37   C38   A    
C50   H18   S    
C55   H21   S    
C30   N3    S    
C16   C20   A    
N4    H32   S    
C16   C18   A    
C2    O4    A    
C43   C45   A    
C10   C12   A    
Cu2   O2    S    
C32   H9    S    
C9    C17   A    
C13   C15   A    
C14   C16   A    
C30   N2    A    
C46   H16   S    
C15   C17   A    
C21   C25   A    
C31   C33   A    
C8    C14   A    
C40   H14   S    
C29   N4    S    
C34   C38   A    
C28   H12   S    
C3    C5    A    
C47   C49   A    
C56   H22   S    
Cu1   N2    S    
C17   C25   A    
C28   C30   A    
Cu2   O6    S    
Cu1   Cu2   S    
C10   C18   A    
C48   C50   A    
N4    H31   S    
C33   C35   A    
C23   O7    A    
C34   C36   A    
C35   C41   A    
C43   I1    S    
C21   H5    S    
C22   H6    S    
C44   C54   A    
C7    C13   A    
C20   C21   A    
C28   C36   A    
C1    O3    A    
C22   C26   A    
C2    C8    S    
C42   H8    S    
C39   H13   S    
Cu1   O5    S    
