data_mof_unit_2736.cif
_audit_creation_date              2012-12-10T19:00:48-0500
_audit_creation_method            fapswitch 2.2
_symmetry_space_group_name_H-M    P1
_symmetry_Int_Tables_number       1
_space_group_crystal_system       triclinic
_cell_length_a                    15.010039
_cell_length_b                    10.814415
_cell_length_c                    9.629494
_cell_angle_alpha                 90.187708
_cell_angle_beta                  90.171545
_cell_angle_gamma                 90.776604
_cell_volume                      1562.94641262

loop_
_atom_site_label
_atom_site_type_symbol
_atom_type_description
_atom_site_fract_x
_atom_site_fract_y
_atom_site_fract_z
_atom_type_partial_charge
C1    C     C_R   0.508335 0.263358 0.499595 0.866777
C2    C     C_R   0.906045 0.613587 0.512984 0.055398
C3    C     C_R   0.946993 0.274908 0.511545 -0.195147
C4    C     C_R   0.039348 0.271364 0.519866 0.399869
C5    C     C_R   0.090849 0.382513 0.506924 -0.032062
C6    C     C_R   0.045803 0.497695 0.509940 0.009453
C7    C     C_R   0.094043 0.610963 0.517889 0.042636
C8    C     C_R   0.047512 0.722840 0.529800 -0.165945
C9    C     C_R   0.954727 0.725535 0.525678 -0.037655
C10   C     C_R   0.184908 0.383564 0.494057 -0.069470
C11   C     C_R   0.232182 0.497166 0.502865 -0.170461
C12   C     C_R   0.329241 0.498535 0.500187 0.858249
C13   C     C_R   0.187747 0.610041 0.517687 -0.030220
C14   C     C_R   0.500207 0.065567 0.621070 0.165253
C15   C     C_R   0.519155 0.129762 0.498761 -0.164257
C16   C     C_R   0.540478 0.062225 0.376945 -0.031471
C17   C     C_R   0.527790 0.933889 0.376623 -0.206315
C18   C     C_R   0.504452 0.871124 0.498825 -0.087980
C19   C     C_R   0.491725 0.937877 0.620916 0.090537
C20   C     C_3   0.541548 0.923859 0.754280 -0.499925
C21   C     C_3   0.555341 0.062850 0.752047 -0.199285
C22   C     C_R   0.547368 0.587392 0.074208 0.173487
C23   C     C_R   0.501428 0.737398 0.500008 0.805225
C24   C     C_R   0.443331 0.425076 0.073483 0.018957
C25   C     C_R   0.441679 0.427320 0.925047 0.002018
C26   C     C_R   0.550310 0.583828 0.928336 0.159333
C27   C     C_3   0.649253 0.606769 0.929373 0.197611
C28   C     C_3   0.644027 0.617633 0.086697 -0.461126
C29   C     C_R   0.670479 0.499678 0.500211 0.795200
C30   C     C_R   0.812618 0.611494 0.510758 -0.200501
C31   C     C_R   0.766192 0.499665 0.501145 -0.020747
C32   C     C_R   0.810474 0.387826 0.498509 -0.137421
C33   C     C_R   0.903123 0.387042 0.503617 0.042680
C34   C     C_R   0.951817 0.499621 0.508062 0.078064
Cu1   Cu    Cu3+1 0.500000 0.499980 0.640670 1.046808
Cu2   Cu    Cu3+1 0.500000 0.500020 0.359330 1.025171
H1    H     H_    0.774646 0.695600 0.517841 0.155733
H2    H     H_    0.543397 0.881768 0.283687 0.190245
H3    H     H_    0.497144 0.892174 0.839632 0.222049
H4    H     H_    0.603279 0.869011 0.742676 0.204926
H5    H     H_    0.522621 0.110062 0.840334 0.218301
H6    H     H_    0.669265 0.694385 0.877505 0.108476
H7    H     H_    0.682061 0.546147 0.143193 0.266631
H8    H     H_    0.772507 0.301698 0.495186 0.166490
H9    H     H_    0.655551 0.713610 0.125066 0.170924
H10   H     H_    0.908821 0.189287 0.517301 0.189435
H11   H     H_    0.082959 0.810184 0.540961 0.214274
N1    N     N_R   0.500570 0.500930 0.147930 -0.210418
N2    N     N_R   0.500570 0.500890 0.852020 -0.206661
O1    O     O_R   0.500000 0.319640 0.618810 -0.555365
O2    O     O_R   0.500010 0.319680 0.381230 -0.561732
O3    O     O_R   0.370250 0.499950 0.618800 -0.540636
O4    O     O_R   0.370260 0.499990 0.381220 -0.567696
O5    O     O_R   0.499990 0.680320 0.618770 -0.583368
O6    O     O_R   0.500000 0.680360 0.381190 -0.588346
O7    O     O_R   0.629740 0.500010 0.618780 -0.536754
O8    O     O_R   0.629750 0.500050 0.381200 -0.580281
C35   C     C_2   0.651611 0.102262 0.732069 0.850078
O9    O     O_2   0.696361 0.056827 0.639378 -0.594910
O10   O     O_R   0.689280 0.191167 0.820514 -0.708267
H12   H     H_    0.753971 0.209796 0.797612 0.363252
C36   C     C_2   0.383458 0.336951 0.144165 0.904796
O11   O     O_2   0.307238 0.366723 0.171307 -0.545578
O12   O     O_R   0.410310 0.214927 0.161311 -0.741735
H13   H     H_    0.362363 0.160174 0.203159 0.340663
C37   C     C_2   0.372302 0.353136 0.852900 0.936113
O13   O     O_2   0.387501 0.247442 0.816135 -0.566874
O14   O     O_R   0.286198 0.399857 0.841735 -0.709011
H14   H     H_    0.243048 0.339085 0.796287 0.357649
Cl1   Cl    Cl    0.714247 0.475873 0.882579 -0.527411
Cl2   Cl    Cl    0.082735 0.126871 0.569537 -0.544840
C38   C     C_2   0.233775 0.269169 0.458212 0.939763
O15   O     O_2   0.297994 0.237640 0.527250 -0.597269
O16   O     O_R   0.204860 0.196576 0.345931 -0.675649
H15   H     H_    0.238473 0.116223 0.338214 0.354399
C39   C     C_2   0.240360 0.726830 0.530811 0.820311
O17   O     O_2   0.240983 0.801520 0.435750 -0.564122
O18   O     O_R   0.288677 0.750661 0.652398 -0.715280
H16   H     H_    0.319567 0.834506 0.651062 0.343646
C40   C     C_2   0.911425 0.847134 0.539628 0.887760
O19   O     O_2   0.859129 0.882289 0.450993 -0.567580
O20   O     O_R   0.931843 0.922175 0.654051 -0.692119
H17   H     H_    0.896495 0.001345 0.654957 0.357655
C41   C     C_2   0.586739 0.118160 0.255801 0.961044
O21   O     O_2   0.637721 0.206310 0.271742 -0.570137
O22   O     O_R   0.576357 0.064880 0.124229 -0.757553
H18   H     H_    0.613972 0.108327 0.051689 0.362243

loop_
_geom_bond_atom_site_label_1
_geom_bond_atom_site_label_2
_ccdc_geom_bond_type
C37   O14   S    
C22   N1    A    
C19   C20   S    
Cu2   O2    S    
C7    C8    A    
C26   C27   S    
C5    C6    A    
C14   C21   S    
C41   O22   S    
C30   C31   A    
C40   O19   D    
C3    C33   A    
C35   O10   S    
C15   C16   A    
C16   C41   S    
C18   C19   A    
C36   O12   S    
Cu2   O4    S    
O14   H14   S    
C41   O21   D    
Cu1   Cu2   S    
C8    C9    A    
Cu1   N2    S    
C1    C15   S    
C1    O1    A    
C12   O4    A    
C2    C34   A    
C37   O13   D    
C22   C28   S    
Cu1   O5    S    
C12   O3    A    
C33   C34   A    
C28   H9    S    
O16   H15   S    
C18   C23   S    
C24   N1    A    
C24   C25   A    
C40   O20   S    
Cu2   O8    S    
C26   N2    A    
C20   H3    S    
O18   H16   S    
C4    C5    A    
C35   O9    D    
C6    C34   A    
C30   H1    S    
O10   H12   S    
C9    C40   S    
C36   O11   D    
C31   C32   A    
C13   C39   S    
C7    C13   A    
Cu1   O1    S    
C17   C18   A    
C32   H8    S    
C39   O17   D    
C1    O2    A    
C27   Cl1   S    
C21   H5    S    
C38   O16   S    
C29   O8    A    
C3    C4    A    
Cu1   O3    S    
C23   O5    A    
C24   C36   S    
C3    H10   S    
Cu1   O7    S    
O22   H18   S    
C14   C19   A    
C25   C37   S    
C39   O18   S    
C38   O15   D    
C11   C12   S    
C23   O6    A    
C6    C7    A    
C29   O7    A    
C28   H7    S    
C2    C30   A    
C32   C33   A    
C8    H11   S    
C21   C35   S    
C29   C31   S    
Cu2   O6    S    
O12   H13   S    
C11   C13   A    
C27   H6    S    
C16   C17   A    
C20   H4    S    
Cu2   N1    S    
C17   H2    S    
C25   N2    A    
C10   C11   A    
C5    C10   A    
C20   C21   S    
O20   H17   S    
C22   C26   A    
C27   C28   S    
C14   C15   A    
C2    C9    A    
C4    Cl2   S    
C10   C38   S    
