data_mof_unit_1735.cif
_audit_creation_date              2012-12-11T15:28:42-0500
_audit_creation_method            fapswitch 2.2
_symmetry_space_group_name_H-M    P1
_symmetry_Int_Tables_number       1
_space_group_crystal_system       triclinic
_cell_length_a                    6.960739
_cell_length_b                    19.594743
_cell_length_c                    23.376426
_cell_angle_alpha                 96.04601
_cell_angle_beta                  91.170521
_cell_angle_gamma                 88.674925
_cell_volume                      3169.29963125

loop_
_atom_site_label
_atom_site_type_symbol
_atom_type_description
_atom_site_fract_x
_atom_site_fract_y
_atom_site_fract_z
_atom_type_partial_charge
O1    O     O_R   0.617180 0.809390 0.808140 -0.514921
O2    O     O_R   0.382820 0.190610 0.191860 -0.514921
O3    O     O_R   0.293300 0.672410 0.795490 -0.537345
O4    O     O_R   0.706700 0.327590 0.204510 -0.537345
O5    O     O_R   0.117220 0.690610 0.691850 -0.526804
O6    O     O_R   0.882780 0.309390 0.308150 -0.526803
C1    C     C_R   0.464850 0.647846 0.805266 0.717788
C2    C     C_R   0.535150 0.352154 0.194733 0.717789
O7    O     O_R   0.287840 0.807750 0.814460 -0.526584
O8    O     O_R   0.712160 0.192250 0.185540 -0.526584
O9    O     O_R   0.111720 0.826910 0.710960 -0.533962
O10   O     O_R   0.888280 0.173090 0.289040 -0.533962
C3    C     C_R   0.456507 0.830751 0.833172 0.732485
C4    C     C_R   0.543493 0.169249 0.166828 0.732484
O11   O     O_R   0.622680 0.673080 0.789040 -0.539094
O12   O     O_R   0.377320 0.326920 0.210960 -0.539094
O13   O     O_3   0.448820 0.756130 0.716020 -0.361430
O14   O     O_3   0.551180 0.243870 0.283980 -0.361430
V1    V     V_3+5 0.176220 0.748860 0.756300 1.476711
V2    V     V_3+5 0.823780 0.251140 0.243700 1.476711
O15   O     O_R   0.781670 0.827580 0.704500 -0.520349
O16   O     O_R   0.218330 0.172420 0.295500 -0.520350
C5    C     C_R   0.947948 0.851772 0.693979 0.833742
C6    C     C_R   0.052052 0.148228 0.306021 0.833742
O17   O     O_R   0.787130 0.692240 0.685530 -0.528702
O18   O     O_R   0.212870 0.307760 0.314470 -0.528702
C7    C     C_R   0.956093 0.669241 0.666794 0.708500
C8    C     C_R   0.043907 0.330759 0.333206 0.708500
V3    V     V_3+5 0.675510 0.751130 0.743690 1.503138
V4    V     V_3+5 0.324490 0.248870 0.256310 1.503138
O19   O     O_3   0.952780 0.743870 0.783980 -0.366252
O20   O     O_3   0.047220 0.256130 0.216020 -0.366252
C9    C     C_1   0.966611 0.617182 0.614735 -0.168124
C10   C     C_1   0.033389 0.382818 0.385265 -0.168124
C11   C     C_1   0.978179 0.573667 0.571918 0.048329
C12   C     C_1   0.021821 0.426333 0.428081 0.048329
C13   C     C_1   0.993417 0.521861 0.521315 0.051327
C14   C     C_1   0.006583 0.478139 0.478685 0.051327
C15   C     C_R   0.947191 0.914472 0.663809 -0.315231
C16   C     C_R   0.052808 0.085528 0.336191 -0.315231
C17   C     C_R   0.888661 0.036869 0.666190 0.673003
C18   C     C_R   0.111338 0.963131 0.333810 0.673003
C19   C     C_R   0.889841 0.976864 0.693275 0.538907
C20   C     C_R   0.110159 0.023136 0.306725 0.538907
C21   C     C_R   0.991723 0.911760 0.605284 -0.179627
C22   C     C_R   0.008277 0.088240 0.394716 -0.179627
C23   C     C_R   0.973003 0.970992 0.574651 0.014706
C24   C     C_R   0.026997 0.029008 0.425349 0.014706
C25   C     C_R   0.936955 0.035375 0.607391 -0.308252
C26   C     C_R   0.063045 0.964625 0.392609 -0.308252
C27   C     C_R   0.994238 0.968712 0.513210 -0.144382
C28   C     C_R   0.005762 0.031287 0.486790 -0.144382
C29   C     C_R   0.002356 0.093891 0.523043 0.581038
C30   C     C_R   0.997644 0.906109 0.476957 0.581038
C31   C     C_R   0.957607 0.096374 0.581141 0.399355
C32   C     C_R   0.042393 0.903626 0.418858 0.399355
H1    H     H_    0.954416 0.136837 0.414471 0.217302
H2    H     H_    0.045584 0.863163 0.585529 0.217302
C33   C     C_R   0.484927 0.585644 0.835372 -0.138316
C34   C     C_R   0.515073 0.414356 0.164628 -0.138315
C35   C     C_R   0.588755 0.466778 0.833047 0.663591
C36   C     C_R   0.411245 0.533222 0.166953 0.663591
C37   C     C_R   0.551947 0.524985 0.804982 -0.227020
C38   C     C_R   0.448053 0.475015 0.195018 -0.227020
C39   C     C_R   0.455333 0.588054 0.894803 -0.216246
C40   C     C_R   0.544667 0.411946 0.105197 -0.216245
C41   C     C_R   0.496272 0.529805 0.925116 0.019924
C42   C     C_R   0.503728 0.470195 0.074884 0.019924
C43   C     C_R   0.563279 0.468732 0.892756 -0.017352
C44   C     C_R   0.436721 0.531268 0.107244 -0.017352
C45   C     C_R   0.476367 0.530279 0.986247 0.095653
C46   C     C_R   0.523633 0.469721 0.013753 0.095653
C47   C     C_R   0.588380 0.410641 0.979185 -0.200892
C48   C     C_R   0.411620 0.589359 0.020814 -0.200892
C49   C     C_R   0.607095 0.410297 0.920208 -0.110322
C50   C     C_R   0.392905 0.589703 0.079792 -0.110322
H3    H     H_    0.658248 0.363453 0.895936 0.205015
H4    H     H_    0.341752 0.636547 0.104064 0.205015
H5    H     H_    0.593535 0.363383 0.084002 0.115321
H6    H     H_    0.406464 0.636617 0.915998 0.115322
H7    H     H_    0.422604 0.477060 0.240757 0.149962
H8    H     H_    0.577396 0.522940 0.759243 0.149962
H9    H     H_    0.626981 0.363256 0.996334 0.132127
H10   H     H_    0.373019 0.636744 0.003666 0.132127
C51   C     C_1   0.467226 0.882821 0.885228 -0.162135
C52   C     C_1   0.532773 0.117179 0.114772 -0.162135
C53   C     C_1   0.478661 0.926339 0.928053 0.045749
C54   C     C_1   0.521339 0.073661 0.071947 0.045750
C55   C     C_1   0.493573 0.978141 0.978676 0.041049
C56   C     C_1   0.506427 0.021859 0.021324 0.041049
Cl1   Cl    Cl    0.947203 0.178864 0.620034 -0.350811
Cl2   Cl    Cl    0.052797 0.821136 0.379966 -0.350811
F1    F     F_    0.159663 0.019922 0.250572 -0.633815
F2    F     F_    0.840337 0.980078 0.749428 -0.633815
F3    F     F_    0.835501 0.095798 0.698195 -0.551841
F4    F     F_    0.164499 0.904202 0.301805 -0.551841
F5    F     F_    0.056544 0.153557 0.504159 -0.649604
F6    F     F_    0.943456 0.846443 0.495841 -0.649604
F7    F     F_    0.653609 0.408723 0.801815 -0.635311
F8    F     F_    0.346391 0.591277 0.198185 -0.635311

loop_
_geom_bond_atom_site_label_1
_geom_bond_atom_site_label_2
_ccdc_geom_bond_type
C40   C42   A    
O13   V3    S    
O4    C2    A    
V1    O19   S    
C23   C25   A    
C7    C9    S    
C16   C22   A    
C40   H5    S    
O9    V1    S    
C48   C50   A    
C18   F4    S    
C11   C13   S    
C50   H4    S    
O3    C1    A    
C9    C11   T    
C52   C54   T    
O12   V4    S    
C19   F2    S    
C36   C44   A    
C21   C23   A    
C1    C33   S    
C35   C37   A    
O7    C3    A    
C36   C38   A    
C20   F1    S    
C6    C16   S    
O5    C7    A    
O7    V1    S    
O6    C8    A    
O8    V2    S    
C39   C41   A    
C31   Cl1   S    
O3    V1    S    
O14   V4    S    
C41   C45   A    
C15   C21   A    
C24   C26   A    
C34   C40   A    
C2    O12   A    
C39   H6    S    
C17   C19   A    
C35   F7    S    
C18   C20   A    
C17   C25   A    
O11   V3    S    
C22   C24   A    
C29   C31   A    
O17   V3    S    
C30   C32   A    
C21   H2    S    
C51   C53   T    
C27   C28   A    
C4    C52   S    
O8    C4    A    
C15   C19   A    
C1    O11   A    
C37   H8    S    
C29   F5    S    
C25   C31   A    
O15   V3    S    
C26   C32   A    
C41   C43   A    
C13   C14   T    
C16   C20   A    
C42   C46   A    
O10   V2    S    
O1    V3    S    
C49   H3    S    
C18   C26   A    
C36   F8    S    
C54   C56   S    
O18   V4    S    
O15   C5    A    
C22   H1    S    
C44   C50   A    
O16   C6    A    
O1    C3    A    
C47   C49   A    
C12   C14   S    
C28   C29   A    
V2    O20   S    
C35   C43   A    
O16   V4    S    
C33   C37   A    
C48   H10   S    
C46   C47   A    
C45   C48   A    
C23   C27   A    
O5    V1    S    
O17   C7    A    
O6    V2    S    
O10   C6    A    
O18   C8    A    
C34   C38   A    
O2    V4    S    
C27   C30   A    
C53   C55   S    
C45   C46   A    
V3    O19   S    
C2    C34   S    
V4    O20   S    
C17   F3    S    
C5    C15   S    
O9    C5    A    
O13   V1    S    
C10   C12   T    
C43   C49   A    
O14   V2    S    
O2    C4    A    
C38   H7    S    
C8    C10   S    
O4    V2    S    
C24   C28   A    
C42   C44   A    
C3    C51   S    
C30   F6    S    
C55   C56   T    
C32   Cl2   S    
C47   H9    S    
C33   C39   A    
