data_mof_unit_481.cif
_audit_creation_date              2013-03-05T15:55:05-0500
_audit_creation_method            fapswitch 2.2
_symmetry_space_group_name_H-M    P1
_symmetry_Int_Tables_number       1
_space_group_crystal_system       triclinic
_cell_length_a                    14.787522
_cell_length_b                    14.883973
_cell_length_c                    14.872771
_cell_angle_alpha                 109.54765
_cell_angle_beta                  109.787583
_cell_angle_gamma                 109.021803
_cell_volume                      2521.5767993

loop_
_atom_site_label
_atom_site_type_symbol
_atom_site_description
_atom_site_fract_x
_atom_site_fract_y
_atom_site_fract_z
_atom_type_partial_charge
C1    C     C_R   0.185376 0.278958 0.253684 -0.140892
H1    H     H_    0.123758 0.302872 0.250777 0.112848
N1    N     N_R   0.291070 0.347930 0.293870 -0.040692
C2    C     C_R   0.525620 0.432679 0.746754 -0.137760
H2    H     H_    0.552951 0.374492 0.749327 0.118652
N2    N     N_R   0.554050 0.497220 0.706150 -0.042861
C3    C     C_R   0.504820 0.200816 0.407923 -0.153613
H3    H     H_    0.485449 0.153550 0.324293 0.113383
N3    N     N_R   0.497240 0.291100 0.443210 -0.038551
C4    C     C_R   0.291142 0.598461 0.589394 -0.131054
H4    H     H_    0.324596 0.659742 0.673559 0.090953
N4    N     N_R   0.347890 0.554050 0.556810 -0.039043
C5    C     C_R   0.595603 0.290076 0.590766 -0.136979
H5    H     H_    0.656956 0.321843 0.674884 0.086458
N5    N     N_R   0.554050 0.347900 0.556830 -0.040511
C6    C     C_R   0.199564 0.504513 0.407099 -0.151605
H6    H     H_    0.148035 0.475337 0.321409 0.120264
N6    N     N_R   0.291070 0.497250 0.443190 -0.040850
C7    C     C_R   0.435510 0.527444 0.751253 -0.125929
H7    H     H_    0.381986 0.559662 0.762261 0.095127
N7    N     N_R   0.497240 0.554030 0.706140 -0.039902
C8    C     C_R   0.275963 0.184797 0.248957 -0.120277
H8    H     H_    0.297026 0.120407 0.237374 0.092745
N8    N     N_R   0.347890 0.291110 0.293870 -0.037638
C9    C     C_R   0.172505 0.175208 0.223844 0.062070
C10   C     C_R   0.451503 0.449984 0.776997 0.071451
C11   C     C_R   0.565566 0.196911 0.498458 0.082193
C12   C     C_R   0.198136 0.571281 0.496704 0.067626
C13   C     C_R   0.474373 0.720927 0.406840 -0.148147
H9    H     H_    0.447131 0.696516 0.321451 0.111381
N9    N     N_R   0.445950 0.652100 0.443170 -0.040338
C14   C     C_R   0.815496 0.566414 0.592861 -0.133508
H10   H     H_    0.878422 0.616616 0.678652 0.115519
N10   N     N_R   0.708930 0.502750 0.556810 -0.044135
C15   C     C_R   0.494143 0.401965 0.195570 -0.176553
H11   H     H_    0.512392 0.336867 0.167827 0.146545
N11   N     N_R   0.502760 0.445970 0.293860 -0.040522
C16   C     C_R   0.707059 0.799284 0.803575 -0.167052
H12   H     H_    0.670038 0.846214 0.831177 0.111968
N12   N     N_R   0.652110 0.708890 0.706130 -0.039492
C17   C     C_R   0.801484 0.710315 0.805151 -0.117544
H13   H     H_    0.854568 0.678983 0.834574 0.088104
N13   N     N_R   0.708930 0.652070 0.706130 -0.041892
C18   C     C_R   0.403768 0.494651 0.194373 -0.125892
H14   H     H_    0.342238 0.517653 0.165270 0.085056
N14   N     N_R   0.445950 0.502780 0.293850 -0.039950
C19   C     C_R   0.564043 0.815195 0.591287 -0.117501
H15   H     H_    0.616988 0.879613 0.676562 0.097782
N15   N     N_R   0.502760 0.708900 0.556790 -0.040344
C20   C     C_R   0.723139 0.476859 0.408641 -0.103542
H16   H     H_    0.700465 0.446219 0.323110 0.118949
N16   N     N_R   0.652110 0.445950 0.443190 -0.041124
Ni1   Ni    Ni4+2 0.369690 0.500010 0.369700 0.212503
Ni2   Ni    Ni4+2 0.630310 0.499990 0.630300 0.207576
Ni3   Ni    Ni4+2 0.500000 0.369720 0.369720 0.230084
Ni4   Ni    Ni4+2 0.500000 0.630280 0.630280 0.213919
C21   C     C_R   0.548184 0.824752 0.497834 0.069246
C22   C     C_R   0.827023 0.555676 0.501324 0.045511
C23   C     C_R   0.433073 0.431374 0.130758 0.064190
C24   C     C_R   0.801958 0.803415 0.868216 0.075982
H17   H     H_    0.013609 0.473842 0.009704 0.100728
C25   C     C_R   0.098075 0.595290 0.181587 -0.124916
H18   H     H_    0.160818 0.653031 0.176746 0.107466
C26   C     C_R   0.100256 0.621793 0.282090 -0.141732
H19   H     H_    0.165184 0.700262 0.354543 0.118637
C27   C     C_R   0.019524 0.546674 0.289110 0.095909
C28   C     C_R   0.935629 0.445630 0.193624 -0.169854
H20   H     H_    0.872844 0.386470 0.197241 0.155978
C29   C     C_R   0.933819 0.419591 0.093346 -0.100615
H21   H     H_    0.869620 0.341342 0.020333 0.128761
C30   C     C_R   0.015044 0.494254 0.087371 -0.109551
C31   C     C_R   0.928456 0.569028 0.399811 -0.219711
H22   H     H_    0.852665 0.531895 0.323261 0.130187
C32   C     C_R   0.930690 0.606281 0.500727 0.048409
C33   C     C_R   0.034444 0.676344 0.598987 0.030642
C34   C     C_R   0.126654 0.672834 0.595731 -0.221569
H23   H     H_    0.204596 0.717522 0.671914 0.126963
C35   C     C_R   0.117531 0.610248 0.495101 0.053847
C36   C     C_R   0.022812 0.574681 0.395985 0.033280
C37   C     C_R   0.998041 0.822474 0.695385 -0.132656
H24   H     H_    0.944812 0.810147 0.616226 0.116134
C38   C     C_R   0.016072 0.903940 0.791408 -0.096681
H25   H     H_    0.976308 0.952974 0.785962 0.110363
C39   C     C_R   0.086289 0.922984 0.894482 -0.073797
H26   H     H_    0.101504 0.987359 0.968639 0.122496
C40   C     C_R   0.136904 0.859150 0.901779 -0.100217
H27   H     H_    0.190506 0.873479 0.981825 0.108260
C41   C     C_R   0.119056 0.777378 0.805929 -0.163994
H28   H     H_    0.158889 0.728663 0.813245 0.106367
C42   C     C_R   0.049827 0.758627 0.701591 0.110740
C43   C     C_R   0.450535 0.344975 0.876501 0.147106
C44   C     C_R   0.406421 0.400879 0.832919 0.049689
C45   C     C_R   0.332568 0.425199 0.861803 -0.201118
H29   H     H_    0.289822 0.460976 0.824528 0.124893
C46   C     C_R   0.327963 0.420773 0.952807 -0.172245
H30   H     H_    0.282110 0.453713 0.982461 0.119709
C47   C     C_R   0.396546 0.391091 0.013775 0.000849
C48   C     C_R   0.444286 0.338558 0.964920 0.079628
C49   C     C_3   0.556679 0.348465 0.013259 0.187183
C50   C     C_3   0.563682 0.356604 0.917166 -0.648745
H31   H     H_    0.620191 0.424305 0.094215 0.065971
H32   H     H_    0.629254 0.438902 0.943936 0.183310
H33   H     H_    0.564438 0.286153 0.860181 0.228046
C51   C     C_R   0.547460 0.925154 0.394035 0.169456
C52   C     C_R   0.592810 0.925382 0.493587 0.029337
C53   C     C_R   0.666811 0.027487 0.591387 -0.196122
H34   H     H_    0.710422 0.032576 0.669395 0.127259
C54   C     C_R   0.670587 0.122939 0.592036 -0.194817
H35   H     H_    0.716877 0.198108 0.670552 0.125886
C55   C     C_R   0.601096 0.115691 0.494610 0.029767
C56   C     C_R   0.552043 0.019323 0.394625 0.173327
C57   C     C_3   0.438916 0.957193 0.295137 -0.525239
C58   C     C_3   0.433364 0.854276 0.294720 -0.531210
H36   H     H_    0.377481 0.975111 0.312772 0.198513
H37   H     H_    0.441021 0.961038 0.222442 0.198856
H38   H     H_    0.368876 0.814554 0.312532 0.198241
H39   H     H_    0.431518 0.798645 0.221399 0.193067
C59   C     C_R   0.967358 0.074777 0.121750 0.170003
C60   C     C_R   0.067096 0.074698 0.168159 0.028668
C61   C     C_R   0.062744 0.972614 0.141000 -0.215286
H40   H     H_    0.135980 0.967767 0.180347 0.129998
C62   C     C_R   0.968076 0.877005 0.048622 -0.200537
H41   H     H_    0.971716 0.801911 0.020071 0.131316
C63   C     C_R   0.878346 0.884351 0.985011 0.027470
C64   C     C_R   0.874053 0.980561 0.031526 0.163606
C65   C     C_3   0.837313 0.042578 0.980363 -0.517105
C66   C     C_3   0.939454 0.145601 0.078492 -0.520024
H42   H     H_    0.838658 0.024856 0.902116 0.192908
H43   H     H_    0.759703 0.038404 0.977008 0.212565
H44   H     H_    0.998214 0.185741 0.055138 0.198760
H45   H     H_    0.920468 0.200877 0.131120 0.204610
N17   N     N_R   0.552074 0.248020 0.011413 0.249252
O1    O     O_R   0.474315 0.151723 0.927067 -0.392321
O2    O     O_R   0.628093 0.254879 0.094102 -0.446745

loop_
_geom_bond_atom_site_label_1
_geom_bond_atom_site_label_2
_geom_bond_distance
_ccdc_geom_bond_type
C6    C12   1.382233 A    
C21   C52   1.459459 S    
C45   H29   1.081727 S    
C17   H13   1.080642 S    
C46   H30   1.081253 S    
C14   C22   1.391881 A    
C57   H36   1.112511 S    
C47   C48   1.401658 A    
C3    H3    1.079766 S    
C19   N15   1.339742 A    
C61   H40   1.081930 S    
N8    Ni3   1.839626 S    
C27   C36   1.481139 S    
C25   H18   1.082338 S    
C49   N17   1.464707 S    
C15   N11   1.327021 A    
N2    Ni2   1.846120 S    
C31   C36   1.391978 A    
C16   H12   1.079666 S    
C40   C41   1.399282 A    
C53   H34   1.081878 S    
C18   C23   1.384684 A    
C10   C44   1.461143 S    
C48   C49   1.503719 S    
C3    C11   1.375079 A    
C54   H35   1.081313 S    
C15   C23   1.373663 A    
C1    H1    1.074174 S    
C29   C30   1.397777 A    
C7    C10   1.394115 A    
C59   C60   1.401471 A    
C57   C58   1.504836 S    
C25   C26   1.398387 A    
N6    Ni1   1.845870 S    
C55   C56   1.399633 A    
N12   N13   1.372736 A    
C15   H11   1.077113 S    
C11   C55   1.459029 S    
C18   N14   1.341197 A    
N17   O1    1.302312 A    
N12   Ni4   1.839624 S    
C8    C9    1.391244 A    
C19   H15   1.079552 S    
C20   N16   1.336976 A    
N3    Ni3   1.849483 S    
C59   C64   1.377247 A    
C43   C50   1.500413 S    
C12   C35   1.482671 S    
C33   C42   1.487630 S    
N16   Ni3   1.839413 S    
C58   H38   1.112403 S    
H17   C30   1.082330 S    
C27   C28   1.406901 A    
C45   C46   1.400013 A    
C5    H5    1.080679 S    
C1    C9    1.382171 A    
C17   N13   1.342060 A    
N1    N8    1.372738 A    
N9    N15   1.376917 A    
C9    C60   1.459577 S    
C51   C52   1.401719 A    
C61   C62   1.401169 A    
C32   C33   1.412888 A    
C13   C21   1.382675 A    
C28   H20   1.082978 S    
C20   C22   1.394848 A    
N5    Ni2   1.853767 S    
C34   H23   1.079991 S    
C31   C32   1.399578 A    
C43   C44   1.402307 A    
C40   H27   1.082625 S    
C31   H22   1.081200 S    
C65   H43   1.111826 S    
N2    N7    1.372496 A    
C50   H33   1.112347 S    
N9    Ni1   1.853767 S    
C28   C29   1.398097 A    
C51   C56   1.377913 A    
C26   C27   1.406637 A    
C33   C34   1.397793 A    
C13   H9    1.075426 S    
C19   C21   1.392988 A    
N13   Ni2   1.853577 S    
C49   C50   1.508578 S    
C50   H32   1.112287 S    
C20   H16   1.077929 S    
C6    N6    1.331629 A    
C39   H26   1.081389 S    
N4    Ni4   1.839413 S    
C4    N4    1.341106 A    
C16   C24   1.374077 A    
C2    N2    1.327057 A    
C49   H31   1.113445 S    
C41   C42   1.407941 A    
N10   Ni2   1.845872 S    
C38   C39   1.395785 A    
C5    N5    1.341075 A    
C64   C65   1.497758 S    
C23   C47   1.460442 S    
C58   H39   1.111925 S    
C24   C63   1.459005 S    
C59   C66   1.501013 S    
C62   C63   1.407646 A    
C18   H14   1.080743 S    
C22   C32   1.475956 S    
C4    C12   1.391416 A    
C3    N3    1.326585 A    
C65   H42   1.112625 S    
C56   C57   1.497677 S    
C7    N7    1.340503 A    
C35   C36   1.418311 A    
C5    C11   1.384422 A    
C17   C24   1.385434 A    
C34   C35   1.405098 A    
C37   H24   1.083143 S    
N7    Ni4   1.849448 S    
C2    C10   1.382086 A    
C60   C61   1.408504 A    
C46   C47   1.408348 A    
N15   Ni4   1.849482 S    
C52   C53   1.407766 A    
N10   N16   1.376917 A    
C14   H10   1.075704 S    
C7    H7    1.079727 S    
N3    N5    1.376916 A    
C66   H44   1.112395 S    
C13   N9    1.327233 A    
C26   H19   1.083244 S    
C16   N12   1.325145 A    
N1    Ni1   1.853577 S    
C6    H6    1.072313 S    
C53   C54   1.400121 A    
C65   C66   1.504261 S    
N14   Ni1   1.846120 S    
C44   C45   1.406963 A    
C37   C38   1.397685 A    
C54   C55   1.407897 A    
C25   C30   1.397821 A    
C8    N8    1.340115 A    
C43   C48   1.381141 A    
C37   C42   1.408263 A    
C29   H21   1.082506 S    
C66   H45   1.112109 S    
C4    H4    1.079876 S    
C51   C58   1.500329 S    
N11   Ni3   1.849447 S    
C2    H2    1.074582 S    
C41   H28   1.082748 S    
N17   O2    1.300647 A    
C38   H25   1.082596 S    
N4    N6    1.376917 A    
C62   H41   1.081458 S    
C8    H8    1.079620 S    
C39   C40   1.397223 A    
C1    N1    1.328506 A    
N11   N14   1.372494 A    
C57   H37   1.111844 S    
C14   N10   1.335375 A    
C63   C64   1.399733 A    
