data_mof_unit_2726.cif
_audit_creation_date              2012-12-10T17:44:37-0500
_audit_creation_method            fapswitch 2.2
_symmetry_space_group_name_H-M    P1
_symmetry_Int_Tables_number       1
_space_group_crystal_system       triclinic
_cell_length_a                    9.931707
_cell_length_b                    10.730289
_cell_length_c                    15.478865
_cell_angle_alpha                 92.14427
_cell_angle_beta                  67.633153
_cell_angle_gamma                 88.581424
_cell_volume                      1523.05390398

loop_
_atom_site_label
_atom_site_type_symbol
_atom_type_description
_atom_site_fract_x
_atom_site_fract_y
_atom_site_fract_z
_atom_type_partial_charge
C1    C     C_R   0.498572 0.740456 0.497372 0.922793
C2    C     C_R   0.742299 0.512459 0.028499 0.191455
C3    C     C_R   0.596777 0.551899 0.084972 0.082055
C4    C     C_R   0.408607 0.501489 0.676053 0.933359
C5    C     C_R   0.841240 0.480622 0.069868 -0.107446
C6    C     C_R   0.794795 0.480538 0.166898 -0.203815
C7    C     C_R   0.552790 0.550180 0.181961 -0.260831
C8    C     C_R   0.223374 0.899185 0.525286 -0.179558
C9    C     C_R   0.092138 0.968322 0.568403 -0.147850
C10   C     C_R   0.090472 0.084663 0.611112 -0.139550
C11   C     C_R   0.221540 0.136906 0.602347 -0.148268
C12   C     C_R   0.426664 0.554984 0.908911 0.028681
C13   C     C_R   0.356130 0.071832 0.551191 0.105785
C14   C     C_R   0.356638 0.945770 0.524444 0.098385
C15   C     C_R   0.491320 0.874830 0.497175 -0.127355
C16   C     C_R   0.496373 0.261593 0.508575 0.864619
C17   C     C_R   0.622084 0.933884 0.480869 -0.175734
C18   C     C_R   0.622359 0.061047 0.489943 -0.217366
C19   C     C_R   0.490686 0.130290 0.522039 -0.125516
C20   C     C_R   0.784841 0.661885 0.634824 0.624470
C21   C     C_R   0.819868 0.728564 0.701786 -0.248027
C22   C     C_R   0.959042 0.722400 0.700205 -0.307272
C23   C     C_R   0.287477 0.611765 0.961483 0.032629
C24   C     C_R   0.065328 0.649988 0.630940 -0.197441
C25   C     C_R   0.033777 0.574955 0.565164 0.087038
C26   C     C_R   0.888658 0.577517 0.565684 0.022157
C27   C     C_R   0.967123 0.427127 0.438141 -0.132658
C28   C     C_R   0.591398 0.501673 0.324101 0.869403
C29   C     C_R   0.110027 0.427425 0.438037 -0.092265
C30   C     C_R   0.353337 0.522069 0.777474 -0.132933
C31   C     C_R   0.648936 0.511541 0.222833 -0.064426
C32   C     C_R   0.183451 0.624610 0.920583 0.595793
C33   C     C_R   0.217391 0.581348 0.828217 -0.311334
C34   C     C_R   0.535784 0.550107 0.946856 0.097950
C35   C     C_R   0.452094 0.502470 0.820136 -0.227060
C36   C     C_R   0.496130 0.581192 0.043117 0.078476
C37   C     C_R   0.356906 0.638722 0.094246 -0.250583
C38   C     C_R   0.255462 0.655537 0.053363 -0.180694
C39   C     C_R   0.683558 0.517072 0.891429 -0.234488
C40   C     C_R   0.785619 0.501168 0.931749 -0.193629
F1    F     F_    0.650661 0.691943 0.640026 -0.653580
F2    F     F_    0.052161 0.684132 0.968226 -0.689093
H1    H     H_    0.150638 0.700852 0.094679 0.199166
H2    H     H_    0.738431 0.789850 0.753842 0.194282
H3    H     H_    0.440902 0.571546 0.227143 0.159146
H4    H     H_    0.986385 0.778310 0.750464 0.208211
H5    H     H_    0.195114 0.367833 0.387318 0.149446
H6    H     H_    0.871011 0.451782 0.197847 0.152307
H7    H     H_    0.897316 0.474311 0.887325 0.152344
H8    H     H_    0.140151 0.598321 0.795656 0.176652
H9    H     H_    0.550886 0.447729 0.781430 0.155009
H10   H     H_    0.325179 0.675767 0.165276 0.148681
H11   H     H_    0.724134 0.505628 0.816182 0.155591
H12   H     H_    0.952857 0.451264 0.027197 0.143629
H13   H     H_    0.172592 0.658348 0.629064 0.232114
H14   H     H_    0.725723 0.881991 0.458398 0.168898
H15   H     H_    0.216945 0.813626 0.488874 0.177604
H16   H     H_    0.991398 0.930918 0.569270 0.152915
H17   H     H_    0.988273 0.136554 0.647697 0.139162
H18   H     H_    0.216914 0.228684 0.635098 0.151069
H19   H     H_    0.726247 0.105128 0.469274 0.168021
H20   H     H_    0.945081 0.367442 0.387585 0.136573
N1    N     N_R   0.856800 0.501200 0.500850 -0.105107
N2    N     N_R   0.142390 0.501280 0.500880 -0.109055
O1    O     O_R   0.385310 0.683220 0.500000 -0.667858
O2    O     O_R   0.614640 0.683250 0.500010 -0.539126
O3    O     O_R   0.319840 0.499980 0.632240 -0.658538
O4    O     O_R   0.549160 0.500000 0.632250 -0.552002
O5    O     O_R   0.385360 0.316750 0.499990 -0.616051
O6    O     O_R   0.614690 0.316780 0.500000 -0.625842
O7    O     O_R   0.450840 0.500000 0.367750 -0.618176
O8    O     O_R   0.680160 0.500020 0.367760 -0.619515
Zn1   Zn    Zn3+2 0.346880 0.499980 0.499990 0.922159
Zn2   Zn    Zn3+2 0.653120 0.500020 0.500010 0.982011

loop_
_geom_bond_atom_site_label_1
_geom_bond_atom_site_label_2
_ccdc_geom_bond_type
C27   C29   A    
C20   F1    S    
C24   H13   S    
C12   C23   A    
C6    H6    S    
C30   C35   A    
C29   H5    S    
C7    H3    S    
C36   C37   A    
C18   C19   A    
C3    C7    A    
C5    C6    A    
O4    Zn2   S    
C40   H7    S    
O2    Zn2   S    
O1    Zn1   S    
C9    H16   S    
C8    C9    A    
O6    Zn2   S    
C1    O1    A    
N2    Zn1   S    
O5    Zn1   S    
C1    C15   S    
C9    C10   A    
C6    C31   A    
C29   N2    A    
C13   C14   A    
C28   O8    A    
C1    O2    A    
C7    C31   A    
C13   C19   A    
C34   C39   A    
C5    H12   S    
C16   O6    A    
C24   C25   A    
O8    Zn2   S    
C39   C40   A    
C4    O4    A    
C37   H10   S    
C25   C26   A    
C25   N2    A    
C26   N1    A    
C37   C38   A    
C27   H20   S    
C8    H15   S    
C21   H2    S    
C17   C18   A    
C12   C35   A    
C17   H14   S    
C27   N1    A    
O3    Zn1   S    
C22   H4    S    
C35   H9    S    
C22   C24   A    
C28   O7    A    
C12   C34   A    
C11   H18   S    
O7    Zn1   S    
C15   C17   A    
C8    C14   A    
C30   C33   A    
C28   C31   S    
C16   O5    A    
C4    O3    A    
C18   H19   S    
N1    Zn2   S    
C23   C38   A    
C23   C32   A    
C2    C3    A    
C33   H8    S    
C38   H1    S    
C32   C33   A    
C11   C13   A    
C39   H11   S    
C20   C26   A    
C3    C36   A    
C16   C19   S    
C10   H17   S    
C34   C36   A    
C10   C11   A    
C2    C5    A    
C2    C40   A    
C20   C21   A    
C32   F2    S    
C14   C15   A    
C21   C22   A    
C4    C30   S    
