data_mof_unit_4631.cif
_audit_creation_date              2012-12-10T20:28:44-0500
_audit_creation_method            fapswitch 2.2
_symmetry_space_group_name_H-M    P1
_symmetry_Int_Tables_number       1
_space_group_crystal_system       triclinic
_cell_length_a                    10.72026
_cell_length_b                    10.652814
_cell_length_c                    9.852593
_cell_angle_alpha                 89.583105
_cell_angle_beta                  91.173791
_cell_angle_gamma                 90.241849
_cell_volume                      1124.90012318

loop_
_atom_site_label
_atom_site_type_symbol
_atom_type_description
_atom_site_fract_x
_atom_site_fract_y
_atom_site_fract_z
_atom_type_partial_charge
C1    C     C_R   0.500172 0.260205 0.500417 0.899112
C2    C     C_R   0.427548 0.935407 0.402838 -0.184035
C3    C     C_R   0.505410 0.871218 0.495122 -0.037193
C4    C     C_R   0.260871 0.512970 0.498920 0.871137
C5    C     C_R   0.594475 0.935313 0.572338 -0.048734
C6    C     C_3   0.632375 0.923434 0.718461 -0.529193
C7    C     C_3   0.630817 0.065941 0.721101 1.158393
C8    C     C_R   0.396920 0.461288 0.069111 -0.075636
C9    C     C_R   0.594834 0.554054 0.073368 0.683460
C10   C     C_R   0.594585 0.554116 0.929383 -0.220593
C11   C     C_R   0.396163 0.463003 0.926619 0.014061
C12   C     C_R   0.066639 0.557376 0.619101 0.129787
C13   C     C_3   0.331490 0.339319 0.918472 0.408176
C14   C     C_3   0.335218 0.335543 0.072716 0.379674
C15   C     C_R   0.500805 0.739621 0.499307 0.880124
C16   C     C_R   0.740655 0.493401 0.502543 0.894779
C17   C     C_R   0.125727 0.619253 0.730016 -0.195865
C18   C     C_R   0.072466 0.618214 0.858409 0.075231
C19   C     C_R   0.959703 0.554496 0.875819 -0.081473
C20   C     C_R   0.896311 0.503505 0.763972 -0.162640
C21   C     C_R   0.943474 0.516626 0.631158 0.100147
C22   C     C_2   0.138979 0.678138 0.974000 0.408333
C23   C     C_R   0.128312 0.529386 0.497810 -0.115928
C24   C     C_R   0.062118 0.493632 0.381045 -0.154616
C25   C     C_R   0.935603 0.478568 0.385650 -0.136240
C26   C     C_R   0.874971 0.489963 0.509168 -0.131300
C27   C     C_R   0.593629 0.063607 0.573948 -0.029026
C28   C     C_R   0.502908 0.128270 0.498764 -0.106814
C29   C     C_R   0.425922 0.064996 0.405124 -0.099751
F1    F     F_    0.540107 0.113145 0.803922 -0.668582
F2    F     F_    0.747338 0.119179 0.743523 -0.651712
F3    F     F_    0.691366 0.608367 0.141903 -0.651794
F4    F     F_    0.211297 0.351343 0.866302 -0.658790
F5    F     F_    0.414669 0.243256 0.122386 -0.639823
H1    H     H_    0.108152 0.474347 0.286593 0.188571
H2    H     H_    0.360414 0.115134 0.339714 0.202769
H3    H     H_    0.363364 0.885672 0.335681 0.169316
H4    H     H_    0.559093 0.879029 0.781324 0.211667
H5    H     H_    0.228530 0.723542 0.958825 0.062796
H6    H     H_    0.727236 0.882822 0.731765 0.207002
H7    H     H_    0.670856 0.597465 0.876284 0.163811
H8    H     H_    0.386356 0.265578 0.868788 0.204355
H9    H     H_    0.242252 0.336464 0.120569 0.108871
H10   H     H_    0.213674 0.667954 0.717462 0.135505
H11   H     H_    0.920029 0.544509 0.975590 0.194916
H12   H     H_    0.814514 0.448327 0.785480 0.199811
H13   H     H_    0.885634 0.455530 0.292314 0.204997
N1    N     N_R   0.499160 0.499140 0.142800 -0.122009
N2    N     N_R   0.499160 0.499180 0.857150 -0.136509
O1    O     O_R   0.500020 0.316790 0.614690 -0.585497
O2    O     O_R   0.500000 0.316760 0.385350 -0.564487
O3    O     O_R   0.316770 0.500020 0.614690 -0.590806
O4    O     O_R   0.316760 0.499980 0.385350 -0.633841
O5    O     O_R   0.500000 0.683240 0.614650 -0.637085
O6    O     O_R   0.499980 0.683210 0.385310 -0.591080
O7    O     O_R   0.683240 0.500020 0.614650 -0.644203
O8    O     O_R   0.683230 0.499980 0.385310 -0.554665
O9    O     O_2   0.094999 0.677514 0.087357 -0.564485
Zn1   Zn    Zn3+2 0.500010 0.500020 0.653130 0.989077
Zn2   Zn    Zn3+2 0.499990 0.499980 0.346870 1.058528

loop_
_geom_bond_atom_site_label_1
_geom_bond_atom_site_label_2
_ccdc_geom_bond_type
C12   C17   A    
C22   O9    D    
C1    C28   S    
C23   C24   A    
C8    N1    A    
C14   F5    S    
C6    C7    S    
C11   N2    A    
O3    Zn1   S    
C13   C14   S    
C4    O4    A    
C11   C13   S    
C9    C10   A    
C25   H13   S    
C19   C20   A    
N2    Zn1   S    
O7    Zn1   S    
C21   C26   A    
C29   H2    S    
C6    H4    S    
C2    C3    A    
C17   H10   S    
C7    C27   S    
C7    F1    S    
C18   C22   S    
O6    Zn2   S    
C24   C25   A    
C10   H7    S    
C13   F4    S    
C16   O8    A    
C1    O2    A    
C2    H3    S    
C16   O7    A    
C4    O3    A    
C2    C29   A    
O1    Zn1   S    
C28   C29   A    
O4    Zn2   S    
N1    Zn2   S    
O5    Zn1   S    
C8    C11   A    
C16   C26   S    
C5    C6    S    
C6    H6    S    
C24   H1    S    
C7    F2    S    
C22   H5    S    
C15   O5    A    
C12   C23   A    
C3    C15   S    
C20   C21   A    
C9    N1    A    
C17   C18   A    
C18   C19   A    
C1    O1    A    
C27   C28   A    
C4    C23   S    
C13   H8    S    
O8    Zn2   S    
C8    C14   S    
O2    Zn2   S    
C9    F3    S    
C25   C26   A    
C5    C27   A    
C10   N2    A    
C12   C21   A    
C20   H12   S    
C19   H11   S    
C14   H9    S    
C3    C5    A    
C15   O6    A    
