data_mof_unit_1845.cif
_audit_creation_date              2012-12-10T16:50:10-0500
_audit_creation_method            fapswitch 2.2
_symmetry_space_group_name_H-M    P1
_symmetry_Int_Tables_number       1
_space_group_crystal_system       triclinic
_cell_length_a                    7.821956
_cell_length_b                    8.558311
_cell_length_c                    10.594806
_cell_angle_alpha                 91.47667
_cell_angle_beta                  85.374744
_cell_angle_gamma                 93.629024
_cell_volume                      705.3657331

loop_
_atom_site_label
_atom_site_type_symbol
_atom_type_description
_atom_site_fract_x
_atom_site_fract_y
_atom_site_fract_z
_atom_type_partial_charge
C1    C     C_R   0.545572 0.794504 0.497103 0.930156
C2    C     C_R   0.454440 0.205487 0.503297 0.941261
C3    C     C_R   0.499274 0.502929 0.260819 0.838018
C4    C     C_R   0.421299 0.788606 0.878798 -0.125830
C5    C     C_R   0.379036 0.922171 0.949878 -0.122190
C6    C     C_R   0.375170 0.921110 0.081447 -0.139844
C7    C     C_R   0.413535 0.786485 0.142345 -0.170904
C8    C     C_R   0.455777 0.649805 0.071622 0.090953
C9    C     C_R   0.459746 0.650922 0.939250 0.093979
C10   C     C_R   0.506421 0.514266 0.871317 -0.068773
C11   C     C_R   0.554037 0.382017 0.929771 -0.195051
C12   C     C_R   0.550197 0.380886 0.058848 -0.209613
C13   C     C_R   0.498978 0.512080 0.128606 -0.076953
C14   C     C_2   0.569461 0.958096 0.495500 -0.370988
C15   C     C_2   0.430536 0.041865 0.505400 -0.394674
C16   C     C_R   0.501969 0.503941 0.739132 0.854921
Cl1   Cl    Cl    0.961329 0.676956 0.639379 -0.485842
H1    H     H_    0.590416 0.278551 0.875316 0.150800
H2    H     H_    0.425917 0.795031 0.776775 0.148915
H3    H     H_    0.350379 0.027036 0.902690 0.142818
H4    H     H_    0.343497 0.025182 0.136455 0.137502
H5    H     H_    0.411572 0.791301 0.244449 0.147468
H6    H     H_    0.585035 0.276933 0.104804 0.149055
H7    H     H_    0.700730 0.009020 0.486012 0.197984
H8    H     H_    0.299272 0.990902 0.514945 0.205447
H9    H     H_    0.012805 0.380816 0.405316 0.152627
N1    N     N_2   0.950330 0.457950 0.466250 -0.109764
N2    N     N_2   0.049670 0.542050 0.533750 0.104711
O1    O     O_R   0.389250 0.738570 0.508280 -0.609327
O2    O     O_R   0.678390 0.711630 0.486650 -0.567957
O3    O     O_R   0.355400 0.513470 0.694050 -0.597827
O4    O     O_R   0.644540 0.486530 0.672420 -0.561496
O5    O     O_R   0.321610 0.288370 0.513350 -0.635187
O6    O     O_R   0.610750 0.261430 0.491720 -0.619854
O7    O     O_R   0.355460 0.513470 0.327580 -0.641230
O8    O     O_R   0.644600 0.486530 0.305950 -0.614781
Zn1   Zn    Zn3+2 0.306930 0.517990 0.514440 1.012086
Zn2   Zn    Zn3+2 0.693070 0.482010 0.485560 1.019385

loop_
_geom_bond_atom_site_label_1
_geom_bond_atom_site_label_2
_ccdc_geom_bond_type
C11   C12   A    
C11   H1    S    
C6    C7    A    
O4    Zn2   S    
C16   O4    A    
C7    H5    S    
C9    C10   A    
C3    C13   S    
C3    O7    A    
C2    O6    A    
O8    Zn2   S    
C7    C8    A    
C5    H3    S    
C10   C16   S    
C6    H4    S    
C16   O3    A    
C2    C15   S    
Cl1   N2    S    
C12   H6    S    
H9    N1    S    
C8    C13   A    
C3    O8    A    
N2    Zn1   S    
C2    O5    A    
C1    O1    A    
C1    O2    A    
O7    Zn1   S    
C5    C6    A    
C15   H8    S    
C10   C11   A    
N1    Zn2   S    
O1    Zn1   S    
C12   C13   A    
O2    Zn2   S    
C14   H7    S    
N1    N2    D    
C14   C15   D    
C8    C9    A    
C1    C14   S    
C4    C9    A    
O6    Zn2   S    
C4    H2    S    
O5    Zn1   S    
O3    Zn1   S    
C4    C5    A    
