data_mof_unit_2754.cif
_audit_creation_date              2012-12-11T16:45:54-0500
_audit_creation_method            fapswitch 2.2
_symmetry_space_group_name_H-M    P1
_symmetry_Int_Tables_number       1
_space_group_crystal_system       triclinic
_cell_length_a                    19.74849
_cell_length_b                    17.099799
_cell_length_c                    15.424598
_cell_angle_alpha                 90.19935
_cell_angle_beta                  53.157659
_cell_angle_gamma                 89.966416
_cell_volume                      4168.50444821

loop_
_atom_site_label
_atom_site_type_symbol
_atom_type_description
_atom_site_fract_x
_atom_site_fract_y
_atom_site_fract_z
_atom_type_partial_charge
C1    C     C_R   0.873751 0.693951 0.993846 -0.121453
C2    C     C_R   0.151697 0.311628 0.069665 0.144895
C3    C     C_R   0.347772 0.811876 0.930508 0.142002
C4    C     C_R   0.711964 0.849113 0.976621 0.150153
C5    C     C_R   0.811143 0.639869 0.321836 0.091315
C6    C     C_R   0.112186 0.684379 0.700249 0.099135
C7    C     C_R   0.381061 0.184547 0.304395 0.097566
C8    C     C_R   0.687248 0.141107 0.677615 0.090420
C9    C     C_R   0.749558 0.663099 0.509392 0.137463
C10   C     C_R   0.137423 0.747959 0.544216 0.126562
C11   C     C_R   0.297509 0.300125 0.395649 0.147197
C12   C     C_R   0.159465 0.673200 0.954335 -0.116879
C13   C     C_R   0.749011 0.164326 0.490005 0.136217
C14   C     C_R   0.743051 0.671525 0.425068 -0.015080
C15   C     C_R   0.163620 0.729633 0.607229 -0.018769
C16   C     C_R   0.353435 0.244451 0.384441 -0.016637
C17   C     C_R   0.755101 0.172883 0.574703 -0.013548
C18   C     C_R   0.376921 0.246630 0.454252 -0.249179
C19   C     C_R   0.822567 0.215350 0.558644 -0.258158
C20   C     C_R   0.675387 0.714158 0.441716 -0.257047
C21   C     C_R   0.247386 0.740501 0.569247 -0.241619
C22   C     C_R   0.331308 0.294795 0.547167 0.301436
C23   C     C_R   0.340339 0.173471 0.045870 -0.115058
C24   C     C_R   0.877143 0.257243 0.461689 0.299792
C25   C     C_R   0.621004 0.756394 0.538985 0.300423
C26   C     C_R   0.302453 0.780808 0.474077 0.281899
C27   C     C_R   0.258934 0.334357 0.570758 -0.014512
C28   C     C_R   0.859148 0.258291 0.385353 -0.008270
C29   C     C_R   0.639461 0.757506 0.614871 -0.008965
C30   C     C_R   0.270037 0.811159 0.420727 -0.014016
C31   C     C_R   0.699672 0.706028 0.601620 0.137641
C32   C     C_R   0.190619 0.789582 0.451250 0.123923
C33   C     C_R   0.250098 0.343448 0.488079 0.100976
C34   C     C_R   0.626335 0.193814 0.006077 -0.122189
C35   C     C_R   0.799106 0.206976 0.398018 0.134994
C36   C     C_3   0.771171 0.721649 0.608525 -0.485295
C37   C     C_3   0.120740 0.839870 0.471062 -0.477426
C38   C     C_3   0.173255 0.339117 0.490341 -0.475548
C39   C     C_3   0.727862 0.222639 0.390651 -0.481844
C40   C     C_R   0.903506 0.301100 0.204252 0.322893
C41   C     C_R   0.146735 0.324883 0.777135 0.334350
C42   C     C_R   0.360372 0.820046 0.222128 0.329610
C43   C     C_R   0.596248 0.800954 0.795434 0.322819
C44   C     C_3   0.826100 0.673253 0.506895 -0.499386
C45   C     C_R   0.890528 0.315844 0.301002 0.054808
C46   C     C_3   0.061661 0.793816 0.574419 -0.473370
C47   C     C_3   0.226188 0.291195 0.387321 -0.489772
C48   C     C_3   0.672738 0.174599 0.491990 -0.497133
C49   C     C_2   0.694169 0.237558 0.092621 -0.201502
C50   C     C_2   0.215242 0.184376 0.042659 -0.198819
C51   C     C_2   0.284359 0.684550 0.957546 -0.199834
C52   C     C_2   0.806549 0.737395 0.906380 -0.207390
C53   C     C_2   0.309076 0.753259 0.904916 -0.201648
C54   C     C_2   0.785744 0.808520 0.953100 -0.200545
C55   C     C_2   0.714927 0.308378 0.045783 -0.195291
C56   C     C_R   0.190428 0.363293 0.677057 0.051921
C57   C     C_2   0.190101 0.253182 0.095649 -0.200544
C58   C     C_R   0.829838 0.411227 0.951102 -0.147939
C59   C     C_R   0.134290 0.388744 0.103624 -0.157872
C60   C     C_R   0.365382 0.888785 0.896614 -0.159401
C61   C     C_R   0.670276 0.911372 0.048641 -0.145725
C62   C     C_R   0.860137 0.578913 0.313296 -0.127902
C63   C     C_R   0.092823 0.608196 0.697839 -0.135979
C64   C     C_R   0.403160 0.108280 0.305124 -0.140216
C65   C     C_R   0.638748 0.079742 0.686021 -0.127685
C66   C     C_R   0.839586 0.322172 0.049161 -0.130953
C67   C     C_R   0.322823 0.852805 0.323633 0.047766
C68   C     C_R   0.123428 0.299099 0.008642 -0.105937
C69   C     C_R   0.376355 0.799357 0.991001 -0.101419
C70   C     C_R   0.660680 0.822026 0.950276 -0.129850
C71   C     C_R   0.851022 0.672744 0.220058 -0.139387
C72   C     C_R   0.103012 0.697940 0.793725 -0.156445
C73   C     C_R   0.393752 0.197411 0.208158 -0.144602
C74   C     C_R   0.647974 0.173446 0.779968 -0.139005
C75   C     C_R   0.905605 0.394222 0.304017 -0.226381
C76   C     C_R   0.142072 0.425894 0.687891 -0.206772
C77   C     C_R   0.365367 0.918873 0.315513 -0.192930
C78   C     C_R   0.608750 0.815449 0.699058 0.054829
C79   C     C_R   0.594182 0.893902 0.696006 -0.225831
C80   C     C_R   0.864460 0.602877 0.897751 -0.158295
C81   C     C_R   0.169959 0.580989 0.049377 -0.154637
C82   C     C_R   0.330091 0.080886 0.950524 -0.153598
C83   C     C_R   0.635721 0.103119 0.102020 -0.160734
C84   C     C_R   0.845710 0.680042 0.932608 0.157246
C85   C     C_R   0.210842 0.644450 0.979821 0.152087
C86   C     C_R   0.288974 0.144520 0.020329 0.151708
C87   C     C_R   0.654593 0.180088 0.067002 0.155916
C88   C     C_3   0.361964 0.305467 0.615307 -0.990130
C89   C     C_R   0.788405 0.349097 0.022660 0.149462
C90   C     C_3   0.950215 0.300908 0.444977 -1.034509
C91   C     C_3   0.547737 0.800394 0.556436 -1.035744
C92   C     C_3   0.393553 0.790166 0.431842 -0.992935
C93   C     C_3   0.929829 0.223154 0.147119 -1.086324
C94   C     C_3   0.150408 0.238346 0.790061 -1.069952
C95   C     C_3   0.355801 0.735340 0.200754 -1.079296
C96   C     C_3   0.570258 0.723222 0.852054 -1.086703
H1    H     H_    0.880551 0.749647 0.020958 0.081780
H2    H     H_    0.109218 0.829840 0.409650 0.194410
H3    H     H_    0.155016 0.397155 0.477853 0.185570
H4    H     H_    0.736613 0.194603 0.319533 0.183849
H5    H     H_    0.877057 0.707618 0.436097 0.202596
H6    H     H_    0.033687 0.829223 0.649391 0.197809
H7    H     H_    0.204316 0.229700 0.397462 0.200881
H8    H     H_    0.621546 0.209235 0.562893 0.203231
H9    H     H_    0.847102 0.617270 0.520393 0.184194
H10   H     H_    0.015814 0.757296 0.572920 0.191648
H11   H     H_    0.238805 0.321686 0.315437 0.181775
H12   H     H_    0.168547 0.724099 0.907558 0.088569
H13   H     H_    0.652039 0.118594 0.477956 0.184149
H14   H     H_    0.717925 0.216206 0.135776 0.121760
H15   H     H_    0.193083 0.163938 0.997153 0.125517
H16   H     H_    0.306770 0.664250 0.002693 0.126545
H17   H     H_    0.782827 0.715747 0.863202 0.122965
H18   H     H_    0.288546 0.772474 0.857205 0.127946
H19   H     H_    0.811524 0.830949 0.993447 0.123959
H20   H     H_    0.689141 0.330531 0.005426 0.123393
H21   H     H_    0.210352 0.272620 0.143709 0.125857
H22   H     H_    0.808767 0.444309 0.911684 0.097379
H23   H     H_    0.331055 0.224638 0.092862 0.087928
H24   H     H_    0.138432 0.415299 0.164046 0.093725
H25   H     H_    0.361103 0.915135 0.836398 0.095678
H26   H     H_    0.691260 0.944672 0.088157 0.097044
H27   H     H_    0.848117 0.541406 0.377240 0.104645
H28   H     H_    0.088815 0.580318 0.637986 0.089705
H29   H     H_    0.410790 0.082123 0.362525 0.092501
H30   H     H_    0.650386 0.042359 0.621805 0.103756
H31   H     H_    0.828457 0.274286 0.101056 0.116415
H32   H     H_    0.112283 0.243220 0.987364 0.113056
H33   H     H_    0.387706 0.743284 0.010842 0.114442
H34   H     H_    0.619494 0.249377 0.979080 0.082258
H35   H     H_    0.671993 0.773996 0.897998 0.116285
H36   H     H_    0.830708 0.723160 0.199089 0.100339
H37   H     H_    0.107577 0.753593 0.823360 0.097178
H38   H     H_    0.394716 0.253552 0.175330 0.095222
H39   H     H_    0.667947 0.223975 0.801384 0.099696
H40   H     H_    0.910360 0.423041 0.362606 0.131439
H41   H     H_    0.155446 0.465280 0.624956 0.127740
H42   H     H_    0.356363 0.953779 0.380235 0.122349
H43   H     H_    0.589358 0.922596 0.637609 0.131782
H44   H     H_    0.860317 0.576184 0.837403 0.091130
H45   H     H_    0.789637 0.784346 0.596628 0.196790
H46   H     H_    0.191154 0.547289 0.088195 0.100745
H47   H     H_    0.309104 0.046986 0.911459 0.101142
H48   H     H_    0.640101 0.076783 0.162161 0.091654
H49   H     H_    0.427392 0.209255 0.438958 0.139900
H50   H     H_    0.830466 0.218502 0.622298 0.149292
H51   H     H_    0.667292 0.717282 0.378255 0.151148
H52   H     H_    0.269214 0.717925 0.614283 0.148122
H53   H     H_    0.421902 0.272981 0.580686 0.244843
H54   H     H_    0.374122 0.368472 0.618046 0.249590
H55   H     H_    0.315217 0.284976 0.698854 0.255717
H56   H     H_    0.127309 0.902223 0.485594 0.194997
H57   H     H_    0.984396 0.262332 0.464847 0.258363
H58   H     H_    0.996747 0.319255 0.359519 0.255753
H59   H     H_    0.926425 0.353042 0.498855 0.245407
H60   H     H_    0.513083 0.761722 0.537339 0.256289
H61   H     H_    0.501701 0.819563 0.641888 0.255416
H62   H     H_    0.571364 0.852029 0.502340 0.247253
H63   H     H_    0.408342 0.754421 0.478619 0.243345
H64   H     H_    0.436394 0.770766 0.345968 0.259592
H65   H     H_    0.406643 0.852087 0.438401 0.245634
H66   H     H_    0.972435 0.192543 0.160510 0.260842
H67   H     H_    0.120768 0.305410 0.560499 0.202248
H68   H     H_    0.874399 0.185655 0.176758 0.245768
H69   H     H_    0.964276 0.231143 0.058713 0.251643
H70   H     H_    0.086700 0.216450 0.856704 0.248249
H71   H     H_    0.170394 0.207178 0.714822 0.261721
H72   H     H_    0.195530 0.223752 0.807690 0.245419
H73   H     H_    0.416672 0.715793 0.125574 0.249013
H74   H     H_    0.345209 0.698543 0.266991 0.259099
H75   H     H_    0.302368 0.725862 0.196350 0.251360
H76   H     H_    0.536597 0.731578 0.940253 0.250901
H77   H     H_    0.527133 0.692854 0.839356 0.260786
H78   H     H_    0.709250 0.285401 0.402802 0.197189
H79   H     H_    0.625722 0.685323 0.821634 0.246326
H80   H     H_    0.762933 0.693842 0.679195 0.184024
N1    N     N_R   0.908660 0.628630 0.995840 -0.042224
N2    N     N_R   0.096530 0.421430 0.063580 -0.037859
N3    N     N_R   0.403470 0.921430 0.936420 -0.038234
N4    N     N_R   0.596530 0.921430 0.063580 -0.040661
N5    N     N_R   0.927500 0.575670 0.211370 -0.041855
N6    N     N_R   0.072500 0.575670 0.788630 -0.036337
N7    N     N_R   0.427500 0.075670 0.211370 -0.036331
N8    N     N_R   0.572500 0.075670 0.788630 -0.041203
N9    N     N_R   0.908660 0.365680 0.995820 -0.047131
N10   N     N_R   0.091340 0.365680 0.004180 -0.042915
N11   N     N_R   0.408660 0.865680 0.995820 -0.042537
N12   N     N_R   0.091340 0.628630 0.004160 -0.047203
N13   N     N_R   0.591340 0.865680 0.004180 -0.047053
N14   N     N_R   0.922310 0.631420 0.151980 -0.042793
N15   N     N_R   0.077690 0.631420 0.848020 -0.038120
N16   N     N_R   0.422310 0.131420 0.151980 -0.039999
N17   N     N_R   0.577690 0.131420 0.848020 -0.042542
N18   N     N_R   0.927500 0.426330 0.211360 -0.051083
N19   N     N_R   0.072500 0.426330 0.788640 -0.055609
N20   N     N_R   0.427500 0.926330 0.211360 -0.054867
N21   N     N_R   0.572500 0.926330 0.788640 -0.051335
N22   N     N_R   0.903470 0.570760 0.936440 -0.037242
N23   N     N_R   0.408660 0.128630 0.995840 -0.047472
N24   N     N_R   0.096530 0.570760 0.063560 -0.041952
N25   N     N_R   0.403470 0.070760 0.936440 -0.041886
N26   N     N_R   0.596530 0.070760 0.063560 -0.037595
N27   N     N_R   0.591340 0.128630 0.004160 -0.042780
N28   N     N_R   0.922310 0.368460 0.151950 -0.056670
N29   N     N_R   0.077690 0.368460 0.848050 -0.061464
N30   N     N_R   0.422310 0.868460 0.151950 -0.060810
N31   N     N_R   0.577690 0.868460 0.848050 -0.057294
N32   N     N_R   0.903470 0.421430 0.936420 -0.041011
Ni1   Ni    Ni4+2 0.000000 0.630300 0.000000 0.206722
Ni2   Ni    Ni4+2 0.500000 0.130300 0.000000 0.206164
Ni3   Ni    Ni4+2 0.000000 0.369700 0.000000 0.206480
Ni4   Ni    Ni4+2 0.500000 0.869700 0.000000 0.206551
Ni5   Ni    Ni4+2 0.988090 0.497570 0.863760 0.206635
Ni6   Ni    Ni4+2 0.011910 0.497570 0.136240 0.205491
Ni7   Ni    Ni4+2 0.488090 0.997570 0.863760 0.205921
Ni8   Ni    Ni4+2 0.511910 0.997570 0.136240 0.206817

loop_
_geom_bond_atom_site_label_1
_geom_bond_atom_site_label_2
_ccdc_geom_bond_type
C92   H65   S    
C70   N13   A    
C79   H43   S    
C21   C26   A    
N32   Ni5   S    
C79   N21   A    
C96   H79   S    
N17   Ni2   S    
C88   H53   S    
C49   C87   S    
C11   C47   S    
C67   C77   A    
C40   C93   S    
C80   C84   A    
C18   H49   S    
N7    N16   A    
C51   C85   S    
C81   N24   A    
C4    C70   A    
C63   H28   S    
C72   H37   S    
C2    C57   S    
C7    C73   A    
C76   H41   S    
C27   C33   A    
C60   N3    A    
C6    C72   A    
C46   H6    S    
C51   H16   S    
C12   C85   A    
C92   H63   S    
C56   C76   A    
C3    C69   A    
C77   N20   A    
C13   C35   A    
C2    C68   A    
N4    N13   A    
C83   N26   A    
C23   H23   S    
C83   H48   S    
N20   Ni8   S    
N3    N11   A    
C55   H20   S    
N29   Ni3   S    
C26   C92   S    
N8    N17   A    
C12   N12   A    
C23   N23   A    
C80   N22   A    
C58   H22   S    
C66   H31   S    
N5    N14   A    
N1    Ni1   S    
C52   C84   S    
C38   H67   S    
N25   Ni7   S    
C91   H62   S    
C73   H38   S    
C71   H36   S    
C64   N7    A    
C1    N1    A    
C29   C78   S    
C40   N28   A    
C28   C35   A    
C23   C86   A    
C10   C46   S    
N6    Ni5   S    
N24   Ni6   S    
N9    Ni3   S    
N27   Ni2   S    
N5    Ni6   S    
C45   C75   A    
C22   C88   S    
C90   H58   S    
N12   Ni1   S    
C68   H32   S    
C72   N15   A    
C30   C67   S    
N21   Ni7   S    
C3    C60   A    
C48   H13   S    
C6    C15   S    
C74   N17   A    
C93   H69   S    
C8    C65   A    
C71   N14   A    
C63   N6    A    
C18   C22   A    
N10   Ni3   S    
C54   H19   S    
N20   N30   A    
N9    N32   A    
C94   H70   S    
C39   H78   S    
C62   H27   S    
C58   C89   A    
C52   C54   D    
C66   C89   A    
C59   H24   S    
C25   C29   A    
C40   C45   A    
C70   H35   S    
C28   C45   S    
C25   C91   S    
C19   H50   S    
C47   H7    S    
C96   H77   S    
N2    Ni6   S    
C43   N31   A    
C42   C95   S    
C21   H52   S    
C14   C20   A    
N4    Ni8   S    
C77   H42   S    
N26   N27   A    
C1    H1    S    
C12   H12   S    
C9    C31   A    
C75   H40   S    
C82   H47   S    
N8    Ni7   S    
C93   H68   S    
C44   H9    S    
C4    C61   A    
C61   H26   S    
C1    C84   A    
C6    C63   A    
C35   C39   S    
C9    C14   A    
C41   C56   A    
C76   N19   A    
N30   Ni4   S    
C82   N25   A    
C43   C78   A    
C11   C16   A    
C41   C94   S    
N19   N29   A    
C58   N32   A    
C34   N27   A    
C83   C87   A    
N18   N28   A    
C74   H39   S    
C8    C74   A    
C43   C96   S    
C5    C14   S    
C20   H51   S    
C37   H2    S    
C16   C18   A    
C32   C37   S    
C27   C56   S    
C90   H57   S    
C95   H73   S    
N16   Ni2   S    
C38   C47   S    
N15   Ni1   S    
C69   H33   S    
C81   H46   S    
C2    C59   A    
C36   H80   S    
C47   H11   S    
C22   C27   A    
C96   H76   S    
N31   Ni4   S    
C88   H55   S    
C36   C44   S    
N6    N15   A    
C37   H56   S    
C94   H72   S    
C53   H18   S    
C57   H21   S    
N7    Ni8   S    
C36   H45   S    
C69   N11   A    
C7    C16   S    
C9    C44   S    
C4    C54   S    
C10   C15   A    
C78   C79   A    
C50   C57   D    
C88   H54   S    
N14   Ni1   S    
C59   N2    A    
C24   C28   A    
C38   H3    S    
N13   Ni4   S    
C24   C90   S    
C94   H71   S    
N18   Ni6   S    
C13   C48   S    
C44   H5    S    
C26   C30   A    
C11   C33   A    
C13   C17   A    
C33   C38   S    
C92   H64   S    
N1    N22   A    
N23   Ni2   S    
N26   Ni8   S    
C65   H30   S    
C19   C24   A    
C90   H59   S    
C91   H60   S    
C29   C31   A    
C82   C86   A    
C8    C17   S    
C30   C32   A    
C3    C53   S    
C39   H4    S    
C42   C67   A    
C93   H66   S    
C52   H17   S    
C46   H10   S    
N28   Ni3   S    
C50   H15   S    
C17   C19   A    
C5    C62   A    
C42   N30   A    
C34   C87   A    
C49   C55   D    
C41   N29   A    
C60   H25   S    
C55   C89   S    
C95   H74   S    
C7    C64   A    
C91   H61   S    
C73   N16   A    
N21   N31   A    
C50   C86   S    
C68   N10   A    
N2    N10   A    
C75   N18   A    
C10   C32   A    
C15   C21   A    
N11   Ni4   S    
C34   H34   S    
C61   N4    A    
C5    C71   A    
C64   H29   S    
C20   C25   A    
C66   N9    A    
N3    Ni7   S    
N23   N25   A    
N12   N24   A    
C31   C36   S    
C39   C48   S    
C80   H44   S    
C51   C53   D    
C37   C46   S    
N22   Ni5   S    
C95   H75   S    
C81   C85   A    
N19   Ni5   S    
C49   H14   S    
C62   N5    A    
C65   N8    A    
C48   H8    S    
