data_mof_unit_1185.cif
_audit_creation_date              2012-12-10T18:16:25-0500
_audit_creation_method            fapswitch 2.2
_symmetry_space_group_name_H-M    P1
_symmetry_Int_Tables_number       1
_space_group_crystal_system       triclinic
_cell_length_a                    12.567404
_cell_length_b                    13.125513
_cell_length_c                    27.375673
_cell_angle_alpha                 91.335468
_cell_angle_beta                  102.824115
_cell_angle_gamma                 82.209567
_cell_volume                      4362.33085247

loop_
_atom_site_label
_atom_site_type_symbol
_atom_type_description
_atom_site_fract_x
_atom_site_fract_y
_atom_site_fract_z
_atom_type_partial_charge
C1    C     C_R   0.438630 0.691532 0.496976 0.912206
C2    C     C_R   0.393400 0.589733 0.705273 -0.157728
C3    C     C_R   0.471798 0.543219 0.745177 0.269460
C4    C     C_R   0.407534 0.583245 0.888756 -0.079071
C5    C     C_R   0.464615 0.653119 0.869890 -0.011963
C6    C     C_R   0.501884 0.734975 0.899514 -0.233195
C7    C     C_R   0.364650 0.503442 0.858022 -0.033631
C8    C     C_R   0.498309 0.510944 0.647181 -0.085428
C9    C     C_R   0.488993 0.513599 0.352188 -0.061536
C10   C     C_R   0.472711 0.644507 0.023326 0.077485
C11   C     C_R   0.326265 0.534276 0.008592 -0.054342
C12   C     C_R   0.501899 0.498292 0.594262 0.909107
C13   C     C_R   0.406707 0.582137 0.042005 0.072949
C14   C     C_R   0.563314 0.678032 0.056720 -0.127083
C15   C     C_R   0.582932 0.657886 0.107649 -0.124751
C16   C     C_R   0.513350 0.602578 0.126741 -0.021731
C17   C     C_R   0.423973 0.564823 0.093988 -0.045713
C18   C     C_R   0.353396 0.508893 0.113097 -0.111297
C19   C     C_R   0.377807 0.490086 0.165399 0.510171
C20   C     C_R   0.531235 0.584408 0.178126 0.523248
C21   C     C_R   0.392173 0.579021 0.270185 -0.102308
C22   C     C_R   0.398219 0.576016 0.321888 0.068544
C23   C     C_R   0.561154 0.308405 0.504929 0.856087
C24   C     C_R   0.572408 0.460946 0.331006 -0.242946
C25   C     C_R   0.564782 0.465909 0.279628 -0.082637
C26   C     C_R   0.473943 0.524028 0.249228 0.277202
C27   C     C_R   0.452769 0.662589 0.971103 0.034912
C28   C     C_R   0.396967 0.591398 0.939013 0.067275
C29   C     C_R   0.335719 0.525029 0.957857 0.044808
C30   C     C_R   0.493109 0.742785 0.949434 -0.041385
C31   C     C_R   0.301843 0.437885 0.876890 0.010511
C32   C     C_R   0.243385 0.494589 0.027461 -0.066003
C33   C     C_R   0.258467 0.479474 0.079826 -0.052451
C34   C     C_R   0.497547 0.502605 0.405892 0.849381
C35   C     C_R   0.293080 0.446521 0.926773 -0.318870
C36   C     C_R   0.717256 0.060837 0.561284 -0.187712
C37   C     C_R   0.597654 0.198948 0.512448 -0.062663
C38   C     C_R   0.291314 0.837529 0.471915 -0.336961
C39   C     C_R   0.258357 0.942698 0.464367 0.052047
C40   C     C_R   0.336937 0.010330 0.478525 -0.145686
C41   C     C_R   0.445494 0.973742 0.504927 0.000196
C42   C     C_R   0.467867 0.871540 0.522374 0.092527
C43   C     C_R   0.531490 0.035536 0.516206 0.088327
C44   C     C_R   0.632456 0.998855 0.549570 0.186061
C45   C     C_R   0.481712 0.640375 0.821321 0.516186
C46   C     C_R   0.643827 0.904576 0.573822 -0.349635
C47   C     C_R   0.558748 0.843935 0.563030 -0.012592
C48   C     C_R   0.519715 0.133145 0.495350 -0.236568
C49   C     C_R   0.699165 0.161683 0.543402 -0.193256
C50   C     C_R   0.397782 0.801201 0.498701 -0.055875
C51   C     C_R   0.088324 0.347332 0.426760 -0.105084
C52   C     C_R   0.804518 0.621393 0.563146 -0.012427
C53   C     C_R   0.914238 0.625145 0.585830 -0.284006
C54   C     C_R   0.997417 0.562876 0.568204 0.114179
C55   C     C_R   0.967870 0.511569 0.521438 -0.008870
C56   C     C_R   0.393462 0.488783 0.811130 0.504838
C57   C     C_R   0.855358 0.499331 0.504381 0.204319
C58   C     C_R   0.043930 0.465986 0.492882 -0.015034
C59   C     C_R   0.011479 0.393789 0.454442 0.087012
C60   C     C_R   0.903090 0.371357 0.444621 -0.276443
C61   C     C_R   0.826401 0.425218 0.468116 -0.177937
C62   C     C_R   0.148732 0.495742 0.498411 -0.058719
C63   C     C_R   0.195674 0.371852 0.439748 0.007187
C64   C     C_R   0.566984 0.479873 0.737231 0.132771
C65   C     C_R   0.580878 0.463181 0.687196 0.031861
C66   C     C_R   0.406337 0.573617 0.656983 -0.177426
H1    H     H_    0.343776 0.611217 0.626764 0.185140
H2    H     H_    0.642334 0.414335 0.354211 0.147170
H3    H     H_    0.628593 0.423918 0.263363 0.153672
H4    H     H_    0.254766 0.388579 0.941359 0.158515
H5    H     H_    0.761219 0.211921 0.556136 0.160563
H6    H     H_    0.715598 0.881637 0.603519 0.137403
H7    H     H_    0.794553 0.033623 0.586758 0.143027
H8    H     H_    0.320713 0.637578 0.711855 0.150320
H9    H     H_    0.447437 0.162086 0.467487 0.155372
H10   H     H_    0.234272 0.784002 0.456419 0.158954
H11   H     H_    0.310384 0.090962 0.470354 0.176899
H12   H     H_    0.258248 0.336408 0.420881 0.177157
H13   H     H_    0.874456 0.313603 0.418136 0.144261
H14   H     H_    0.171742 0.562538 0.519391 0.134742
H15   H     H_    0.741207 0.663151 0.579230 0.124597
H16   H     H_    0.537104 0.793905 0.883672 0.185097
H17   H     H_    0.933117 0.668787 0.620014 0.146699
H18   H     H_    0.745215 0.404810 0.457908 0.208504
H19   H     H_    0.324428 0.623865 0.245070 0.136360
H20   H     H_    0.653570 0.685276 0.131973 0.197586
H21   H     H_    0.623072 0.715909 0.043651 0.153372
N1    N     N_R   0.449695 0.557327 0.794027 -0.356542
N2    N     N_R   0.463464 0.529743 0.196251 -0.345520
N3    N     N_R   0.222180 0.444690 0.474320 -0.126035
N4    N     N_R   0.776980 0.554780 0.525420 -0.127474
O1    O     O_R   0.366730 0.627160 0.487740 -0.618283
O2    O     O_2   0.614416 0.622693 0.209978 -0.554037
O3    O     O_2   0.370550 0.404882 0.783544 -0.545047
O4    O     O_2   0.317476 0.432594 0.185795 -0.569414
O5    O     O_R   0.544830 0.662520 0.504140 -0.615409
O6    O     O_R   0.410970 0.482310 0.563040 -0.615837
O7    O     O_R   0.589070 0.517670 0.579450 -0.624059
O8    O     O_R   0.455170 0.337480 0.495860 -0.611232
O9    O     O_R   0.633270 0.372840 0.512260 -0.639975
O10   O     O_R   0.410930 0.482330 0.420550 -0.623750
O11   O     O_R   0.589030 0.517690 0.436960 -0.624069
O12   O     O_2   0.531719 0.709072 0.801708 -0.568337
Zn1   Zn    Zn3+2 0.381080 0.476390 0.489050 0.940151
Zn2   Zn    Zn3+2 0.618920 0.523610 0.510950 0.935619
C67   C     C_3   0.650749 0.430084 0.782081 -0.428083
C68   C     C_3   0.744950 0.494904 0.799496 -0.360770
C69   C     C_3   0.833985 0.440826 0.841477 -0.805898
H22   H     H_    0.798827 0.426947 0.874165 0.268820
H23   H     H_    0.870217 0.366260 0.828167 0.264770
H24   H     H_    0.900439 0.489808 0.853569 0.258702
H25   H     H_    0.782797 0.510262 0.767876 0.227216
H26   H     H_    0.712203 0.570116 0.813466 0.262091
H27   H     H_    0.683096 0.350525 0.773262 0.215289
H28   H     H_    0.611756 0.420653 0.814003 0.211547
C70   C     C_2   0.238825 0.362134 0.846318 0.502844
H29   H     H_    0.236052 0.287961 0.862383 0.045140
O13   O     O_2   0.182638 0.384690 0.804611 -0.541258
C71   C     C_2   0.135682 0.482990 0.992887 0.414851
H30   H     H_    0.106473 0.532692 0.960174 0.079299
O14   O     O_2   0.081096 0.416238 0.999198 -0.557806
C72   C     C_2   0.171164 0.439759 0.099414 0.630701
H31   H     H_    0.182968 0.360934 0.112730 0.090043
O15   O     O_2   0.085919 0.495525 0.100877 -0.538072
C73   C     C_2   0.142677 0.979894 0.440232 0.413227
H32   H     H_    0.085778 0.925273 0.426068 0.060164
O16   O     O_2   0.108783 0.071604 0.436755 -0.567886
C74   C     C_2   0.555751 0.766862 0.601133 0.430086
H33   H     H_    0.629601 0.738894 0.628753 0.050946
O17   O     O_2   0.468647 0.739853 0.604535 -0.606480
C75   C     C_2   0.059425 0.278032 0.383265 0.500521
H34   H     H_    0.975231 0.266938 0.367095 0.059418
O18   O     O_2   0.130844 0.232824 0.363853 -0.549554
C76   C     C_3   0.105117 0.532554 0.606365 -0.424540
C77   C     C_3   0.120672 0.417462 0.619447 -0.362612
C78   C     C_3   0.225912 0.386737 0.659046 -0.746633
H35   H     H_    0.299048 0.396033 0.643959 0.255311
H36   H     H_    0.226045 0.434574 0.693039 0.299155
H37   H     H_    0.231120 0.304795 0.669665 0.258189
H38   H     H_    0.049222 0.399713 0.633931 0.232513
H39   H     H_    0.124952 0.370254 0.585573 0.234540
H40   H     H_    0.177535 0.552861 0.594569 0.191224
H41   H     H_    0.104440 0.576122 0.641682 0.202068
C79   C     C_3   0.311813 0.640151 0.345348 -0.397181
C80   C     C_3   0.228885 0.717767 0.310059 -0.358704
C81   C     C_3   0.155131 0.785911 0.338421 -0.845677
H42   H     H_    0.113537 0.738410 0.359508 0.256691
H43   H     H_    0.205066 0.835713 0.364751 0.256616
H44   H     H_    0.091409 0.835963 0.311538 0.268411
H45   H     H_    0.273472 0.768150 0.291940 0.236922
H46   H     H_    0.175730 0.675806 0.280706 0.241151
H47   H     H_    0.264364 0.587465 0.360269 0.231861
H48   H     H_    0.355562 0.683620 0.377213 0.200388
C82   C     C_2   0.514730 0.841250 0.975004 0.383912
H49   H     H_    0.567898 0.888764 0.962442 0.070216
O19   O     O_2   0.469117 0.872905 0.008469 -0.537423
C83   C     C_3   0.675903 0.387328 0.676603 -0.453200
C84   C     C_3   0.642584 0.278892 0.668549 -0.339831
C85   C     C_3   0.743470 0.197409 0.674348 -0.855914
H50   H     H_    0.795800 0.213612 0.648463 0.258060
H51   H     H_    0.792855 0.196310 0.713439 0.262152
H52   H     H_    0.716756 0.120497 0.665814 0.257129
H53   H     H_    0.594506 0.261988 0.696245 0.237338
H54   H     H_    0.589707 0.274015 0.630405 0.220830
H55   H     H_    0.704398 0.410358 0.643578 0.221047
H56   H     H_    0.749836 0.386652 0.707433 0.220067

loop_
_geom_bond_atom_site_label_1
_geom_bond_atom_site_label_2
_ccdc_geom_bond_type
C10   C27   A    
C58   C62   A    
C23   O8    A    
O5    Zn2   S    
C60   H13   S    
C8    C66   A    
C83   C84   S    
C6    H16   S    
C41   C42   A    
N4    Zn2   S    
C21   C26   A    
C74   H33   S    
C80   C81   S    
C77   C78   S    
C38   H10   S    
C53   C54   A    
C70   H29   S    
C26   N2    S    
C56   O3    S    
O9    Zn2   S    
C34   O11   A    
O7    Zn2   S    
C67   H27   S    
C39   C73   S    
C62   H14   S    
C28   C29   A    
C14   H21   S    
C78   H37   S    
C5    C6    A    
C9    C22   A    
C56   N1    A    
C67   C68   S    
C15   C16   A    
C54   C76   S    
C69   H22   S    
O11   Zn2   S    
C18   C19   A    
C68   H25   S    
C79   H48   S    
C68   H26   S    
C45   O12   S    
C82   O19   D    
C76   H41   S    
C54   C55   A    
C35   H4    S    
C70   O13   D    
C16   C17   A    
C68   C69   S    
C85   H51   S    
C43   C48   A    
C46   H6    S    
C80   H45   S    
C2    H8    S    
C8    C12   S    
C23   O9    A    
C59   C60   A    
C21   C22   A    
C27   C30   A    
C41   C43   A    
C48   H9    S    
C73   H32   S    
C7    C56   A    
C4    C7    A    
C4    C28   A    
C44   C46   A    
C81   H43   S    
C71   O14   D    
C77   H38   S    
C30   C82   S    
C21   H19   S    
C34   O10   A    
C7    C31   A    
C47   C74   S    
C45   N1    A    
C51   C63   A    
C24   C25   A    
C65   C83   S    
C10   C14   A    
C83   H55   S    
C39   C40   A    
C51   C75   S    
C78   H35   S    
C20   O2    S    
C75   O18   D    
C58   C59   A    
C23   C37   S    
C5    C45   A    
C10   C13   A    
C60   C61   A    
C84   C85   S    
C43   C44   A    
C19   N2    A    
C76   H40   S    
C81   H44   S    
C37   C49   A    
O1    Zn1   S    
C85   H50   S    
C77   H39   S    
C16   C20   A    
C17   C18   A    
C82   H49   S    
C85   H52   S    
C37   C48   A    
C64   C67   S    
N3    Zn1   S    
C12   O6    A    
C80   H46   S    
C84   H53   S    
C42   C50   A    
C15   H20   S    
C78   H36   S    
C40   C41   A    
C6    C30   A    
C11   C32   A    
C1    O1    A    
C55   C57   A    
C33   C72   S    
C31   C35   A    
C36   C44   A    
C51   C59   A    
C32   C71   S    
C72   O15   D    
C75   H34   S    
C31   C70   S    
C19   O4    S    
C52   C53   A    
C81   H42   S    
C1    C50   S    
C46   C47   A    
C57   N4    A    
C3    N1    S    
C14   C15   A    
C12   O7    A    
C79   C80   S    
C2    C66   A    
C61   H18   S    
C74   O17   D    
C83   H56   S    
C71   H30   S    
C9    C24   A    
C57   C61   A    
C76   C77   S    
C38   C50   A    
C84   H54   S    
O10   Zn1   S    
C20   N2    A    
C29   C35   A    
C69   H24   S    
C13   C17   A    
C67   H28   S    
C53   H17   S    
C64   C65   A    
C2    C3    A    
C25   C26   A    
C79   H47   S    
C66   H1    S    
C32   C33   A    
C11   C13   A    
C38   C39   A    
C1    O5    A    
C4    C5    A    
C62   N3    A    
C63   N3    A    
C69   H23   S    
C9    C34   S    
O8    Zn1   S    
C42   C47   A    
C3    C64   A    
C52   H15   S    
C18   C33   A    
O6    Zn1   S    
C36   H7    S    
C24   H2    S    
C8    C65   A    
C25   H3    S    
C11   C29   A    
C49   H5    S    
C55   C58   A    
C22   C79   S    
C27   C28   A    
C73   O16   D    
C40   H11   S    
C52   N4    A    
C72   H31   S    
C36   C49   A    
C63   H12   S    
