data_mof_unit_1442.cif
_audit_creation_date              2012-12-11T17:06:29-0500
_audit_creation_method            fapswitch 2.2
_symmetry_space_group_name_H-M    P1
_symmetry_Int_Tables_number       1
_space_group_crystal_system       triclinic
_cell_length_a                    6.996015
_cell_length_b                    14.503351
_cell_length_c                    15.995881
_cell_angle_alpha                 90.571681
_cell_angle_beta                  90.164893
_cell_angle_gamma                 90.008346
_cell_volume                      1622.94510591

loop_
_atom_site_label
_atom_site_type_symbol
_atom_type_description
_atom_site_fract_x
_atom_site_fract_y
_atom_site_fract_z
_atom_type_partial_charge
O1    O     O_R   0.494400 0.415450 0.412630 -0.517086
O2    O     O_R   0.823940 0.405730 0.586760 -0.550724
O3    O     O_R   0.994240 0.584550 0.587370 -0.533089
C1    C     C_R   0.655289 0.384446 0.615821 0.732685
O4    O     O_R   0.824110 0.404430 0.413240 -0.504970
O5    O     O_R   0.994420 0.583240 0.412620 -0.541505
C2    C     C_R   0.655218 0.382302 0.384557 0.778335
O6    O     O_R   0.494230 0.416760 0.587380 -0.546927
O7    O     O_3   0.660800 0.558670 0.500000 -0.388144
V1    V     V_3+5 0.935650 0.489120 0.500000 1.554893
O8    O     O_R   0.324140 0.594270 0.413240 -0.544987
C3    C     C_R   0.155148 0.615642 0.384130 0.738526
O9    O     O_R   0.323960 0.595570 0.586760 -0.546880
C4    C     C_R   0.155141 0.617893 0.615065 0.765804
V2    V     V_3+5 0.435660 0.510880 0.500000 1.508518
O10   O     O_3   0.160640 0.441330 0.500000 -0.360880
C5    C     C_3   0.034240 0.673814 0.766792 0.635572
C6    C     C_3   0.205918 0.711442 0.817752 -0.236035
H1    H     H_    0.264400 0.680492 0.875634 0.188975
C7    C     C_3   0.121582 0.809702 0.810163 -0.227849
C8    C     C_3   0.951305 0.771349 0.759857 0.614570
C9    C     C_3   0.059642 0.785939 0.676809 -0.352642
C10   C     C_3   0.231332 0.823415 0.727987 -0.063811
C11   C     C_3   0.317561 0.725628 0.734682 -0.109312
C12   C     C_3   0.144244 0.687762 0.684824 -0.218786
H2    H     H_    0.999542 0.816703 0.619151 0.161175
H3    H     H_    0.468517 0.706111 0.723089 0.220126
C13   C     C_R   0.277773 0.811944 0.236766 0.129097
C14   C     C_R   0.120268 0.814261 0.182416 -0.107833
C15   C     C_R   0.973410 0.750495 0.196659 -0.161322
H4    H     H_    0.858136 0.745379 0.152753 0.145817
C16   C     C_R   0.981795 0.687931 0.263314 -0.133994
H5    H     H_    0.867421 0.638406 0.270221 0.152403
C17   C     C_R   0.142466 0.684696 0.316438 -0.104507
C18   C     C_R   0.288495 0.748785 0.302490 0.080314
C19   C     C_3   0.495131 0.729773 0.286976 -0.472534
C20   C     C_3   0.482719 0.797275 0.214837 -0.154052
H6    H     H_    0.520410 0.656831 0.267728 0.182144
H7    H     H_    0.585561 0.753477 0.340348 0.177007
C21   C     C_R   0.478341 0.263458 0.695993 0.059668
C22   C     C_R   0.645119 0.314992 0.683055 -0.176030
C23   C     C_R   0.794667 0.304504 0.740951 -0.228430
H8    H     H_    0.914120 0.351234 0.739505 0.168551
C24   C     C_R   0.781536 0.240422 0.806276 0.576495
C25   C     C_R   0.622722 0.182164 0.813588 -0.207477
C26   C     C_R   0.467503 0.198718 0.760619 -0.018673
C27   C     C_3   0.276024 0.232913 0.787641 -0.246215
C28   C     C_3   0.283158 0.300400 0.715136 -0.290482
H9    H     H_    0.165586 0.178393 0.780640 0.171178
H10   H     H_    0.180193 0.283836 0.664121 0.133109
C29   C     C_R   0.526707 0.236929 0.318221 -0.256353
C30   C     C_R   0.648009 0.313578 0.315737 -0.134871
C31   C     C_R   0.771796 0.320488 0.246567 0.663354
C32   C     C_R   0.759010 0.257173 0.178712 -0.169566
C33   C     C_R   0.624198 0.183931 0.179694 -0.167657
C34   C     C_R   0.516952 0.173437 0.252752 -0.051856
C35   C     C_3   0.308862 0.157164 0.266695 1.058232
C36   C     C_3   0.319417 0.227105 0.338359 0.445265
H11   H     H_    0.293263 0.197879 0.401266 0.035456
O11   O     O_R   0.771650 0.079500 0.908680 -0.516815
O12   O     O_R   0.441690 0.091800 0.082800 -0.513314
O13   O     O_R   0.271460 0.912980 0.083410 -0.546752
C37   C     C_R   0.610832 0.114972 0.110755 0.757272
O14   O     O_R   0.441930 0.090510 0.909280 -0.558467
O15   O     O_R   0.271690 0.911670 0.908660 -0.539637
C38   C     C_R   0.610891 0.113416 0.881540 0.750307
O16   O     O_R   0.771410 0.080810 0.083440 -0.532240
O17   O     O_3   0.605100 0.937580 0.996050 -0.377271
V3    V     V_3+5 0.330220 0.007110 0.996030 1.587856
O18   O     O_R   0.941980 0.900620 0.909250 -0.519544
C39   C     C_R   0.110640 0.878927 0.880480 0.730705
O19   O     O_R   0.941740 0.901920 0.082770 -0.544178
C40   C     C_R   0.110805 0.879971 0.111566 0.726691
V4    V     V_3+5 0.830220 0.985300 0.996000 1.603337
O20   O     O_3   0.105210 0.054870 0.996020 -0.354810
C41   C     C_1   0.506570 0.753944 0.131548 0.299481
N1    N     N_1   0.524244 0.719986 0.066221 -0.314758
C42   C     C_1   0.597399 0.881274 0.227441 0.363797
N2    N     N_1   0.687796 0.947180 0.238096 -0.316920
F1    F     F_    0.909920 0.243550 0.869222 -0.698836
C43   C     C_1   0.286118 0.275899 0.872265 0.522111
N3    N     N_1   0.296951 0.309728 0.937921 -0.270479
C44   C     C_1   0.282089 0.399239 0.739514 0.386927
N4    N     N_1   0.282280 0.476188 0.759203 -0.299551
F2    F     F_    0.895081 0.392760 0.242037 -0.641386
F3    F     F_    0.928666 0.596453 0.786499 -0.649011
C45   C     C_1   0.873830 0.273671 0.105725 0.530910
N5    N     N_1   0.965637 0.287163 0.047169 -0.204975
F4    F     F_    0.270694 0.068346 0.292668 -0.716150
F5    F     F_    0.195807 0.184714 0.200442 -0.655575
F6    F     F_    0.217776 0.306889 0.322117 -0.607054
F7    F     F_    0.762446 0.794520 0.773740 -0.681103
C46   C     C_1   0.341586 0.905915 0.706660 0.406239
N6    N     N_1   0.428638 0.970988 0.689958 -0.358601

loop_
_geom_bond_atom_site_label_1
_geom_bond_atom_site_label_2
_ccdc_geom_bond_type
C45   N5    T    
C46   N6    T    
C22   C23   A    
C18   C19   S    
C11   H3    S    
C1    O6    A    
C43   N3    T    
C27   H9    S    
C31   C32   A    
C24   C25   A    
C21   C26   A    
C35   F4    S    
C6    C11   S    
C13   C14   A    
C2    C30   S    
C17   C18   A    
O5    C3    A    
C15   H4    S    
C14   C40   S    
C1    C22   S    
O17   V4    S    
V2    O10   S    
C34   C35   S    
C29   C34   A    
C29   C36   S    
O12   C37   A    
C26   C27   S    
O8    V2    S    
C27   C28   S    
C13   C18   A    
O17   V3    S    
C9    C12   S    
C33   C37   S    
O18   V4    S    
C10   C11   S    
O13   C40   A    
O18   C39   A    
O1    V2    S    
O7    V1    S    
C28   H10   S    
O11   C38   A    
C8    C9    S    
C23   C24   A    
C37   O16   A    
C35   F5    S    
C29   C30   A    
C24   F1    S    
C11   C12   S    
O19   V4    S    
V4    O20   S    
O4    C2    A    
C42   N2    T    
C6    H1    S    
C36   H11   S    
O15   C39   A    
C5    C8    S    
C5    F3    S    
O13   V3    S    
C16   C17   A    
O2    C1    A    
C14   C15   A    
C44   N4    T    
C7    C10   S    
C33   C34   A    
C5    C6    S    
C7    C39   S    
O16   V4    S    
O14   V3    S    
C41   N1    T    
O3    C4    A    
C21   C22   A    
C20   C41   S    
O6    V2    S    
O9    V2    S    
C10   C46   S    
C23   H8    S    
C3    C17   S    
O2    V1    S    
C30   C31   A    
C36   F6    S    
O12   V3    S    
C21   C28   S    
C32   C33   A    
C19   C20   S    
O1    C2    A    
C19   H7    S    
O19   C40   A    
O5    V1    S    
O8    C3    A    
C20   C42   S    
C28   C44   S    
C5    C12   S    
C16   H5    S    
C19   H6    S    
O7    V2    S    
O4    V1    S    
O3    V1    S    
V1    O10   S    
C15   C16   A    
C35   C36   S    
C32   C45   S    
C13   C20   S    
O15   V3    S    
O11   V4    S    
V3    O20   S    
C6    C7    S    
C27   C43   S    
C4    C12   S    
C25   C26   A    
C7    C8    S    
C9    H2    S    
C25   C38   S    
C9    C10   S    
C31   F2    S    
O9    C4    A    
O14   C38   A    
C8    F7    S    
