data_mof_unit_179.cif
_audit_creation_date              2012-12-10T18:32:48-0500
_audit_creation_method            fapswitch 2.2
_symmetry_space_group_name_H-M    P1
_symmetry_Int_Tables_number       1
_space_group_crystal_system       triclinic
_cell_length_a                    14.967697
_cell_length_b                    15.367991
_cell_length_c                    15.706042
_cell_angle_alpha                 89.780574
_cell_angle_beta                  104.254438
_cell_angle_gamma                 81.239285
_cell_volume                      3457.45230979

loop_
_atom_site_label
_atom_site_type_symbol
_atom_type_description
_atom_site_fract_x
_atom_site_fract_y
_atom_site_fract_z
_atom_type_partial_charge
C1    C     C_R   0.440796 0.662220 0.484311 0.915956
C2    C     C_3   0.395945 0.540008 0.023158 0.386616
C3    C     C_3   0.495021 0.504446 0.081585 0.291736
C4    C     C_3   0.525619 0.409150 0.056378 -0.525289
C5    C     C_3   0.528056 0.408517 0.958777 -0.392560
C6    C     C_1   0.494364 0.504046 0.173027 -0.077724
C7    C     C_1   0.501338 0.502472 0.826205 -0.081391
C8    C     C_1   0.501997 0.501515 0.750895 -0.138239
C9    C     C_R   0.403257 0.754929 0.461404 -0.144088
C10   C     C_R   0.599008 0.244639 0.525608 -0.290597
C11   C     C_R   0.308283 0.870732 0.358529 -0.216514
C12   C     C_R   0.500793 0.500227 0.661556 0.905039
C13   C     C_R   0.328785 0.782129 0.386762 0.136414
C14   C     C_R   0.454217 0.816809 0.506356 0.046034
C15   C     C_R   0.448184 0.899389 0.464841 0.048137
C16   C     C_R   0.368520 0.929232 0.395978 0.110654
C17   C     C_R   0.518511 0.952820 0.489213 0.097693
C18   C     C_R   0.499594 0.042444 0.459240 0.107237
C19   C     C_R   0.411601 0.074258 0.401541 -0.174626
C20   C     C_R   0.349756 0.017204 0.366407 -0.241945
C21   C     C_R   0.608886 0.917593 0.538552 -0.198811
C22   C     C_R   0.672486 0.972175 0.574788 -0.135637
C23   C     C_R   0.559380 0.337827 0.514216 0.980002
C24   C     C_R   0.649949 0.063026 0.557176 -0.054859
C25   C     C_R   0.567227 0.097631 0.492731 -0.105279
C26   C     C_R   0.708651 0.120095 0.603027 0.428039
C27   C     C_R   0.678060 0.211302 0.593615 0.022019
C28   C     C_R   0.554468 0.187432 0.467370 0.379986
C29   C     C_R   0.832750 0.650678 0.619176 -0.279963
C30   C     C_R   0.746250 0.623266 0.599139 -0.087928
C31   C     C_R   0.800438 0.504195 0.519111 0.576466
C32   C     C_R   0.893153 0.523353 0.546258 -0.155280
C33   C     C_R   0.906583 0.602097 0.591244 0.012993
C34   C     C_R   0.498615 0.500959 0.338372 0.903902
C35   C     C_R   0.971101 0.470206 0.526498 -0.013561
C36   C     C_R   0.054011 0.506159 0.530962 0.034974
C37   C     C_R   0.063349 0.587174 0.571664 -0.308327
C38   C     C_R   0.993080 0.631691 0.606801 0.488560
C39   C     C_R   0.969887 0.381245 0.505847 -0.248865
C40   C     C_R   0.039179 0.334174 0.471564 0.486372
C41   C     C_R   0.113196 0.375116 0.460384 -0.028690
C42   C     C_R   0.124206 0.459495 0.494258 -0.034906
C43   C     C_R   0.177404 0.332151 0.416972 -0.343626
C44   C     C_R   0.252738 0.371633 0.409175 0.631307
C45   C     C_3   0.399253 0.539649 0.925134 -0.455845
C46   C     C_R   0.206291 0.492446 0.490778 -0.099751
C47   C     C_3   0.567444 0.562604 0.967657 -0.388375
C48   C     C_3   0.565651 0.562754 0.065441 -0.367460
C49   C     C_1   0.495481 0.502955 0.248694 -0.196573
C50   C     C_3   0.499141 0.503282 0.917269 0.287434
H1    H     H_    0.348858 0.498251 0.888530 0.130300
H2    H     H_    0.348474 0.493601 0.033821 0.027381
H3    H     H_    0.596015 0.381871 0.098219 0.198513
H4    H     H_    0.285747 0.042630 0.317890 0.152512
H5    H     H_    0.738462 0.942917 0.618224 0.186200
H6    H     H_    0.248801 0.892597 0.303777 0.165008
H7    H     H_    0.377292 0.607499 0.894504 0.198516
H8    H     H_    0.388050 0.142725 0.382225 0.239664
H9    H     H_    0.630814 0.847375 0.550592 0.170628
H10   H     H_    0.224967 0.551662 0.521706 0.159901
H11   H     H_    0.841343 0.709547 0.656070 0.200679
H12   H     H_    0.689498 0.659698 0.621781 0.188176
H13   H     H_    0.639626 0.538172 0.962040 0.177834
H14   H     H_    0.125198 0.617132 0.579463 0.156538
H15   H     H_    0.916632 0.346502 0.518319 0.217148
H16   H     H_    0.169677 0.268490 0.389252 0.192595
H17   H     H_    0.547501 0.631186 0.938763 0.191465
H18   H     H_    0.546455 0.631514 0.084293 0.211030
H19   H     H_    0.636787 0.537383 0.106839 0.156510
H20   H     H_    0.479815 0.364762 0.923050 0.181418
H21   H     H_    0.599667 0.381112 0.953493 0.192746
H22   H     H_    0.476241 0.365644 0.067730 0.179300
N1    N     N_R   0.731690 0.552720 0.548990 -0.126268
N2    N     N_R   0.268300 0.447240 0.450950 -0.148486
O1    O     O_R   0.383120 0.605620 0.475300 -0.594518
O2    O     O_R   0.531890 0.639510 0.506740 -0.615054
O3    O     O_R   0.425580 0.483050 0.607130 -0.627614
O4    O     O_R   0.574360 0.516930 0.638570 -0.594427
O5    O     O_R   0.468110 0.360490 0.493260 -0.548320
O6    O     O_R   0.616880 0.394380 0.524700 -0.565082
O7    O     O_R   0.425640 0.483070 0.361430 -0.597210
O8    O     O_R   0.574420 0.516950 0.392870 -0.603132
Zn1   Zn    Zn3+2 0.400660 0.477370 0.479010 1.001956
Zn2   Zn    Zn3+2 0.599340 0.522630 0.520990 1.000937
O9    O     O_3   0.366498 0.627032 0.046269 -0.600616
C51   C     C_3   0.268364 0.644325 0.031540 0.089266
H23   H     H_    0.245596 0.604615 0.079397 0.157079
H24   H     H_    0.233143 0.629269 0.963270 0.119761
C52   C     C_3   0.238416 0.741379 0.044614 -0.772649
H25   H     H_    0.258694 0.782571 0.996426 0.247957
H26   H     H_    0.161476 0.755471 0.034773 0.206689
H27   H     H_    0.272397 0.758558 0.112238 0.276532
O10   O     O_3   0.505448 0.219960 0.383882 -0.585363
C53   C     C_3   0.562234 0.195441 0.325333 0.097739
H28   H     H_    0.571254 0.122860 0.317698 0.149788
H29   H     H_    0.632230 0.216107 0.348634 0.134627
C54   C     C_3   0.516279 0.240231 0.235505 -0.856951
H30   H     H_    0.509239 0.312775 0.240555 0.243589
H31   H     H_    0.559968 0.219967 0.189005 0.211827
H32   H     H_    0.446288 0.221235 0.209688 0.261201
I1    I     I_    0.752005 0.293351 0.685879 -0.316785
I2    I     I_    0.246060 0.695725 0.309942 -0.415748
I3    I     I_    0.511210 0.792860 0.645747 -0.411987
O11   O     O_3   0.789827 0.086776 0.665055 -0.582254
C55   C     C_3   0.864203 0.077030 0.623495 0.091377
H33   H     H_    0.874647 0.142230 0.599705 0.169974
H34   H     H_    0.851342 0.033032 0.566938 0.127239
C56   C     C_3   0.953562 0.035923 0.689229 -0.754350
H35   H     H_    0.945592 0.970208 0.713325 0.250901
H36   H     H_    0.012551 0.027915 0.657227 0.214289
H37   H     H_    0.969400 0.078926 0.745902 0.264648
O12   O     O_3   0.005420 0.710168 0.647661 -0.610988
C57   C     C_3   0.063070 0.691033 0.733469 0.080132
H38   H     H_    0.135014 0.660857 0.731473 0.142203
H39   H     H_    0.033772 0.645719 0.771109 0.136175
C58   C     C_3   0.069098 0.776178 0.782074 -0.811706
H40   H     H_    0.998484 0.807035 0.786796 0.252539
H41   H     H_    0.114902 0.762031 0.849451 0.206264
H42   H     H_    0.098589 0.822833 0.746598 0.265640
O13   O     O_3   0.316278 0.329642 0.366518 -0.572288
C59   C     C_3   0.288365 0.357318 0.276476 0.171732
H43   H     H_    0.352136 0.362547 0.254159 0.188388
H44   H     H_    0.244182 0.423839 0.262595 0.113617
C60   C     C_3   0.238456 0.289127 0.221668 -0.953456
H45   H     H_    0.169399 0.288048 0.235485 0.243205
H46   H     H_    0.227379 0.306233 0.150679 0.226736
H47   H     H_    0.281180 0.222618 0.236840 0.271620
O14   O     O_3   0.039604 0.245246 0.457142 -0.610028
C61   C     C_3   0.973188 0.233098 0.378515 0.105578
H48   H     H_    0.009846 0.190900 0.336371 0.161811
H49   H     H_    0.939492 0.294957 0.338542 0.111943
C62   C     C_3   0.898751 0.184992 0.399408 -0.873353
H50   H     H_    0.858826 0.225871 0.439864 0.255059
H51   H     H_    0.849524 0.171142 0.337386 0.208786
H52   H     H_    0.931874 0.121607 0.436028 0.263582
O15   O     O_3   0.776229 0.439749 0.460419 -0.608490
C63   C     C_3   0.771696 0.471261 0.374433 0.117320
H53   H     H_    0.842106 0.478477 0.366722 0.125007
H54   H     H_    0.725758 0.536361 0.358046 0.154381
C64   C     C_3   0.732557 0.405734 0.308433 -0.832030
H55   H     H_    0.665583 0.390884 0.318351 0.266800
H56   H     H_    0.721164 0.433123 0.240435 0.197272
H57   H     H_    0.781772 0.343134 0.316794 0.241071

loop_
_geom_bond_atom_site_label_1
_geom_bond_atom_site_label_2
_ccdc_geom_bond_type
C10   C27   A    
O10   C53   S    
C4    H3    S    
C39   H15   S    
C41   C42   A    
C36   C42   A    
C35   C36   A    
C64   H57   S    
C4    H22   S    
C48   H19   S    
O6    Zn2   S    
C3    C6    S    
O14   C61   S    
O2    Zn2   S    
C54   H30   S    
C7    C8    T    
O9    C51   S    
C58   H40   S    
C25   C28   A    
C61   H49   S    
C55   H34   S    
C45   H7    S    
C26   C27   A    
C37   C38   A    
C36   C37   A    
C64   H56   S    
C21   H9    S    
C62   H52   S    
C47   H13   S    
C51   H24   S    
C31   N1    A    
C45   H1    S    
C15   C16   A    
C40   O14   S    
C29   C33   A    
C3    C48   S    
C56   H35   S    
C2    O9    S    
C18   C19   A    
C42   C46   A    
C44   O13   S    
C9    C13   A    
O11   C55   S    
C59   C60   S    
C54   H31   S    
C19   C20   A    
C58   H41   S    
C62   H50   S    
C12   O4    A    
C34   O7    A    
C23   O6    A    
C52   H26   S    
N2    Zn1   S    
N1    Zn2   S    
C16   C20   A    
C53   H29   S    
C57   C58   S    
C26   O11   S    
C2    C45   S    
C21   C22   A    
C41   C43   A    
C18   C25   A    
C47   H17   S    
O12   C57   S    
O7    Zn1   S    
C47   C50   S    
C19   H8    S    
C55   C56   S    
C29   H11   S    
C1    O1    A    
C32   C35   A    
C1    C9    S    
C24   C25   A    
C20   H4    S    
C39   C40   A    
C30   N1    A    
C51   H23   S    
C31   O15   S    
C53   C54   S    
C27   I1    S    
C17   C21   A    
C51   C52   S    
C28   O10   S    
C35   C39   A    
C9    C14   A    
C29   C30   A    
C63   H54   S    
C11   C16   A    
C47   C48   S    
C8    C12   S    
C12   O3    A    
C17   C18   A    
C64   H55   S    
C52   H27   S    
C44   N2    A    
C59   H43   S    
C2    H2    S    
C60   H47   S    
C40   C41   A    
O8    Zn2   S    
C30   H12   S    
C43   C44   A    
C22   C24   A    
C5    C50   S    
C38   O12   S    
C3    C4    S    
C52   H25   S    
C46   N2    A    
C37   H14   S    
O13   C59   S    
C60   H46   S    
C57   H38   S    
C55   H33   S    
C10   C28   A    
C15   C17   A    
C34   C49   S    
C54   H32   S    
C46   H10   S    
C1    O2    A    
C31   C32   A    
C7    C50   S    
C24   C26   A    
C4    C5    S    
C48   H18   S    
C5    H20   S    
C58   H42   S    
C22   H5    S    
C10   C23   S    
C63   H53   S    
C33   C38   A    
C56   H37   S    
C32   C33   A    
C61   C62   S    
C2    C3    S    
C61   H48   S    
C5    H21   S    
O5    Zn1   S    
C11   C13   A    
O1    Zn1   S    
C14   I3    S    
C45   C50   S    
C43   H16   S    
C63   C64   S    
C56   H36   S    
C6    C49   T    
C53   H28   S    
C59   H44   S    
O4    Zn2   S    
C62   H51   S    
O3    Zn1   S    
C14   C15   A    
O15   C63   S    
C34   O8    A    
C23   O5    A    
C13   I2    S    
C11   H6    S    
C60   H45   S    
C57   H39   S    
