data_mof_unit_2008.cif
_audit_creation_date              2012-12-10T18:58:40-0500
_audit_creation_method            fapswitch 2.2
_symmetry_space_group_name_H-M    P1
_symmetry_Int_Tables_number       1
_space_group_crystal_system       triclinic
_cell_length_a                    10.644113
_cell_length_b                    9.826039
_cell_length_c                    17.54076
_cell_angle_alpha                 90.10483
_cell_angle_beta                  90.328432
_cell_angle_gamma                 91.125668
_cell_volume                      1834.19113399

loop_
_atom_site_label
_atom_site_type_symbol
_atom_type_description
_atom_site_fract_x
_atom_site_fract_y
_atom_site_fract_z
_atom_type_partial_charge
C1    C     C_R   0.260229 0.498314 0.500155 0.981446
C2    C     C_R   0.739796 0.501669 0.499705 0.981146
C3    C     C_1   0.556487 0.499513 0.966349 0.160202
C4    C     C_1   0.557060 0.499518 0.033998 0.159220
C5    C     C_R   0.063529 0.428299 0.557975 0.096254
C6    C     C_R   0.936489 0.570780 0.441208 0.095679
C7    C     C_R   0.933684 0.438942 0.560918 0.119275
C8    C     C_R   0.066498 0.560819 0.438513 0.120227
C9    C     C_R   0.502049 0.499952 0.353372 0.929841
C10   C     C_R   0.500667 0.500104 0.646664 0.932770
C11   C     C_R   0.872408 0.506193 0.501316 -0.164890
C12   C     C_R   0.127663 0.493579 0.498180 -0.165705
C13   C     C_R   0.550513 0.623704 0.847166 0.412313
C14   C     C_R   0.531021 0.375170 0.152164 0.411476
C15   C     C_R   0.550479 0.623776 0.153353 0.406611
C16   C     C_R   0.526377 0.375487 0.847955 0.404732
C17   C     C_R   0.532259 0.623398 0.768293 -0.331963
C18   C     C_R   0.513509 0.376341 0.230965 -0.327221
C19   C     C_R   0.532859 0.623278 0.232152 -0.326438
C20   C     C_R   0.508194 0.376843 0.769096 -0.329739
C21   C     C_R   0.511311 0.500362 0.729314 -0.117926
C22   C     C_R   0.514317 0.499971 0.270881 -0.118937
C23   C     C_R   0.580329 0.073850 0.546285 -0.064919
C24   C     C_R   0.419669 0.926150 0.453719 -0.065179
C25   C     C_R   0.419638 0.070160 0.453744 -0.092109
C26   C     C_R   0.580362 0.929838 0.546259 -0.091807
C27   C     C_R   0.547523 0.499323 0.885992 0.006224
C28   C     C_R   0.549381 0.499302 0.114347 0.006994
H1    H     H_    0.535774 0.718881 0.737513 0.165278
H2    H     H_    0.499435 0.280925 0.260875 0.165440
H3    H     H_    0.534368 0.718914 0.263019 0.166712
H4    H     H_    0.492420 0.281610 0.738975 0.167779
H5    H     H_    0.644479 0.130014 0.583278 0.134933
H6    H     H_    0.355506 0.869988 0.416735 0.135885
H7    H     H_    0.355424 0.123391 0.416823 0.123970
H8    H     H_    0.644563 0.876603 0.583190 0.123069
N1    N     N_R   0.500000 0.857200 0.500000 -0.079106
N2    N     N_R   0.500000 0.142800 0.500000 -0.078959
O1    O     O_R   0.316770 0.614620 0.500000 -0.610977
O2    O     O_R   0.683230 0.385380 0.500000 -0.612154
O3    O     O_R   0.683230 0.614620 0.500000 -0.624483
O4    O     O_R   0.316770 0.385380 0.500000 -0.623277
O5    O     O_R   0.500010 0.614710 0.389120 -0.612514
O6    O     O_R   0.499990 0.385290 0.610880 -0.612377
O7    O     O_R   0.499990 0.614710 0.610880 -0.632223
O8    O     O_R   0.500010 0.385290 0.389120 -0.632358
Zn1   Zn    Zn3+2 0.500000 0.653120 0.500000 0.949521
Zn2   Zn    Zn3+2 0.500000 0.346880 0.500000 0.949825
O9    O     O_3   0.570480 0.743332 0.887441 -0.724634
H9    H     H_    0.569395 0.821097 0.851488 0.337438
O10   O     O_3   0.529389 0.255075 0.110940 -0.723466
H10   H     H_    0.515258 0.177632 0.146258 0.337299
O11   O     O_3   0.567712 0.743678 0.113296 -0.724830
H11   H     H_    0.565565 0.821458 0.149355 0.337054
O12   O     O_3   0.523022 0.255491 0.888998 -0.723340
H12   H     H_    0.507137 0.178258 0.853522 0.337294
N3    N     N_2   0.131445 0.361165 0.616918 -0.304967
H13   H     H_    0.103097 0.384293 0.671436 0.232758
C29   C     C_3   0.147257 0.216420 0.605364 -0.726037
H14   H     H_    0.057203 0.159987 0.613986 0.209846
H15   H     H_    0.217396 0.178475 0.646888 0.238429
H16   H     H_    0.181167 0.194561 0.546983 0.258390
N4    N     N_2   0.868406 0.636038 0.381661 -0.304920
H17   H     H_    0.897446 0.612112 0.327384 0.233872
C30   C     C_3   0.850836 0.780755 0.392188 -0.726194
H18   H     H_    0.939982 0.838342 0.382588 0.209850
H19   H     H_    0.817586 0.803645 0.450581 0.258590
H20   H     H_    0.779538 0.816509 0.350754 0.238074
N5    N     N_2   0.863654 0.385548 0.623704 -0.304333
H21   H     H_    0.895956 0.296056 0.646195 0.233849
C31   C     C_3   0.835769 0.484980 0.681822 -0.783966
H22   H     H_    0.924021 0.526397 0.707741 0.236616
H23   H     H_    0.778785 0.435990 0.727303 0.248685
H24   H     H_    0.781428 0.569859 0.657246 0.240702
N6    N     N_2   0.136979 0.615686 0.376258 -0.303733
H25   H     H_    0.103385 0.704071 0.353135 0.233890
C32   C     C_3   0.169847 0.516977 0.318765 -0.785691
H26   H     H_    0.083776 0.475843 0.290143 0.237555
H27   H     H_    0.222254 0.431778 0.344532 0.238771
H28   H     H_    0.230780 0.566575 0.275341 0.245585

loop_
_geom_bond_atom_site_label_1
_geom_bond_atom_site_label_2
_ccdc_geom_bond_type
O12   H12   S    
N4    C30   S    
C17   H1    S    
C14   C18   A    
C19   H3    S    
C15   C28   A    
C32   H26   S    
C7    C11   A    
C15   O11   S    
O1    Zn1   S    
C9    C22   S    
N3    C29   S    
C2    O3    A    
C23   C26   A    
N5    C31   S    
C23   H5    S    
C18   H2    S    
N1    Zn1   S    
N2    Zn2   S    
C16   C20   A    
C16   C27   A    
C32   H27   S    
C9    O8    A    
C1    C12   S    
C2    C11   S    
C4    C28   S    
O7    Zn1   S    
C10   C21   S    
O8    Zn2   S    
C29   H15   S    
C9    O5    A    
C10   O6    A    
O10   H10   S    
C19   C22   A    
C24   C25   A    
C5    C12   A    
C6    C11   A    
C5    C7    A    
C6    C8    A    
C30   H19   S    
O11   H11   S    
C8    N6    S    
C17   C21   A    
C6    N4    S    
C15   C19   A    
N6    H25   S    
C25   N2    A    
C14   O10   S    
C8    C12   A    
C30   H20   S    
C10   O7    A    
C24   N1    A    
O3    Zn1   S    
O4    Zn2   S    
N6    C32   S    
C25   H7    S    
C13   O9    S    
C26   H8    S    
C30   H18   S    
C3    C4    T    
C31   H23   S    
C20   H4    S    
C32   H28   S    
O2    Zn2   S    
C29   H16   S    
C18   C22   A    
C7    N5    S    
C31   H24   S    
C26   N1    A    
C13   C17   A    
C23   N2    A    
C5    N3    S    
C3    C27   S    
C16   O12   S    
C31   H22   S    
N3    H13   S    
N5    H21   S    
C24   H6    S    
C1    O1    A    
N4    H17   S    
C2    O2    A    
C1    O4    A    
C29   H14   S    
C20   C21   A    
O9    H9    S    
C13   C27   A    
C14   C28   A    
O5    Zn1   S    
O6    Zn2   S    
