data_mof_unit_1147.cif
_audit_creation_date              2012-12-10T19:47:26-0500
_audit_creation_method            fapswitch 2.2
_symmetry_space_group_name_H-M    P1
_symmetry_Int_Tables_number       1
_space_group_crystal_system       triclinic
_cell_length_a                    10.80908
_cell_length_b                    10.817024
_cell_length_c                    12.731455
_cell_angle_alpha                 93.076056
_cell_angle_beta                  93.097104
_cell_angle_gamma                 89.485164
_cell_volume                      1484.24464204

loop_
_atom_site_label
_atom_site_type_symbol
_atom_type_description
_atom_site_fract_x
_atom_site_fract_y
_atom_site_fract_z
_atom_type_partial_charge
C1    C     C_R   0.262008 0.496738 0.500400 0.795487
C2    C     C_R   0.738006 0.502893 0.499625 0.799225
C3    C     C_R   0.496258 0.871560 0.497997 -0.086851
C4    C     C_R   0.504374 0.128447 0.502028 -0.087350
C5    C     C_R   0.427321 0.935167 0.420410 0.010229
C6    C     C_R   0.574100 0.064809 0.579179 -0.002203
C7    C     C_R   0.256974 0.179015 0.698723 -0.133933
C8    C     C_R   0.745629 0.819853 0.298872 -0.129507
C9    C     C_R   0.198341 0.253750 0.624667 -0.128497
C10   C     C_R   0.803818 0.745893 0.373731 -0.137824
C11   C     C_R   0.132910 0.360340 0.657954 0.121066
C12   C     C_R   0.867254 0.637643 0.341457 0.118953
C13   C     C_R   0.126965 0.391099 0.766138 -0.141362
C14   C     C_R   0.871600 0.604408 0.233570 -0.141472
C15   C     C_R   0.186712 0.316657 0.839968 -0.154394
C16   C     C_R   0.812449 0.678212 0.158979 -0.153214
C17   C     C_R   0.251514 0.210648 0.806305 -0.136486
C18   C     C_R   0.749686 0.785911 0.191580 -0.131582
C19   C     C_R   0.938717 0.444539 0.578975 -0.245463
C20   C     C_R   0.061246 0.554208 0.421008 -0.237951
C21   C     C_R   0.871691 0.504928 0.499592 -0.075110
C22   C     C_R   0.128319 0.494178 0.500485 -0.075645
C23   C     C_R   0.504013 0.261974 0.500718 0.802622
C24   C     C_R   0.496387 0.738036 0.499282 0.796305
C25   C     C_R   0.933041 0.562044 0.420508 -0.001282
C26   C     C_R   0.067010 0.436751 0.579482 -0.002346
C27   C     C_2   0.471389 0.460880 0.030623 -0.281216
C28   C     C_2   0.528384 0.539271 0.969365 -0.282638
C29   C     C_1   0.522801 0.526683 0.852927 0.204905
C30   C     C_1   0.477092 0.473394 0.147069 0.209174
C31   C     C_R   0.867882 0.175311 0.732007 -0.157460
C32   C     C_R   0.139489 0.815059 0.264922 -0.151194
C33   C     C_R   0.789605 0.127718 0.648207 0.202693
C34   C     C_R   0.216084 0.862921 0.349863 0.199551
C35   C     C_R   0.659868 0.126903 0.659696 0.112281
C36   C     C_R   0.344839 0.872782 0.337610 0.111683
C37   C     C_R   0.612386 0.174683 0.754229 -0.138230
C38   C     C_R   0.393939 0.833013 0.241541 -0.141273
C39   C     C_R   0.691402 0.225026 0.835471 -0.144935
C40   C     C_R   0.317087 0.782066 0.159054 -0.143389
C41   C     C_R   0.819054 0.224973 0.824507 -0.169007
C42   C     C_R   0.189909 0.773582 0.170582 -0.165535
C43   C     C_R   0.568439 0.936613 0.576504 -0.244765
C44   C     C_R   0.432380 0.063348 0.423435 -0.252707
Cu1   Cu    Cu3+1 0.492140 0.492110 0.395880 0.983123
Cu2   Cu    Cu3+1 0.507860 0.507890 0.604120 0.980832
H1    H     H_    0.880426 0.262682 0.888015 0.139319
H2    H     H_    0.130103 0.735548 0.106129 0.137939
H3    H     H_    0.076209 0.472485 0.793092 0.124967
H4    H     H_    0.920833 0.521693 0.207443 0.124927
H5    H     H_    0.182180 0.340775 0.923285 0.124515
H6    H     H_    0.815888 0.652289 0.075889 0.124196
H7    H     H_    0.890462 0.399479 0.638606 0.169319
H8    H     H_    0.109426 0.598686 0.361092 0.168810
H9    H     H_    0.580657 0.616275 0.006901 0.157750
H10   H     H_    0.419067 0.383901 0.993079 0.157637
H11   H     H_    0.967193 0.174153 0.725336 0.167602
H12   H     H_    0.040502 0.809634 0.271718 0.159874
H13   H     H_    0.514015 0.172232 0.765262 0.137231
H14   H     H_    0.491691 0.842322 0.230294 0.132765
H15   H     H_    0.653696 0.262472 0.907626 0.141234
H16   H     H_    0.355971 0.750809 0.085587 0.139900
H17   H     H_    0.623339 0.887112 0.634730 0.160944
H18   H     H_    0.377788 0.112765 0.364959 0.157798
H19   H     H_    0.297305 0.152902 0.863587 0.120339
H20   H     H_    0.704376 0.843170 0.133685 0.118321
H21   H     H_    0.306551 0.096544 0.672670 0.137599
H22   H     H_    0.697523 0.903561 0.324055 0.130675
H23   H     H_    0.202842 0.228115 0.541545 0.100958
H24   H     H_    0.800703 0.773576 0.456603 0.109327
N1    N     N_1   0.480320 0.480250 0.239400 -0.153970
N2    N     N_1   0.519680 0.519750 0.760600 -0.154434
O1    O     O_R   0.313000 0.493330 0.412070 -0.582179
O2    O     O_R   0.687000 0.506670 0.587930 -0.581841
O3    O     O_R   0.326280 0.506660 0.587930 -0.565224
O4    O     O_R   0.673720 0.493340 0.412070 -0.564436
O5    O     O_R   0.493370 0.312980 0.412070 -0.584454
O6    O     O_R   0.506630 0.687020 0.587930 -0.584930
O7    O     O_R   0.506650 0.326310 0.587930 -0.569786
O8    O     O_R   0.493350 0.673690 0.412070 -0.566775
C45   C     C_3   0.848291 0.078286 0.549625 -0.923943
H25   H     H_    0.779356 0.049189 0.485701 0.239985
H26   H     H_    0.906655 0.151161 0.519511 0.240898
H27   H     H_    0.907777 0.997321 0.568177 0.237214
C46   C     C_3   0.159911 0.903101 0.451959 -0.909058
H28   H     H_    0.174631 0.003704 0.469086 0.236480
H29   H     H_    0.058723 0.885214 0.448794 0.235370
H30   H     H_    0.203910 0.851039 0.517066 0.233829

loop_
_geom_bond_atom_site_label_1
_geom_bond_atom_site_label_2
_ccdc_geom_bond_type
Cu1   N1    S    
C32   H12   S    
C30   N1    T    
C43   H17   S    
C39   C41   A    
C46   H28   S    
C44   H18   S    
C3    C43   A    
Cu1   O4    S    
C28   C29   S    
C19   C21   A    
C9    H23   S    
Cu2   O7    S    
C20   C25   A    
C5    C36   S    
C40   H16   S    
C6    C35   S    
Cu1   O1    S    
C19   C26   A    
C24   O8    A    
C7    C17   A    
C31   C33   A    
C14   C16   A    
C15   H5    S    
Cu2   N2    S    
C2    O2    A    
C29   N2    T    
C19   H7    S    
C40   C42   A    
C1    C22   S    
C27   C30   S    
C3    C24   S    
Cu2   O3    S    
C45   H26   S    
C28   H9    S    
C45   H25   S    
C46   H29   S    
C39   H15   S    
C1    O3    A    
C20   H8    S    
Cu2   O6    S    
C4    C23   S    
C27   H10   S    
C4    C44   A    
C11   C26   S    
Cu1   Cu2   S    
C8    C18   A    
C34   C46   S    
C32   C34   A    
C2    C21   S    
C41   H1    S    
C16   C18   A    
C42   H2    S    
C23   O5    A    
C9    C11   A    
C37   H13   S    
C10   C12   A    
C38   H14   S    
C10   H24   S    
C4    C6    A    
C5    C44   A    
C12   C14   A    
C8    H22   S    
C6    C43   A    
C13   C15   A    
C13   H3    S    
Cu2   O2    S    
C45   H27   S    
C2    O4    A    
C46   H30   S    
C24   O6    A    
C15   C17   A    
C21   C25   A    
C31   C41   A    
C35   C37   A    
C16   H6    S    
C20   C22   A    
C3    C5    A    
C18   H20   S    
C17   H19   S    
C12   C25   S    
C1    O1    A    
C31   H11   S    
C36   C38   A    
C37   C39   A    
C38   C40   A    
C11   C13   A    
C14   H4    S    
C33   C35   A    
Cu1   O8    S    
C34   C36   A    
C7    H21   S    
C7    C9    A    
C8    C10   A    
C22   C26   A    
C27   C28   D    
C32   C42   A    
Cu1   O5    S    
C23   O7    A    
C33   C45   S    
