data_mof_unit_1975.cif
_audit_creation_date              2012-12-11T14:25:58-0500
_audit_creation_method            fapswitch 2.2
_symmetry_space_group_name_H-M    P1
_symmetry_Int_Tables_number       1
_space_group_crystal_system       triclinic
_cell_length_a                    6.930132
_cell_length_b                    14.775942
_cell_length_c                    16.147581
_cell_angle_alpha                 90.689764
_cell_angle_beta                  90.042492
_cell_angle_gamma                 89.785071
_cell_volume                      1653.36798363

loop_
_atom_site_label
_atom_site_type_symbol
_atom_type_description
_atom_site_fract_x
_atom_site_fract_y
_atom_site_fract_z
_atom_type_partial_charge
O1    O     O_R   0.494490 0.416160 0.413410 -0.540296
O2    O     O_R   0.823830 0.407240 0.585990 -0.542544
O3    O     O_R   0.994160 0.583840 0.586590 -0.544054
C1    C     C_R   0.654992 0.386806 0.614873 0.710496
O4    O     O_R   0.824200 0.405280 0.414020 -0.540057
O5    O     O_R   0.994530 0.581860 0.413390 -0.502061
C2    C     C_R   0.655106 0.382170 0.386719 0.733190
O6    O     O_R   0.494110 0.418140 0.586610 -0.542726
O7    O     O_3   0.660810 0.557940 0.500000 -0.362459
V1    V     V_3+5 0.935650 0.489250 0.500000 1.438093
O8    O     O_R   0.324250 0.592760 0.414010 -0.542664
C3    C     C_R   0.154719 0.614832 0.385949 0.778772
O9    O     O_R   0.323880 0.594720 0.585980 -0.549688
C4    C     C_R   0.154870 0.617240 0.614593 0.658821
V2    V     V_3+5 0.435660 0.510750 0.500000 1.416417
O10   O     O_3   0.160630 0.442060 0.500000 -0.375396
C5    C     C_3   0.055069 0.644726 0.763625 -0.352663
H1    H     H_    0.908606 0.618115 0.749295 0.100140
C6    C     C_3   0.039715 0.715700 0.835784 0.336264
H2    H     H_    0.883034 0.726794 0.849615 0.022878
H3    H     H_    0.869079 0.746322 0.644005 0.144764
H4    H     H_    0.852265 0.851677 0.748852 0.139033
C7    C     C_3   0.017414 0.769352 0.659918 -0.333193
C8    C     C_3   0.347823 0.723142 0.708129 -0.325421
C9    C     C_3   0.144191 0.687029 0.684762 0.075598
H5    H     H_    0.442573 0.666137 0.727419 0.141342
C10   C     C_3   0.122853 0.808381 0.808172 0.070058
C11   C     C_3   0.006040 0.840402 0.731617 -0.428790
C12   C     C_3   0.335653 0.793613 0.779404 -0.291480
H6    H     H_    0.426393 0.770426 0.832000 0.172443
H7    H     H_    0.078262 0.801457 0.603730 0.134274
H8    H     H_    0.063342 0.906279 0.709993 0.149825
C13   C     C_2   0.985421 0.726882 0.295517 0.447494
C14   C     C_2   0.145932 0.678923 0.315820 -0.400041
H9    H     H_    0.276660 0.685020 0.279592 0.112041
C15   C     C_2   0.973961 0.784287 0.219537 -0.240514
C16   C     C_2   0.127517 0.818212 0.179645 -0.385537
H10   H     H_    0.830306 0.802489 0.198382 0.155012
H11   H     H_    0.272327 0.804220 0.201559 0.138671
C17   C     C_2   0.773145 0.211633 0.783806 -0.241607
C18   C     C_2   0.611742 0.166157 0.805277 0.259262
C19   C     C_2   0.788139 0.274039 0.712436 -0.125378
C20   C     C_2   0.639775 0.324245 0.684829 -0.277408
H12   H     H_    0.929688 0.281623 0.684597 0.146077
H13   H     H_    0.500875 0.322085 0.715430 0.188099
C21   C     C_2   0.773350 0.207410 0.213032 -0.236735
C22   C     C_2   0.612072 0.187515 0.168994 0.252735
C23   C     C_2   0.788313 0.280388 0.277294 -0.126137
C24   C     C_2   0.639146 0.309343 0.324041 -0.284711
H14   H     H_    0.498559 0.278287 0.318200 0.190966
O11   O     O_R   0.770850 0.076180 0.907410 -0.554961
O12   O     O_R   0.440600 0.088970 0.079950 -0.522874
O13   O     O_R   0.270430 0.912340 0.080550 -0.539416
C25   C     C_R   0.609012 0.112650 0.107037 0.646984
O14   O     O_R   0.441120 0.087010 0.907980 -0.526104
O15   O     O_R   0.270950 0.910370 0.907350 -0.540582
C26   C     C_R   0.609205 0.106785 0.878506 0.628444
O16   O     O_R   0.770320 0.078150 0.080620 -0.553948
O17   O     O_3   0.604200 0.936340 0.994000 -0.372492
V3    V     V_3+5 0.329300 0.004970 0.993950 1.442959
O18   O     O_R   0.941240 0.899420 0.907920 -0.553752
C27   C     C_R   0.110542 0.878077 0.878440 0.688616
O19   O     O_R   0.940720 0.901380 0.079890 -0.541820
C28   C     C_R   0.110292 0.880771 0.108975 0.791088
V4    V     V_3+5 0.829310 0.983370 0.993880 1.382590
O20   O     O_3   0.104280 0.052120 0.993920 -0.366833
H15   H     H_    0.397351 0.858755 0.758096 0.114379
O21   O     O_3   0.820455 0.718152 0.343423 -0.537337
C29   C     C_3   0.779274 0.802091 0.382553 0.099836
H16   H     H_    0.724362 0.851680 0.336793 0.110244
H17   H     H_    0.909401 0.830335 0.414205 0.096209
C30   C     C_3   0.624132 0.788917 0.447876 -0.688243
H18   H     H_    0.675749 0.741044 0.495573 0.222084
H19   H     H_    0.590011 0.854747 0.478485 0.150572
H20   H     H_    0.490866 0.761977 0.418646 0.218692
H21   H     H_    0.905539 0.200156 0.818227 0.128956
O22   O     O_3   0.443266 0.174552 0.759650 -0.549885
C31   C     C_3   0.422218 0.096924 0.708604 0.119861
H22   H     H_    0.414582 0.034122 0.745931 0.092101
H23   H     H_    0.544458 0.091210 0.664013 0.116347
C32   C     C_3   0.235589 0.104699 0.659561 -0.736749
H24   H     H_    0.237314 0.166945 0.621674 0.223762
H25   H     H_    0.219581 0.044875 0.617862 0.167364
H26   H     H_    0.110528 0.107554 0.702481 0.215823
H27   H     H_    0.144451 0.585919 0.783025 0.149856
H28   H     H_    0.906165 0.171137 0.198972 0.128162
O23   O     O_3   0.442224 0.235299 0.181974 -0.551544
C33   C     C_3   0.427049 0.303381 0.121750 0.118073
H29   H     H_    0.421912 0.273524 0.058094 0.106383
H30   H     H_    0.550585 0.351268 0.126444 0.119732
C34   C     C_3   0.241458 0.356485 0.136260 -0.723162
H31   H     H_    0.243144 0.388352 0.198923 0.216729
H32   H     H_    0.227395 0.410226 0.089224 0.173085
H33   H     H_    0.115255 0.310662 0.131088 0.220171
H34   H     H_    0.930566 0.308859 0.287971 0.144457
O24   O     O_3   0.145148 0.684863 0.905531 -0.561979
C35   C     C_3   0.020737 0.647045 0.964888 0.076756
H35   H     H_    0.935650 0.590462 0.937192 0.116164
H36   H     H_    0.921144 0.699734 0.990396 0.123441
C36   C     C_3   0.140687 0.610208 0.035890 -0.705738
H37   H     H_    0.226003 0.665538 0.065016 0.224773
H38   H     H_    0.044588 0.580528 0.083321 0.179971
H39   H     H_    0.240986 0.557074 0.012365 0.214089
H40   H     H_    0.416154 0.754757 0.653257 0.137466

loop_
_geom_bond_atom_site_label_1
_geom_bond_atom_site_label_2
_ccdc_geom_bond_type
O23   C33   S    
O19   V4    S    
C23   H34   S    
C10   C12   S    
C6    H2    S    
C1    O6    A    
C35   C36   S    
C35   H35   S    
O22   C31   S    
C5    H27   S    
C15   C16   D    
C8    H5    S    
C18   O22   S    
O13   C28   A    
C31   H23   S    
V2    O10   S    
C13   C15   S    
C14   H9    S    
O11   V4    S    
C29   H17   S    
C8    C12   S    
O12   V3    S    
C32   H25   S    
C12   H15   S    
O8    V2    S    
O21   C29   S    
O11   C26   A    
C6    C10   S    
O7    V1    S    
C17   C19   S    
V3    O20   S    
O17   V3    S    
H4    C11   S    
O14   V3    S    
C29   H16   S    
C19   H12   S    
C30   H20   S    
C35   H36   S    
O13   V3    S    
O12   C25   A    
C13   C14   D    
C21   C23   S    
C11   H8    S    
C8    C9    S    
C2    C24   S    
C30   H19   S    
C34   H31   S    
O4    C2    A    
C31   H22   S    
C36   H39   S    
C32   H24   S    
C17   H21   S    
C16   C28   S    
C8    H40   S    
C7    H7    S    
C29   C30   S    
O2    C1    A    
C12   H6    S    
C10   C27   S    
C34   H32   S    
O16   V4    S    
C33   C34   S    
O24   C35   S    
C36   H38   S    
C5    H1    S    
C7    C11   S    
C20   H13   S    
O3    C4    A    
C22   C25   S    
O1    V2    S    
C23   C24   D    
C33   H30   S    
V4    O20   S    
O6    V2    S    
O14   C26   A    
O9    V2    S    
O15   C27   A    
C19   C20   D    
C3    C14   S    
O2    V1    S    
C32   H26   S    
C25   O16   A    
C21   C22   D    
C17   C18   D    
O1    C2    A    
C30   H18   S    
O5    V1    S    
O8    C3    A    
C1    C20   S    
C5    C9    S    
H3    C7    S    
O7    V2    S    
C18   C26   S    
O4    V1    S    
C16   H11   S    
O3    V1    S    
V1    O10   S    
O17   V4    S    
C34   H33   S    
O5    C3    A    
C31   C32   S    
C15   H10   S    
C36   H37   S    
C5    C6    S    
C7    C9    S    
C4    C9    S    
O18   C27   A    
O19   C28   A    
O18   V4    S    
O15   V3    S    
C33   H29   S    
C24   H14   S    
C10   C11   S    
O9    C4    A    
C6    O24   S    
C13   O21   S    
C22   O23   S    
C21   H28   S    
