data_mof_unit_1089.cif
_audit_creation_date              2012-12-10T20:57:48-0500
_audit_creation_method            fapswitch 2.2
_symmetry_space_group_name_H-M    P1
_symmetry_Int_Tables_number       1
_space_group_crystal_system       triclinic
_cell_length_a                    18.200853
_cell_length_b                    18.242554
_cell_length_c                    18.374182
_cell_angle_alpha                 120.051913
_cell_angle_beta                  89.954412
_cell_angle_gamma                 119.924885
_cell_volume                      4317.12168222

loop_
_atom_site_label
_atom_site_type_symbol
_atom_type_description
_atom_site_fract_x
_atom_site_fract_y
_atom_site_fract_z
_atom_type_partial_charge
C1    C     C_R   0.357941 0.220085 0.361054 0.784249
C2    C     C_3   0.800161 0.941280 0.721192 -0.391106
C3    C     C_3   0.698817 0.897542 0.699054 0.205824
C4    C     C_R   0.640996 0.781040 0.640024 0.729796
C5    C     C_3   0.799476 0.102365 0.803048 0.202396
C6    C     C_3   0.737966 0.057971 0.849107 -0.389926
C7    C     C_3   0.858789 0.060590 0.781434 -0.386477
C8    C     C_3   0.639034 0.424368 0.201467 -0.408069
C9    C     C_3   0.698584 0.423722 0.142390 -0.499004
C10   C     C_3   0.762091 0.609777 0.323981 -0.402508
C11   C     C_3   0.754088 0.463803 0.316254 -0.444249
C12   C     C_3   0.346944 0.609422 0.321918 -0.402497
C13   C     C_3   0.697674 0.499565 0.301489 0.166587
C14   C     C_3   0.799506 0.499403 0.200435 0.183905
C15   C     C_3   0.820985 0.609384 0.263454 -0.370464
C16   C     C_R   0.359693 0.501028 0.641140 0.790098
C17   C     C_3   0.814922 0.464049 0.257107 0.302003
C18   C     C_R   0.297605 0.139587 0.581614 -0.140488
C19   C     C_R   0.298658 0.095924 0.494060 -0.137611
C20   C     C_R   0.253991 0.099008 0.434449 0.156610
C21   C     C_R   0.207489 0.145253 0.463157 -0.120367
C22   C     C_R   0.206098 0.188215 0.550643 -0.127623
C23   C     C_3   0.300155 0.499989 0.301485 0.211324
C24   C     C_R   0.251212 0.185473 0.609823 -0.118825
C25   C     C_R   0.203678 0.943829 0.285876 -0.262646
C26   C     C_R   0.197772 0.892293 0.196298 -0.050098
C27   C     C_R   0.244379 0.949137 0.161180 -0.010468
C28   C     C_R   0.640548 0.500121 0.359307 0.760587
C29   C     C_R   0.294375 0.056197 0.216565 -0.262919
C30   C     C_R   0.300211 0.107727 0.306093 -0.051127
C31   C     C_R   0.253862 0.050909 0.341325 -0.012674
C32   C     C_R   0.290743 0.853865 0.040069 -0.115551
C33   C     C_R   0.293435 0.811641 0.953049 -0.125395
C34   C     C_3   0.197969 0.499611 0.199866 0.202972
C35   C     C_R   0.250473 0.816243 0.893948 -0.121339
C36   C     C_R   0.204910 0.863183 0.921735 -0.136785
C37   C     C_R   0.202530 0.906064 0.008807 -0.141333
C38   C     C_R   0.245053 0.901169 0.068353 0.152722
C39   C     C_R   0.911970 0.644110 0.578237 -0.140560
C40   C     C_R   0.641856 0.500190 0.640148 0.798469
C41   C     C_R   0.864932 0.583320 0.608858 -0.159092
C42   C     C_R   0.843014 0.624478 0.686148 0.165154
C43   C     C_R   0.869385 0.727235 0.732948 -0.105641
C44   C     C_R   0.915873 0.787511 0.701741 -0.143958
C45   C     C_3   0.148688 0.467208 0.258224 -0.399270
C46   C     C_R   0.937031 0.745925 0.624377 -0.095468
C47   C     C_R   0.842003 0.557419 0.772596 -0.271234
C48   C     C_R   0.799439 0.498510 0.805875 -0.044383
C49   C     C_R   0.704943 0.440214 0.784293 0.082726
C50   C     C_R   0.655661 0.442727 0.729841 -0.222911
C51   C     C_R   0.698233 0.501625 0.696572 -0.065832
C52   C     C_R   0.358094 0.500175 0.359283 0.739954
C53   C     C_R   0.792712 0.560092 0.718322 -0.021104
C54   C     C_R   0.628053 0.274256 0.771279 -0.328752
C55   C     C_R   0.578435 0.212068 0.800932 0.628044
C56   C     C_3   0.286901 0.609192 0.262108 -0.395100
C57   C     C_R   0.557227 0.255033 0.877989 -0.259486
C58   C     C_R   0.581976 0.356540 0.923411 -0.364113
C59   C     C_R   0.632517 0.419216 0.894886 0.591252
C60   C     C_R   0.654379 0.376970 0.817547 -0.021666
C61   C     C_R   0.380139 0.789280 0.703546 -0.126903
C62   C     C_R   0.363685 0.726841 0.732987 -0.123673
C63   C     C_R   0.283530 0.626888 0.687941 0.152579
C64   C     C_3   0.281397 0.422550 0.201175 -0.388319
C65   C     C_R   0.219518 0.590916 0.614305 -0.159278
C66   C     C_R   0.236115 0.653761 0.585291 -0.147161
C67   C     C_3   0.680198 0.940897 0.652643 -0.395340
C68   C     C_R   0.316454 0.752686 0.629669 -0.101222
C69   C     C_R   0.210874 0.554752 0.769711 -0.285564
C70   C     C_R   0.194065 0.496940 0.804218 -0.051365
C71   C     C_R   0.232438 0.440772 0.784853 0.057627
C72   C     C_R   0.287560 0.445823 0.732947 -0.234473
C73   C     C_R   0.304282 0.503538 0.698464 -0.063036
C74   C     C_R   0.266506 0.560261 0.718315 -0.011775
C75   C     C_R   0.284632 0.407981 0.884968 0.560646
C76   C     C_3   0.221814 0.422458 0.141860 -0.384510
C77   C     C_R   0.267263 0.344175 0.913798 -0.253382
C78   C     C_3   0.739271 0.060979 0.713624 -0.394631
C79   C     C_R   0.185581 0.246919 0.871403 -0.192281
C80   C     C_R   0.120250 0.212524 0.800408 -0.121694
C81   C     C_R   0.135635 0.276086 0.772658 -0.200957
C82   C     C_R   0.216818 0.374924 0.815961 0.035510
C83   C     C_R   0.857020 0.499725 0.142795 0.755139
C84   C     C_R   0.138248 0.499128 0.861220 0.797050
C85   C     C_R   0.856870 0.218943 0.862145 0.730234
C86   C     C_R   0.139848 0.779926 0.141201 0.780928
C87   C     C_R   0.855872 0.499919 0.862197 0.794658
C88   C     C_3   0.208804 0.467480 0.317991 -0.402670
C89   C     C_3   0.678935 0.937893 0.788155 -0.389003
C90   C     C_R   0.139851 0.499866 0.142741 0.745118
C91   C     C_3   0.517115 0.052536 0.667365 -0.400391
C92   C     C_3   0.714408 0.580596 0.026275 -0.358009
C93   C     C_3   0.436798 0.495874 0.915825 -0.298805
H1    H     H_    0.247229 0.342866 0.184095 0.174389
H2    H     H_    0.693852 0.085582 0.864650 0.195684
H3    H     H_    0.815909 0.912534 0.755607 0.169223
H4    H     H_    0.345816 0.444008 0.186976 0.171454
H5    H     H_    0.816968 0.914070 0.658669 0.170808
H6    H     H_    0.902783 0.090062 0.747077 0.167895
H7    H     H_    0.903180 0.088706 0.844141 0.170999
H8    H     H_    0.692230 0.908396 0.823156 0.148044
H9    H     H_    0.779699 0.086181 0.913356 0.143949
H10   H     H_    0.597923 0.448425 0.188601 0.182540
H11   H     H_    0.591871 0.344328 0.183157 0.185911
H12   H     H_    0.272264 0.666553 0.304982 0.178275
H13   H     H_    0.680225 0.343565 0.096228 0.187325
H14   H     H_    0.685547 0.446863 0.100980 0.198201
H15   H     H_    0.722702 0.637293 0.314770 0.146858
H16   H     H_    0.257948 0.444384 0.099729 0.185120
H17   H     H_    0.808399 0.634347 0.223458 0.130734
H18   H     H_    0.795625 0.515556 0.387788 0.198283
H19   H     H_    0.708723 0.384341 0.299623 0.115431
H20   H     H_    0.796535 0.383698 0.210673 0.049604
H21   H     H_    0.806180 0.665168 0.394985 0.188656
H22   H     H_    0.893129 0.666654 0.305614 0.214652
H23   H     H_    0.219883 0.521908 0.389182 0.178939
H24   H     H_    0.250256 0.218800 0.677520 0.128159
H25   H     H_    0.332497 0.137537 0.627505 0.124114
H26   H     H_    0.334456 0.060093 0.472742 0.117877
H27   H     H_    0.159409 0.342737 0.096346 0.173515
H28   H     H_    0.172236 0.147589 0.417761 0.098919
H29   H     H_    0.169999 0.223549 0.572539 0.121116
H30   H     H_    0.167155 0.900548 0.312803 0.172362
H31   H     H_    0.330971 0.099494 0.189672 0.170165
H32   H     H_    0.324454 0.850248 0.085469 0.105192
H33   H     H_    0.328924 0.775512 0.931479 0.133005
H34   H     H_    0.131014 0.521458 0.301010 0.183147
H35   H     H_    0.252431 0.783553 0.826626 0.138735
H36   H     H_    0.171734 0.866700 0.875899 0.130388
H37   H     H_    0.167474 0.942829 0.029844 0.120551
H38   H     H_    0.973066 0.792673 0.600333 0.122891
H39   H     H_    0.173864 0.388911 0.303520 0.149865
H40   H     H_    0.929006 0.612323 0.518747 0.135085
H41   H     H_    0.845359 0.504343 0.572394 0.113547
H42   H     H_    0.853109 0.760003 0.792830 0.110578
H43   H     H_    0.935547 0.866441 0.737523 0.112112
H44   H     H_    0.914440 0.601993 0.788614 0.178911
H45   H     H_    0.608069 0.911626 0.636505 0.181398
H46   H     H_    0.583235 0.398343 0.713957 0.170052
H47   H     H_    0.647939 0.244258 0.713566 0.145589
H48   H     H_    0.520039 0.208765 0.902151 0.168565
H49   H     H_    0.561566 0.386248 0.980777 0.160076
H50   H     H_    0.084795 0.388483 0.214907 0.149120
H51   H     H_    0.329225 0.801032 0.606919 0.115825
H52   H     H_    0.442196 0.865991 0.737959 0.138059
H53   H     H_    0.413410 0.755787 0.790251 0.111488
H54   H     H_    0.157262 0.514230 0.579254 0.116078
H55   H     H_    0.186744 0.625746 0.528335 0.121269
H56   H     H_    0.694413 0.913580 0.588673 0.145528
H57   H     H_    0.180944 0.596840 0.783182 0.177571
H58   H     H_    0.317340 0.403551 0.719172 0.165637
H59   H     H_    0.316755 0.369986 0.969315 0.134774
H60   H     H_    0.360728 0.666750 0.393209 0.176151
H61   H     H_    0.172972 0.198087 0.893574 0.141736
H62   H     H_    0.057544 0.136607 0.767030 0.124862
H63   H     H_    0.084212 0.248732 0.717779 0.128690
H64   H     H_    0.412704 0.634292 0.310306 0.150254
H65   H     H_    0.323699 0.633892 0.221624 0.158668
H66   H     H_    0.915028 0.493464 0.331494 0.314046
H67   H     H_    0.781885 0.091383 0.678968 0.142192
H68   H     H_    0.570521 0.068914 0.636578 0.164895
H69   H     H_    0.468413 0.064274 0.646969 0.162768
H70   H     H_    0.479692 0.969450 0.640943 0.191630
H71   H     H_    0.769247 0.569783 0.028879 0.163866
H72   H     H_    0.676168 0.564476 0.069597 0.155431
H73   H     H_    0.746675 0.663336 0.053837 0.191242
H74   H     H_    0.423532 0.437675 0.844906 0.151792
H75   H     H_    0.452824 0.476582 0.959386 0.168362
H76   H     H_    0.497291 0.571613 0.935846 0.211869
H77   H     H_    0.695377 0.088795 0.726520 0.215821
H78   H     H_    0.606775 0.908475 0.774821 0.177021
O1    O     O_3   0.500000 0.500000 0.500000 -0.472777
O2    O     O_R   0.113800 0.731630 0.056520 -0.632203
O3    O     O_R   0.819390 0.439310 0.886160 -0.646894
O4    O     O_R   0.383400 0.268380 0.323710 -0.651005
O5    O     O_R   0.115110 0.560720 0.179280 -0.639713
O6    O     O_R   0.941380 0.560750 0.885620 -0.650214
O7    O     O_R   0.115110 0.439270 0.057830 -0.643640
O8    O     O_R   0.942690 0.268390 0.886930 -0.647790
O9    O     O_R   0.114340 0.731630 0.178520 -0.651391
O10   O     O_R   0.820160 0.439310 0.057830 -0.664204
O11   O     O_R   0.113800 0.560730 0.885620 -0.641841
O12   O     O_R   0.383400 0.560740 0.616060 -0.633338
O13   O     O_R   0.555060 0.731630 0.615290 -0.645119
O14   O     O_R   0.383950 0.439280 0.616600 -0.641934
O15   O     O_R   0.677590 0.560710 0.444390 -0.642119
O16   O     O_R   0.556370 0.439260 0.616600 -0.650490
O17   O     O_R   0.382640 0.439290 0.322940 -0.652562
O18   O     O_R   0.678360 0.560700 0.616060 -0.635142
O19   O     O_R   0.382640 0.560750 0.444390 -0.640794
O20   O     O_3   0.905589 0.530104 0.310956 -0.764132
O21   O     O_3   0.554951 0.112084 0.760881 -0.618482
O22   O     O_3   0.656472 0.519579 0.938330 -0.620300
O23   O     O_R   0.555060 0.439270 0.322940 -0.653118
O24   O     O_3   0.364604 0.505463 0.927346 -0.628808
O25   O     O_R   0.383950 0.268380 0.445700 -0.632839
O26   O     O_R   0.677590 0.731610 0.615290 -0.644397
O27   O     O_3   0.997750 0.500010 0.002220 -0.478382
O28   O     O_R   0.942690 0.560750 0.179280 -0.594948
O29   O     O_R   0.114340 0.439270 0.886160 -0.635837
O30   O     O_R   0.820160 0.268410 0.886930 -0.633575
Zn1   Zn    Zn3+2 0.456040 0.586770 0.543190 0.961691
Zn2   Zn    Zn3+2 0.456820 0.413240 0.543960 0.969283
Zn3   Zn    Zn3+2 0.631110 0.586750 0.543190 0.961899
Zn4   Zn    Zn3+2 0.456040 0.413240 0.369660 0.940990
Zn5   Zn    Zn3+2 0.041710 0.413240 0.959030 0.963720
Zn6   Zn    Zn3+2 0.866640 0.413270 0.959030 0.954266
Zn7   Zn    Zn3+2 0.040930 0.586780 0.958260 0.966907
Zn8   Zn    Zn3+2 0.041710 0.586770 0.132560 0.972100

loop_
_geom_bond_atom_site_label_1
_geom_bond_atom_site_label_2
_ccdc_geom_bond_type
C44   H43   S    
C66   C68   A    
C63   C65   A    
C34   C56   S    
C8    C13   S    
O16   Zn2   S    
O27   Zn5   S    
C41   C42   A    
C10   H15   S    
C35   C36   A    
C14   C17   S    
C12   H60   S    
C43   C44   A    
C90   O7    A    
C81   C82   A    
C57   C58   A    
C16   O12   A    
C17   H20   S    
C39   C41   A    
C40   O16   A    
C54   C60   A    
C84   O29   A    
C12   C23   S    
C93   H76   S    
C24   H24   S    
C37   C38   A    
C81   H63   S    
C7    H6    S    
C18   C24   A    
C69   H57   S    
C49   C60   S    
C36   C37   A    
O10   Zn6   S    
C16   O14   A    
C42   C53   S    
C30   C31   A    
O30   Zn6   S    
C67   H56   S    
C27   C38   S    
C29   H31   S    
C90   O5    A    
C78   H77   S    
C37   H37   S    
C83   O10   A    
O26   Zn3   S    
O1    Zn3   S    
C18   C19   A    
C73   C74   A    
C67   H45   S    
O27   Zn8   S    
C61   H52   S    
C33   H33   S    
C1    O4    A    
C56   H65   S    
O5    Zn8   S    
C92   H72   S    
C54   H47   S    
C40   O18   A    
C2    C7    S    
C93   H75   S    
C8    C9    S    
C28   O23   A    
C91   H69   S    
C70   C71   A    
C32   C38   A    
C12   H64   S    
C65   H54   S    
C29   C30   A    
C70   C84   S    
C18   H25   S    
C66   H55   S    
C10   H21   S    
C85   O8    A    
C47   C53   A    
C71   C82   S    
C5    C85   S    
C92   H71   S    
C22   C24   A    
C11   H19   S    
O8    Zn5   S    
C19   H26   S    
C59   C60   A    
C21   C22   A    
C15   H17   S    
C91   H70   S    
C93   O24   S    
C67   C78   S    
C14   C83   S    
C77   H59   S    
C41   H41   S    
C25   C26   A    
C44   C46   A    
C22   H29   S    
C77   C79   A    
O18   Zn3   S    
C64   C76   S    
C3    C89   S    
C3    C67   S    
O17   Zn4   S    
O13   Zn1   S    
C7    H7    S    
C11   H18   S    
C16   C73   S    
C17   O20   S    
H66   O20   S    
C1    O25   A    
C89   H78   S    
C72   C73   A    
C92   O22   S    
C46   H38   S    
C5    C7    S    
C50   H46   S    
C76   H16   S    
C52   O19   A    
O9    Zn8   S    
C9    H13   S    
O27   Zn7   S    
C59   O22   S    
O28   Zn8   S    
C32   H32   S    
C88   H23   S    
O1    Zn2   S    
O1    Zn1   S    
C9    C14   S    
C34   C90   S    
C62   C63   A    
C28   O15   A    
C87   O6    A    
C8    H11   S    
C58   H49   S    
C47   C48   A    
C64   H4    S    
C26   C86   S    
C72   H58   S    
C47   H44   S    
C86   O9    A    
C50   C51   A    
C26   C27   A    
C48   C87   S    
O15   Zn3   S    
C69   C74   A    
C13   C28   S    
C34   C45   S    
C76   H27   S    
C4    O13   A    
O25   Zn2   S    
C43   H42   S    
C25   H30   S    
C93   H74   S    
C12   C56   S    
C39   C46   A    
C45   C88   S    
C78   H67   S    
C23   C64   S    
C65   C66   A    
C23   C88   S    
C55   C57   A    
O3    Zn6   S    
C49   C50   A    
C15   H22   S    
C42   C43   A    
O4    Zn4   S    
C83   O28   A    
C3    C4    S    
C6    C89   S    
C87   O3    A    
C80   H62   S    
C39   H40   S    
O23   Zn4   S    
C54   C55   A    
O1    Zn4   S    
O29   Zn5   S    
C89   H8    S    
O27   Zn6   S    
O12   Zn1   S    
C25   C31   A    
O19   Zn1   S    
C4    O26   A    
C80   C81   A    
C10   C13   S    
C11   C17   S    
C75   C82   A    
C63   C74   S    
C85   O30   A    
C9    H14   S    
C40   C51   S    
C91   O21   S    
O6    Zn7   S    
C57   H48   S    
C10   C15   S    
C86   O2    A    
C55   O21   S    
O14   Zn2   S    
C19   C20   A    
C84   O11   A    
C2    C3    S    
C58   C59   A    
C64   H1    S    
C71   C72   A    
C36   H36   S    
C32   C33   A    
C79   H61   S    
C11   C13   S    
C61   C68   A    
C23   C52   S    
C5    C6    S    
C27   C29   A    
C45   H34   S    
C48   C49   A    
O7    Zn5   S    
C2    H3    S    
C1    C30   S    
C33   C35   A    
C68   H51   S    
O2    Zn7   S    
O11   Zn7   S    
C6    H9    S    
C21   H28   S    
C61   C62   A    
C8    H10   S    
C69   C70   A    
C56   H12   S    
C79   C80   A    
C92   H73   S    
C20   C21   A    
C2    H5    S    
C6    H2    S    
C62   H53   S    
C75   C77   A    
C35   H35   S    
C45   H50   S    
C88   H39   S    
C14   C15   S    
C91   H68   S    
C52   O17   A    
C51   C53   A    
C5    C78   S    
C34   C76   S    
C20   C31   S    
C75   O24   S    
