data_mof_unit_250.cif
_audit_creation_date              2012-10-26T19:15:57-0400
_audit_creation_method            fapswitch 2.2
_symmetry_space_group_name_H-M    P1
_symmetry_Int_Tables_number       1
_space_group_crystal_system       triclinic
_cell_length_a                    7.786294
_cell_length_b                    9.096322
_cell_length_c                    17.112626
_cell_angle_alpha                 89.550626
_cell_angle_beta                  93.783431
_cell_angle_gamma                 90.027084
_cell_volume                      1209.35105147

loop_
_atom_site_label
_atom_site_type_symbol
_atom_type_description
_atom_site_fract_x
_atom_site_fract_y
_atom_site_fract_z
_atom_type_partial_charge
C1    C     C_R   0.499960 0.220025 0.499996 0.546917
C2    C     C_R   0.575738 0.421787 0.139395 -0.044248
C3    C     C_R   0.548372 0.487557 0.900744 0.202372
C4    C     C_R   0.451623 0.512428 0.099250 0.202369
C5    C     C_R   0.666833 0.411821 0.858502 -0.094569
C6    C     C_R   0.333100 0.588098 0.141490 -0.094562
C7    C     C_R   0.659239 0.421235 0.777256 -0.137334
C8    C     C_R   0.340700 0.578690 0.222738 -0.137316
C9    C     C_1   0.499966 0.065368 0.499995 -0.039017
C10   C     C_1   0.500034 0.934632 0.500005 -0.039020
C11   C     C_2   0.708669 0.305169 0.260862 0.242995
C12   C     C_R   0.500040 0.779975 0.500004 0.546910
C13   C     C_2   0.291442 0.694931 0.739133 0.243000
C14   C     C_R   0.520885 0.503273 0.651063 0.523054
C15   C     C_R   0.479114 0.496725 0.348936 0.523058
C16   C     C_R   0.532585 0.507148 0.736745 -0.019682
C17   C     C_R   0.467416 0.492844 0.263251 -0.019701
C18   C     C_R   0.416157 0.590288 0.778790 -0.021184
C19   C     C_R   0.583899 0.409763 0.221207 -0.021190
C20   C     C_R   0.424323 0.578266 0.860603 -0.044240
Cu1   Cu    Cu3+1 0.669080 0.500010 0.500000 1.039937
Cu2   Cu    Cu3+1 0.330920 0.499990 0.500000 1.039950
H1    H     H_    0.664689 0.358589 0.107041 0.186911
H2    H     H_    0.335428 0.641516 0.892959 0.186908
H3    H     H_    0.763807 0.343054 0.888767 0.143252
H4    H     H_    0.236074 0.656810 0.111221 0.143252
H5    H     H_    0.749797 0.357935 0.745775 0.147772
H6    H     H_    0.250094 0.641939 0.254217 0.147792
H7    H     H_    0.695113 0.270273 0.320846 0.134893
H8    H     H_    0.305004 0.729812 0.679146 0.134866
N1    N     N_1   0.076820 0.499970 0.500010 -0.073031
N2    N     N_1   0.923180 0.500030 0.499990 -0.073033
N3    N     N_2   0.559612 0.470261 0.983346 -0.240169
N4    N     N_2   0.440379 0.529721 0.016647 -0.240160
O1    O     O_R   0.642760 0.288400 0.500000 -0.504273
O2    O     O_2   0.172621 0.745565 0.773566 -0.499897
O3    O     O_R   0.357240 0.711600 0.500000 -0.504270
O4    O     O_R   0.357190 0.288380 0.500000 -0.488718
O5    O     O_R   0.642810 0.711620 0.500000 -0.488720
O6    O     O_R   0.658410 0.498660 0.613920 -0.493007
O7    O     O_R   0.341590 0.501340 0.386080 -0.493004
O8    O     O_R   0.372840 0.498650 0.613930 -0.512968
O9    O     O_R   0.627160 0.501350 0.386070 -0.512985
O10   O     O_2   0.827527 0.254591 0.226434 -0.499911

loop_
_geom_bond_atom_site_label_1
_geom_bond_atom_site_label_2
_ccdc_geom_bond_type
C2    C4    A    
C15   C17   S    
Cu1   O1    S    
C9    C10   T    
C8    C17   A    
Cu1   O5    S    
C14   O8    A    
C2    H1    S    
C12   O5    A    
N3    N4    D    
C15   O9    A    
C3    C20   A    
C6    H4    S    
Cu1   Cu2   S    
C11   C19   S    
Cu2   O8    S    
Cu1   O6    S    
C10   C12   S    
C13   C18   S    
C5    H3    S    
C1    O4    A    
C16   C18   A    
C7    C16   A    
C17   C19   A    
C18   C20   A    
C4    N4    S    
C8    H6    S    
Cu1   N2    S    
C14   C16   S    
Cu2   O7    S    
Cu2   N1    S    
C3    N3    S    
C15   O7    A    
C14   O6    A    
Cu2   O4    S    
C1    C9    S    
C20   H2    S    
C13   H8    S    
C11   O10   D    
C7    H5    S    
C11   H7    S    
C13   O2    D    
C4    C6    A    
C12   O3    A    
C5    C7    A    
C1    O1    A    
C6    C8    A    
C2    C19   A    
Cu1   O9    S    
Cu2   O3    S    
N1    N2    T    
C3    C5    A    
