data_mof_unit_558.cif
_audit_creation_date              2012-10-26T20:32:54-0400
_audit_creation_method            fapswitch 2.2
_symmetry_space_group_name_H-M    P1
_symmetry_Int_Tables_number       1
_space_group_crystal_system       triclinic
_cell_length_a                    27.830794
_cell_length_b                    10.816245
_cell_length_c                    9.531611
_cell_angle_alpha                 89.899447
_cell_angle_beta                  90.024784
_cell_angle_gamma                 90.085328
_cell_volume                      2869.24234702

loop_
_atom_site_label
_atom_site_type_symbol
_atom_type_description
_atom_site_fract_x
_atom_site_fract_y
_atom_site_fract_z
_atom_type_partial_charge
C1    C     C_R   0.500871 0.262262 0.500046 0.552500
C2    C     C_R   0.974749 0.396896 0.553738 0.019763
C3    C     C_R   0.974174 0.602033 0.440070 0.021617
C4    C     C_R   0.407465 0.500083 0.499962 0.549886
C5    C     C_R   0.949218 0.498841 0.496734 0.040554
C6    C     C_R   0.948170 0.293047 0.600597 -0.141412
C7    C     C_R   0.898264 0.292027 0.597612 -0.106084
C8    C     C_R   0.872822 0.394178 0.547633 0.023442
C9    C     C_R   0.898139 0.497730 0.496704 -0.027970
C10   C     C_R   0.872263 0.600266 0.445972 0.027114
C11   C     C_R   0.821835 0.597721 0.447983 0.415224
C12   C     C_R   0.278859 0.488824 0.373820 -0.063510
C13   C     C_R   0.822372 0.394911 0.546460 0.449755
C14   C     C_R   0.721388 0.500357 0.626263 0.446723
C15   C     C_R   0.671271 0.500946 0.626648 -0.105005
C16   C     C_R   0.500893 0.737711 0.499851 0.552003
C17   C     C_R   0.670957 0.492085 0.372483 -0.159016
C18   C     C_R   0.721042 0.491194 0.372177 -0.112805
C19   C     C_R   0.746457 0.495558 0.498864 0.243897
C20   C     C_R   0.025731 0.401634 0.561271 0.028234
C21   C     C_R   0.050772 0.502023 0.498146 0.021061
C22   C     C_R   0.025196 0.600167 0.433773 -0.026893
C23   C     C_R   0.253678 0.502768 0.500028 0.235384
C24   C     C_R   0.052725 0.309659 0.631259 -0.145731
C25   C     C_R   0.101744 0.695943 0.365196 0.264665
C26   C     C_R   0.947027 0.704803 0.393438 -0.139481
C27   C     C_R   0.897132 0.703536 0.396075 -0.102724
C28   C     C_R   0.592569 0.499304 0.500008 0.558881
C29   C     C_R   0.051580 0.692912 0.363362 -0.133098
C30   C     C_R   0.507065 0.063299 0.625703 0.032250
C31   C     C_R   0.505723 0.129190 0.499738 0.011703
C32   C     C_R   0.511306 0.064676 0.372814 -0.154515
C33   C     C_R   0.511283 0.935845 0.372680 -0.154362
C34   C     C_R   0.101895 0.503710 0.498777 -0.070383
C35   C     C_R   0.505726 0.870769 0.499468 0.009648
C36   C     C_R   0.507040 0.936079 0.625540 0.022600
C37   C     C_3   0.474501 0.929015 0.749916 -0.264483
C38   C     C_3   0.474593 0.069382 0.750259 -0.273591
C39   C     C_R   0.517015 0.599853 0.073482 0.152508
C40   C     C_R   0.177860 0.410018 0.565595 0.387948
C41   C     C_R   0.478304 0.407958 0.074603 -0.012245
C42   C     C_R   0.478247 0.408058 0.925651 -0.010797
C43   C     C_R   0.517037 0.599795 0.926094 0.150737
C44   C     C_3   0.566498 0.652458 0.920088 -0.266528
C45   C     C_R   0.127515 0.408332 0.566358 0.026631
C46   C     C_3   0.566475 0.652629 0.079387 -0.267075
C47   C     C_R   0.178228 0.597988 0.434526 0.410649
C48   C     C_R   0.279012 0.515565 0.626215 -0.058092
C49   C     C_R   0.329103 0.514224 0.626371 -0.148499
C50   C     C_R   0.328960 0.488106 0.373604 -0.145713
C51   C     C_3   0.122506 0.899815 0.367084 0.028206
C52   C     C_3   0.152510 0.998148 0.292043 -0.243605
C53   C     C_3   0.150299 0.121927 0.368301 -0.470254
C54   C     C_R   0.102525 0.313214 0.633636 -0.124829
C55   C     C_R   0.127478 0.600353 0.432087 0.027690
C56   C     C_R   0.354550 0.500699 0.499970 0.002521
C57   C     C_R   0.645547 0.497547 0.499760 -0.053940
Cu1   Cu    Cu3+1 0.500000 0.499980 0.640670 0.944745
Cu2   Cu    Cu3+1 0.500000 0.500020 0.359330 0.943528
F1    F     F_    0.745601 0.505664 0.749711 -0.596248
H1    H     H_    0.347593 0.477162 0.274687 0.130582
H2    H     H_    0.438847 0.888267 0.724349 0.145572
H3    H     H_    0.259533 0.478254 0.275931 0.132237
H4    H     H_    0.492637 0.888337 0.843055 0.134538
H5    H     H_    0.438977 0.110391 0.725182 0.136790
H6    H     H_    0.492921 0.109265 0.843460 0.133474
H7    H     H_    0.461452 0.332356 0.130405 0.114106
H8    H     H_    0.461219 0.332818 0.870055 0.112472
H9    H     H_    0.592983 0.587078 0.875062 0.156131
H10   H     H_    0.567052 0.746790 0.873702 0.132335
H11   H     H_    0.593016 0.587537 0.125176 0.155577
H12   H     H_    0.259815 0.526828 0.724148 0.135970
H13   H     H_    0.566971 0.747128 0.124898 0.126100
H14   H     H_    0.121432 0.240120 0.688404 0.156541
H15   H     H_    0.652755 0.504246 0.726245 0.142304
H16   H     H_    0.879664 0.210347 0.635117 0.171585
H17   H     H_    0.964828 0.209373 0.637730 0.109133
H18   H     H_    0.036475 0.234447 0.688262 0.108222
H19   H     H_    0.347845 0.524438 0.725281 0.131079
H20   H     H_    0.136916 0.887616 0.475489 0.146850
H21   H     H_    0.084655 0.932726 0.372896 0.111144
H22   H     H_    0.190529 0.967153 0.286533 0.206492
H23   H     H_    0.963238 0.789594 0.357464 0.106328
H24   H     H_    0.138900 0.010437 0.183247 0.175637
H25   H     H_    0.112718 0.156254 0.371802 0.151667
H26   H     H_    0.172744 0.191027 0.312118 0.166722
H27   H     H_    0.164164 0.111910 0.476987 0.184920
H28   H     H_    0.652245 0.488082 0.273100 0.145622
H29   H     H_    0.878091 0.784549 0.358953 0.171978
H30   H     H_    0.740189 0.486989 0.273423 0.160357
H31   H     H_    0.034340 0.763556 0.301628 0.119393
H32   H     H_    0.513259 0.112994 0.273338 0.133536
H33   H     H_    0.513145 0.887994 0.273148 0.130215
N1    N     N_R   0.202080 0.503625 0.500062 -0.406319
N2    N     N_R   0.798008 0.496018 0.497756 -0.375382
N3    N     N_R   0.500300 0.500930 0.147930 -0.230009
N4    N     N_R   0.500310 0.500890 0.852020 -0.229913
O1    O     O_R   0.500000 0.319640 0.618810 -0.503060
O2    O     O_R   0.569730 0.499960 0.618810 -0.503558
O3    O     O_R   0.569740 0.500000 0.381220 -0.499967
O4    O     O_2   0.202520 0.318027 0.628710 -0.517695
O5    O     O_3   0.125345 0.787977 0.291099 -0.519229
O6    O     O_2   0.797830 0.295239 0.592970 -0.454037
O7    O     O_2   0.203753 0.689492 0.373396 -0.455679
O8    O     O_2   0.796776 0.696393 0.401516 -0.479110
O9    O     O_R   0.500010 0.319680 0.381230 -0.514344
O10   O     O_R   0.430260 0.500000 0.618780 -0.505157
O11   O     O_R   0.430270 0.500040 0.381190 -0.501086
O12   O     O_R   0.499990 0.680320 0.618770 -0.499336
O13   O     O_R   0.500000 0.680360 0.381190 -0.504908

loop_
_geom_bond_atom_site_label_1
_geom_bond_atom_site_label_2
_ccdc_geom_bond_type
C10   C27   A    
C15   H15   S    
C26   H23   S    
C22   C29   A    
C17   H28   S    
C41   C42   A    
C35   C36   A    
Cu1   O1    S    
C37   H2    S    
C16   O13   A    
C7    C8    A    
C41   H7    S    
C28   C57   S    
C51   O5    S    
C4    O11   A    
C12   C23   A    
C26   C27   A    
C8    C13   A    
C13   N2    A    
C36   C37   S    
C18   C19   A    
C16   C35   S    
C30   C31   A    
C25   O5    S    
C41   N3    A    
C24   C54   A    
Cu1   O12   S    
C1    C31   S    
Cu2   O13   S    
C30   C38   S    
Cu1   O10   S    
C52   H24   S    
C51   H20   S    
C40   O4    S    
C54   H14   S    
C20   C24   A    
C8    C9    A    
C11   O8    S    
C44   H10   S    
C53   H26   S    
C23   C48   A    
C13   O6    S    
C9    C10   A    
C51   H21   S    
C1    O9    A    
C28   O3    A    
C34   C55   A    
C21   C22   A    
C4    C56   S    
C42   H8    S    
Cu2   O3    S    
C15   C57   A    
C2    C6    A    
Cu1   N4    S    
C48   H12   S    
C44   C46   S    
C16   O12   A    
C25   C29   A    
C40   C45   A    
C4    O10   A    
Cu2   O9    S    
C2    C20   A    
C51   C52   S    
C18   H30   S    
C38   H6    S    
C42   N4    A    
C12   H3    S    
C6    H17   S    
C39   C43   A    
C21   C34   A    
Cu1   Cu2   S    
C50   C56   A    
C49   H19   S    
C43   C44   S    
C5    C9    A    
C37   C38   S    
C31   C32   A    
C38   H5    S    
C17   C18   A    
C44   H9    S    
C53   H27   S    
C34   C45   A    
C52   H22   S    
C46   H11   S    
C6    C7    A    
C39   C46   S    
C28   O2    A    
C24   H18   S    
C48   C49   A    
C45   C54   A    
C2    C5    A    
Cu2   N3    S    
C29   H31   S    
C37   H4    S    
C19   N2    S    
C52   C53   S    
C47   C55   A    
C11   N2    A    
C47   O7    S    
C14   C19   A    
C3    C26   A    
Cu1   O2    S    
C43   N4    A    
C40   N1    A    
C3    C5    A    
C33   H33   S    
C1    O1    A    
C12   C50   A    
C7    H16   S    
C49   C56   A    
C14   F1    S    
Cu2   O11   S    
C23   N1    S    
C30   C36   A    
C32   C33   A    
C32   H32   S    
C33   C35   A    
C47   N1    A    
C25   C55   A    
C27   H29   S    
C39   N3    A    
C10   C11   A    
C20   C21   A    
C50   H1    S    
C14   C15   A    
C3    C22   A    
C53   H25   S    
C46   H13   S    
C17   C57   A    
