data_mof_unit_3766.cif
_audit_creation_date              2012-12-10T16:56:33-0500
_audit_creation_method            fapswitch 2.2
_symmetry_space_group_name_H-M    P1
_symmetry_Int_Tables_number       1
_space_group_crystal_system       triclinic
_cell_length_a                    7.816224
_cell_length_b                    8.572845
_cell_length_c                    15.684121
_cell_angle_alpha                 91.325981
_cell_angle_beta                  86.017472
_cell_angle_gamma                 93.024895
_cell_volume                      1046.75163595

loop_
_atom_site_label
_atom_site_type_symbol
_atom_type_description
_atom_site_fract_x
_atom_site_fract_y
_atom_site_fract_z
_atom_type_partial_charge
C1    C     C_R   0.545097 0.794360 0.498104 0.939304
C2    C     C_3   0.388056 0.385873 0.029267 -0.166571
C3    C     C_1   0.506782 0.500334 0.750723 -0.163911
C4    C     C_1   0.493218 0.499665 0.249277 -0.163883
C5    C     C_3   0.342496 0.525125 0.975640 -0.163889
C6    C     C_3   0.657503 0.474874 0.024360 -0.163890
C7    C     C_3   0.504332 0.500105 0.917193 0.210379
C8    C     C_3   0.495667 0.499894 0.082807 0.210375
C9    C     C_1   0.507370 0.500253 0.826132 -0.084513
C10   C     C_1   0.492629 0.499746 0.173868 -0.084501
C11   C     C_3   0.952084 0.244737 0.394141 0.220316
C12   C     C_R   0.454903 0.205640 0.501893 0.939280
C13   C     C_3   0.063601 0.153113 0.329618 -0.906536
C14   C     C_3   0.047953 0.755253 0.605871 0.220327
C15   C     C_3   0.936413 0.846920 0.670363 -0.906563
C16   C     C_R   0.502293 0.500440 0.661863 0.884582
C17   C     C_R   0.497707 0.499560 0.338137 0.884553
C18   C     C_2   0.569026 0.957509 0.498164 -0.386586
C19   C     C_2   0.430975 0.042491 0.501826 -0.386556
C20   C     C_3   0.450095 0.639147 0.031003 -0.164588
C21   C     C_3   0.549905 0.360852 0.968997 -0.164590
C22   C     C_3   0.611943 0.614126 0.970733 -0.166574
H1    H     H_    0.703597 0.707196 0.944526 0.130713
H2    H     H_    0.934636 0.176559 0.453960 0.122033
H3    H     H_    0.190479 0.136507 0.354928 0.260038
H4    H     H_    0.000011 0.036729 0.317083 0.214411
H5    H     H_    0.083242 0.217070 0.268632 0.258279
H6    H     H_    0.065497 0.823428 0.546053 0.122059
H7    H     H_    0.173140 0.741592 0.633205 0.170382
H8    H     H_    0.916515 0.782891 0.731319 0.258339
H9    H     H_    0.000128 0.963216 0.682981 0.214410
H10   H     H_    0.809647 0.863720 0.644978 0.259984
H11   H     H_    0.296403 0.292803 0.055474 0.130715
H12   H     H_    0.409048 0.752735 0.058595 0.132256
H13   H     H_    0.590951 0.247264 0.941405 0.132255
H14   H     H_    0.786146 0.454343 0.046527 0.132912
H15   H     H_    0.213853 0.545656 0.953473 0.132913
H16   H     H_    0.699920 0.007080 0.495887 0.163781
H17   H     H_    0.300082 0.992922 0.504100 0.163793
H18   H     H_    0.826854 0.258348 0.366839 0.170383
N1    N     N_2   0.950320 0.457950 0.477300 0.160891
N2    N     N_2   0.049680 0.542050 0.522700 0.160883
O1    O     O_R   0.389250 0.738570 0.505570 -0.661020
O2    O     O_3   0.965510 0.608959 0.590597 -0.517780
O3    O     O_R   0.610750 0.261430 0.494430 -0.661017
O4    O     O_R   0.678390 0.711630 0.491020 -0.602529
O5    O     O_R   0.321610 0.288370 0.508980 -0.602559
O6    O     O_R   0.355460 0.513480 0.630490 -0.636268
O7    O     O_R   0.644540 0.486520 0.369510 -0.636238
O8    O     O_R   0.644600 0.486540 0.615950 -0.560855
O9    O     O_R   0.355400 0.513460 0.384050 -0.560862
O10   O     O_3   0.034480 0.391060 0.409395 -0.517770
Zn1   Zn    Zn3+2 0.306940 0.517990 0.509710 1.014739
Zn2   Zn    Zn3+2 0.693060 0.482010 0.490290 1.014763

loop_
_geom_bond_atom_site_label_1
_geom_bond_atom_site_label_2
_ccdc_geom_bond_type
C15   H9    S    
C3    C9    T    
C5    H15   S    
C7    C22   S    
N1    N2    D    
N1    O10   S    
O5    Zn1   S    
C20   H12   S    
C17   O9    A    
C2    C21   S    
O1    Zn1   S    
C18   H16   S    
C15   H10   S    
C5    C20   S    
O8    Zn2   S    
C7    C21   S    
C11   C13   S    
O4    Zn2   S    
C1    C18   S    
C8    C20   S    
N2    O2    S    
C13   H3    S    
C12   O5    A    
C21   H13   S    
C4    C17   S    
C19   H17   S    
C12   C19   S    
C1    O4    A    
C6    H14   S    
O3    Zn2   S    
N2    Zn1   S    
O6    Zn1   S    
N1    Zn2   S    
C13   H4    S    
C2    C5    S    
C20   C22   S    
C14   H7    S    
C4    C10   T    
C11   H18   S    
C6    C22   S    
C7    C9    S    
C11   H2    S    
C16   O6    A    
C2    H11   S    
C15   H8    S    
C14   O2    S    
C18   C19   D    
C17   O7    A    
C5    C7    S    
C22   H1    S    
C13   H5    S    
C6    C8    S    
C11   O10   S    
C14   H6    S    
C14   C15   S    
C6    C21   S    
C1    O1    A    
C8    C10   S    
C2    C8    S    
C3    C16   S    
O7    Zn2   S    
C16   O8    A    
C12   O3    A    
O9    Zn1   S    
