data_mof_unit_2711.cif
_audit_creation_date              2012-10-26T19:02:38-0400
_audit_creation_method            fapswitch 2.2
_symmetry_space_group_name_H-M    P1
_symmetry_Int_Tables_number       1
_space_group_crystal_system       triclinic
_cell_length_a                    17.217663
_cell_length_b                    8.674018
_cell_length_c                    7.626935
_cell_angle_alpha                 102.617888
_cell_angle_beta                  91.208809
_cell_angle_gamma                 94.752427
_cell_volume                      1106.82338209

loop_
_atom_site_label
_atom_site_type_symbol
_atom_type_description
_atom_site_fract_x
_atom_site_fract_y
_atom_site_fract_z
_atom_type_partial_charge
C1    C     C_R   0.496392 0.200544 0.454595 0.537875
C2    C     C_R   0.782590 0.607294 0.603838 0.260646
C3    C     C_R   0.147593 0.512572 0.357288 0.245113
C4    C     C_R   0.862517 0.633033 0.577141 0.248840
C5    C     C_R   0.104013 0.492995 0.505735 -0.013494
C6    C     C_R   0.893821 0.556046 0.416100 -0.008394
C7    C     C_R   0.143088 0.487709 0.667718 0.219583
C8    C     C_R   0.845564 0.462817 0.276358 0.216145
C9    C     C_R   0.223665 0.475880 0.668746 -0.186554
C10   C     C_R   0.765198 0.447745 0.297650 -0.203979
C11   C     C_2   0.018256 0.477802 0.494417 -0.093101
C12   C     C_R   0.503549 0.799453 0.545418 0.557097
C13   C     C_2   0.978094 0.561263 0.401870 -0.046397
C14   C     C_3   0.274182 0.579372 0.109330 -0.047545
C15   C     C_3   0.766531 0.602664 0.897716 -0.064227
C16   C     C_3   0.071479 0.630367 0.886809 -0.067278
C17   C     C_3   0.876919 0.229571 0.104570 -0.121051
C18   C     C_3   0.919033 0.882195 0.683925 -0.133277
C19   C     C_3   0.101150 0.316469 0.122316 -0.081219
C20   C     C_3   0.440564 0.306606 0.946673 -0.136327
C21   C     C_3   0.558698 0.694018 0.053354 -0.129847
C22   C     C_2   0.490191 0.032041 0.431948 -0.153052
C23   C     C_2   0.509620 0.967945 0.568125 -0.152979
C24   C     C_R   0.351587 0.506266 0.523990 0.567097
C25   C     C_R   0.648643 0.502563 0.476197 0.565891
C26   C     C_R   0.266939 0.515208 0.529753 -0.055944
C27   C     C_R   0.733424 0.517309 0.460993 -0.068131
C28   C     C_R   0.228210 0.552105 0.382593 0.275261
Cu1   Cu    Cu3+1 0.508700 0.517250 0.683000 0.939906
Cu2   Cu    Cu3+1 0.491300 0.482750 0.317000 0.933244
H1    H     H_    0.727766 0.380036 0.186649 0.145107
H2    H     H_    0.829781 0.612463 0.934583 0.192605
H3    H     H_    0.743392 0.475635 0.858206 0.132772
H4    H     H_    0.736580 0.657601 0.019977 0.113051
H5    H     H_    0.012904 0.606554 0.938266 0.194979
H6    H     H_    0.065060 0.705138 0.786652 0.123229
H7    H     H_    0.108625 0.702226 0.000776 0.142298
H8    H     H_    0.908722 0.204221 0.222395 0.111017
H9    H     H_    0.907768 0.177455 0.982795 0.124243
H10   H     H_    0.816508 0.170770 0.090396 0.121872
H11   H     H_    0.862589 0.936723 0.699020 0.147382
H12   H     H_    0.252659 0.439150 0.776873 0.112902
H13   H     H_    0.942638 0.885453 0.549851 0.100485
H14   H     H_    0.961447 0.954978 0.786688 0.113284
H15   H     H_    0.073638 0.253052 0.220537 0.085373
H16   H     H_    0.157308 0.267543 0.081479 0.103039
H17   H     H_    0.060619 0.289617 0.002692 0.189761
H18   H     H_    0.399725 0.260650 0.037559 0.098656
H19   H     H_    0.404168 0.317320 0.830472 0.139416
H20   H     H_    0.484474 0.220082 0.912273 0.121752
H21   H     H_    0.599029 0.741212 0.962425 0.133471
H22   H     H_    0.514236 0.779300 0.087901 0.112484
H23   H     H_    0.006423 0.639063 0.324117 0.158492
H24   H     H_    0.595397 0.683835 0.169397 0.140817
H25   H     H_    0.987189 0.407422 0.577065 0.148550
H26   H     H_    0.467596 0.960760 0.303418 0.121475
H27   H     H_    0.532155 0.039240 0.696714 0.114122
H28   H     H_    0.226200 0.611198 0.030314 0.177103
H29   H     H_    0.275706 0.448166 0.085582 0.106320
H30   H     H_    0.329528 0.627750 0.061672 0.146193
N1    N     N_2   0.478180 0.456750 0.041980 -0.152356
N2    N     N_2   0.521820 0.543250 0.958020 -0.148219
O1    O     O_R   0.505650 0.286040 0.618880 -0.523591
O2    O     O_3   0.751547 0.684583 0.761561 -0.560782
O3    O     O_3   0.102660 0.483025 0.821016 -0.569887
O4    O     O_3   0.877028 0.393911 0.115779 -0.577460
O5    O     O_3   0.910793 0.726846 0.713051 -0.588214
O6    O     O_3   0.112654 0.483038 0.187564 -0.560820
O7    O     O_R   0.494350 0.713960 0.381120 -0.514335
O8    O     O_R   0.490960 0.256910 0.309800 -0.514138
O9    O     O_R   0.509040 0.743090 0.690200 -0.509327
O10   O     O_R   0.394600 0.516230 0.672450 -0.532048
O11   O     O_R   0.605400 0.483770 0.327550 -0.527802
O12   O     O_R   0.379910 0.487100 0.363380 -0.475457
O13   O     O_R   0.620090 0.512900 0.636620 -0.461099
O14   O     O_3   0.267508 0.653543 0.290263 -0.560615

loop_
_geom_bond_atom_site_label_1
_geom_bond_atom_site_label_2
_ccdc_geom_bond_type
C10   C27   A    
C4    O5    S    
C2    C4    A    
C12   O7    A    
Cu1   O1    S    
C13   H23   S    
C8    O4    S    
Cu1   Cu2   S    
Cu1   O13   S    
C18   H14   S    
C25   C27   S    
C14   H30   S    
C15   H4    S    
C26   C28   A    
C1    O8    A    
C21   H21   S    
C16   H7    S    
C15   O2    S    
Cu1   O10   S    
N1    N2    D    
C23   H27   S    
C19   H15   S    
C21   N2    S    
C19   H16   S    
C1    C22   S    
C16   H5    S    
C20   H18   S    
C18   H13   S    
C16   H6    S    
C6    C13   S    
C14   H29   S    
C11   C13   D    
C12   C23   S    
C24   O12   A    
C9    H12   S    
C20   H19   S    
C20   H20   S    
C6    C8    A    
C1    O1    A    
C8    C10   A    
C3    C28   A    
Cu2   O8    S    
C12   O9    A    
C2    O2    S    
C9    C26   A    
C5    C11   S    
C25   O11   A    
C17   H8    S    
C22   C23   D    
C2    C27   A    
C17   O4    S    
C21   H24   S    
C14   H28   S    
C19   H17   S    
Cu2   N1    S    
C7    O3    S    
C28   O14   S    
C7    C9    A    
C15   H2    S    
Cu2   O7    S    
C11   H25   S    
C24   O10   A    
C4    C6    A    
C17   H9    S    
C18   H11   S    
C20   N1    S    
C5    C7    A    
Cu2   O12   S    
Cu1   N2    S    
C22   H26   S    
C16   O3    S    
C3    C5    A    
Cu1   O9    S    
C18   O5    S    
Cu2   O11   S    
C10   H1    S    
C15   H3    S    
C21   H22   S    
C3    O6    S    
C19   O6    S    
C24   C26   S    
C25   O13   A    
C17   H10   S    
C14   O14   S    
