data_mof_unit_4986.cif
_audit_creation_date              2012-12-10T18:11:43-0500
_audit_creation_method            fapswitch 2.2
_symmetry_space_group_name_H-M    P1
_symmetry_Int_Tables_number       1
_space_group_crystal_system       triclinic
_cell_length_a                    10.52238
_cell_length_b                    12.610788
_cell_length_c                    13.166553
_cell_angle_alpha                 82.122514
_cell_angle_beta                  89.549117
_cell_angle_gamma                 102.376112
_cell_volume                      1689.18497323

loop_
_atom_site_label
_atom_site_type_symbol
_atom_type_description
_atom_site_fract_x
_atom_site_fract_y
_atom_site_fract_z
_atom_type_partial_charge
C1    C     C_R   0.483778 0.438555 0.691253 0.938904
C2    C     C_3   0.064401 0.590419 0.538128 -0.298565
C3    C     C_3   0.954149 0.498094 0.592388 0.424401
C4    C     C_3   0.877013 0.502318 0.494457 -0.226168
C5    C     C_R   0.463680 0.714598 0.058078 -0.184847
C6    C     C_R   0.529111 0.599283 0.199725 -0.032445
C7    C     C_R   0.536636 0.308225 0.832106 -0.174652
C8    C     C_R   0.578728 0.290110 0.931166 -0.133736
C9    C     C_R   0.573822 0.365474 0.998204 -0.149467
C10   C     C_R   0.516625 0.457002 0.969517 0.021032
C11   C     C_R   0.461971 0.468587 0.872169 -0.059663
C12   C     C_R   0.742061 0.501501 0.496783 0.956879
C13   C     C_R   0.512264 0.537916 0.033528 0.076439
C14   C     C_R   0.461629 0.631423 0.997082 0.082582
C15   C     C_R   0.398834 0.635876 0.904773 -0.351410
C16   C     C_R   0.388115 0.550115 0.847542 0.531261
C17   C     C_R   0.548450 0.525310 0.135199 -0.233870
C18   C     C_R   0.498682 0.698685 0.159695 -0.199610
C19   C     C_R   0.484383 0.400109 0.800778 -0.100772
C20   C     C_R   0.313570 0.089532 0.350520 0.383054
C21   C     C_R   0.650534 0.799115 0.630361 -0.101913
C22   C     C_R   0.680065 0.904030 0.659948 0.497961
C23   C     C_R   0.519201 0.561416 0.309024 0.852617
C24   C     C_R   0.625533 0.985754 0.606514 -0.249145
C25   C     C_R   0.536554 0.962640 0.528165 -0.028225
C26   C     C_R   0.508050 0.854700 0.503977 0.154954
C27   C     C_R   0.473067 0.041514 0.474866 -0.089954
C28   C     C_R   0.376596 0.009820 0.402317 -0.067440
C29   C     C_R   0.343954 0.899960 0.384704 0.468704
C30   C     C_R   0.415775 0.826580 0.430798 -0.292428
C31   C     C_R   0.499427 0.151142 0.492890 -0.010938
C32   C     C_R   0.341422 0.194564 0.376139 -0.021676
C33   C     C_R   0.257898 0.499327 0.500861 1.012666
C34   C     C_3   0.938501 0.413960 0.456749 0.272282
C35   C     C_3   0.013907 0.408875 0.554996 0.366195
C36   C     C_3   0.122940 0.499824 0.499988 -0.245036
C37   C     C_3   0.046069 0.505278 0.402069 0.470736
C38   C     C_3   0.985368 0.595475 0.438652 -0.326016
H1    H     H_    0.579335 0.452954 0.169398 0.148654
H2    H     H_    0.553567 0.254750 0.778042 0.149718
H3    H     H_    0.618094 0.350375 0.070648 0.127665
H4    H     H_    0.622814 0.220881 0.954173 0.140634
H5    H     H_    0.293226 0.256200 0.338744 0.175274
H6    H     H_    0.571391 0.183072 0.544864 0.142115
H7    H     H_    0.693725 0.734356 0.667258 0.135055
H8    H     H_    0.652100 0.065485 0.630681 0.143345
H9    H     H_    0.393685 0.746144 0.411236 0.220935
H10   H     H_    0.968687 0.670857 0.391445 0.204412
H11   H     H_    0.120899 0.661785 0.571061 0.209648
H12   H     H_    0.491983 0.759319 0.208846 0.142320
H13   H     H_    0.349162 0.701579 0.880793 0.170453
H14   H     H_    0.429411 0.787884 0.029606 0.132077
N1    N     N_R   0.432930 0.222190 0.444670 -0.143987
N2    N     N_R   0.566370 0.776980 0.554790 -0.134671
O1    O     O_R   0.467970 0.366730 0.627150 -0.629927
O2    O     O_R   0.510820 0.544830 0.662520 -0.584490
O3    O     O_R   0.664630 0.410960 0.482340 -0.587414
O4    O     O_R   0.707470 0.589060 0.517710 -0.630216
O5    O     O_R   0.489180 0.455170 0.337480 -0.614529
O6    O     O_R   0.532030 0.633270 0.372850 -0.650010
O7    O     O_R   0.292530 0.410940 0.482290 -0.586001
O8    O     O_R   0.335370 0.589040 0.517660 -0.624624
Zn1   Zn    Zn3+2 0.471390 0.381080 0.476380 0.984890
Zn2   Zn    Zn3+2 0.528610 0.618920 0.523620 0.957185
O9    O     O_3   0.040989 0.313636 0.612174 -0.609270
C39   C     C_3   0.925477 0.248254 0.661124 -0.226073
H15   H     H_    0.844213 0.234338 0.607619 0.180408
H16   H     H_    0.896391 0.284695 0.727391 0.190348
H17   H     H_    0.944168 0.166771 0.691583 0.211753
O10   O     O_3   0.301089 0.545027 0.769479 -0.608953
C40   C     C_3   0.189196 0.464279 0.804783 -0.304297
H18   H     H_    0.139985 0.487216 0.871063 0.163812
H19   H     H_    0.211491 0.381753 0.824901 0.170051
H20   H     H_    0.120426 0.458055 0.742353 0.245045
O11   O     O_3   0.227645 0.861206 0.339021 -0.568339
C41   C     C_3   0.248974 0.809030 0.254308 -0.333506
H21   H     H_    0.262689 0.724708 0.279524 0.201030
H22   H     H_    0.331402 0.858533 0.203222 0.129911
H23   H     H_    0.160726 0.801002 0.208008 0.201100
O12   O     O_3   0.228769 0.069681 0.272878 -0.724545
H24   H     H_    0.270751 0.032881 0.224527 0.346758
O13   O     O_3   0.870055 0.324128 0.413689 -0.754908
H25   H     H_    0.936149 0.282579 0.398309 0.359769
O14   O     O_3   0.767397 0.932306 0.735451 -0.615908
C42   C     C_3   0.743552 0.852634 0.823907 -0.331723
H26   H     H_    0.789366 0.782886 0.814323 0.155890
H27   H     H_    0.637673 0.823168 0.844311 0.164658
H28   H     H_    0.789510 0.890508 0.889574 0.201288
O15   O     O_3   0.105558 0.506595 0.305373 -0.609132
C43   C     C_3   0.018487 0.526277 0.227979 -0.300002
H29   H     H_    0.998861 0.609796 0.224840 0.149364
H30   H     H_    0.925743 0.463334 0.238162 0.196638
H31   H     H_    0.064090 0.521839 0.152872 0.189668
O16   O     O_3   0.894296 0.487149 0.690906 -0.632555
C44   C     C_3   0.904863 0.591039 0.721997 -0.317603
H32   H     H_    0.005891 0.623468 0.744258 0.177670
H33   H     H_    0.839180 0.582259 0.790386 0.183932
H34   H     H_    0.875136 0.650531 0.661500 0.186517

loop_
_geom_bond_atom_site_label_1
_geom_bond_atom_site_label_2
_ccdc_geom_bond_type
C39   H16   S    
C24   C25   A    
C34   C37   S    
C35   C36   S    
C41   H23   S    
C44   H34   S    
C7    C8    A    
C42   H26   S    
C23   O5    A    
C11   C19   A    
C29   C30   A    
C36   C37   S    
C1    O2    A    
C8    H4    S    
C21   N2    A    
C39   H17   S    
C35   O9    S    
C15   C16   A    
C33   C36   S    
C34   C35   S    
C17   H1    S    
O7    Zn1   S    
O8    Zn2   S    
C44   H32   S    
C33   O8    A    
O1    Zn1   S    
C7    H2    S    
O2    Zn2   S    
C5    H14   S    
O10   C40   S    
C15   H13   S    
C4    C12   S    
C9    C10   A    
C38   H10   S    
C12   O4    A    
C39   H15   S    
C21   C22   A    
C26   N2    A    
O3    Zn1   S    
C21   H7    S    
C42   H27   S    
O4    Zn2   S    
C23   O6    A    
C6    C18   A    
C4    C34   S    
C1    C19   S    
C31   H6    S    
C20   O12   S    
C27   C31   A    
C30   H9    S    
C16   O10   S    
O14   C42   S    
C40   H19   S    
C8    C9    A    
C5    C18   A    
C20   C28   A    
C25   C26   A    
C31   N1    A    
C22   O14   S    
O11   C41   S    
C37   C38   S    
C2    H11   S    
C11   C16   A    
C2    C38   S    
C43   H30   S    
C3    C35   S    
C41   H21   S    
C5    C14   A    
C12   O3    A    
C4    C38   S    
C26   C30   A    
C7    C19   A    
C22   C24   A    
C3    C4    S    
C32   N1    A    
C18   H12   S    
C43   H31   S    
C20   C32   A    
C42   H28   S    
C2    C36   S    
C6    C17   A    
C28   C29   A    
O5    Zn1   S    
C41   H22   S    
O12   H24   S    
C10   C13   A    
C40   H20   S    
C44   H33   S    
C29   O11   S    
C37   O15   S    
C25   C27   A    
C9    H3    S    
C13   C17   A    
O6    Zn2   S    
C24   H8    S    
C2    C3    S    
C1    O1    A    
C40   H18   S    
N1    Zn1   S    
C43   H29   S    
N2    Zn2   S    
C6    C23   S    
C32   H5    S    
C3    O16   S    
O9    C39   S    
O16   C44   S    
C10   C11   A    
C33   O7    A    
O13   H25   S    
C27   C28   A    
C14   C15   A    
C34   O13   S    
O15   C43   S    
C13   C14   A    
