data_mof_unit_273.cif
_audit_creation_date              2013-03-05T16:11:04-0500
_audit_creation_method            fapswitch 2.2
_symmetry_space_group_name_H-M    P1
_symmetry_Int_Tables_number       1
_space_group_crystal_system       triclinic
_cell_length_a                    11.757267
_cell_length_b                    9.842102
_cell_length_c                    11.043937
_cell_angle_alpha                 90.307008
_cell_angle_beta                  84.639157
_cell_angle_gamma                 88.319514
_cell_volume                      1271.78356021

loop_
_atom_site_label
_atom_site_type_symbol
_atom_site_description
_atom_site_fract_x
_atom_site_fract_y
_atom_site_fract_z
_atom_type_partial_charge
O1    O     O_R   0.317570 0.620260 0.500070 -0.554754
O2    O     O_R   0.317570 0.379740 0.500070 -0.590144
C1    C     C_R   0.259882 0.502315 0.503625 0.915112
O3    O     O_R   0.499850 0.620240 0.316900 -0.603578
O4    O     O_R   0.499850 0.379760 0.316900 -0.608172
C2    C     C_R   0.492618 0.499618 0.262138 0.796947
Cu1   Cu    Cu3+1 0.499860 0.642410 0.500060 0.942060
Cu2   Cu    Cu3+1 0.499860 0.357590 0.500060 0.943053
O5    O     O_R   0.682190 0.620260 0.500030 -0.607888
O6    O     O_R   0.682190 0.379740 0.500030 -0.563031
O7    O     O_R   0.499910 0.620280 0.683200 -0.590278
O8    O     O_R   0.499910 0.379720 0.683200 -0.602366
C3    C     C_R   0.740120 0.497744 0.496167 0.788899
C4    C     C_R   0.505374 0.499668 0.739859 0.839267
C5    C     C_3   0.442684 0.611007 0.045737 0.070280
C6    C     C_3   0.438424 0.387952 0.044923 0.059808
C7    C     C_3   0.396404 0.502622 0.963965 0.286642
C8    C     C_3   0.508954 0.497936 0.878836 -0.209310
C9    C     C_3   0.555857 0.605946 0.963983 0.159411
C10   C     C_3   0.552028 0.381778 0.961748 0.160631
C11   C     C_3   0.598943 0.490468 0.043100 0.160538
C12   C     C_3   0.486774 0.497180 0.126574 -0.124369
C13   C     C_3   0.051816 0.631401 0.591829 0.388800
C14   C     C_3   0.070485 0.355210 0.559975 0.401347
C15   C     C_3   0.913328 0.626511 0.581688 0.251716
C16   C     C_3   0.929386 0.353101 0.561320 0.270110
C17   C     C_3   0.087324 0.519369 0.362378 0.232580
C18   C     C_3   0.120326 0.504065 0.504908 -0.359303
C19   C     C_3   0.879816 0.494640 0.496983 -0.211206
C20   C     C_3   0.947800 0.504500 0.356209 0.271690
C21   C     C_3   0.601651 0.075249 0.554120 0.151735
C22   C     C_3   0.593058 0.915218 0.568567 0.145349
H1    H     H_    0.675951 0.085025 0.487898 0.225024
H2    H     H_    0.671953 0.871961 0.522975 0.227421
C23   C     C_3   0.394637 0.086609 0.565429 0.040186
C24   C     C_3   0.389810 0.925302 0.554227 0.028516
C25   C     C_3   0.509237 0.080361 0.374790 0.017657
C26   C     C_3   0.519818 0.914496 0.375874 0.016640
N1    N     N_3   0.500250 0.143650 0.502780 -0.199550
N2    N     N_3   0.500250 0.856350 0.502780 -0.204719
H3    H     H_    0.427803 0.105227 0.334533 0.135559
H4    H     H_    0.451075 0.877525 0.322956 0.162461
H5    H     H_    0.328317 0.128858 0.512757 0.212748
H6    H     H_    0.330715 0.913689 0.484172 0.200768
N3    N     N_R   0.285087 0.518667 0.920380 0.175673
O9    O     O_R   0.193619 0.491398 0.990275 -0.334167
O10   O     O_R   0.277210 0.602685 0.832027 -0.316995
C27   C     C_3   0.892289 0.616961 0.274553 -0.695320
H7    H     H_    0.897088 0.592179 0.176160 0.211514
H8    H     H_    0.802619 0.635228 0.306331 0.214476
H9    H     H_    0.929938 0.715151 0.255195 0.253639
C28   C     C_3   0.921519 0.380860 0.275095 -0.686528
H10   H     H_    0.961163 0.284282 0.293341 0.306037
H11   H     H_    0.828236 0.369910 0.278938 0.234255
H12   H     H_    0.951065 0.391337 0.176974 0.218293
C29   C     C_3   0.642563 0.141806 0.664420 -0.760367
H13   H     H_    0.726820 0.097412 0.681261 0.247370
H14   H     H_    0.655717 0.247615 0.656361 0.290738
H15   H     H_    0.582767 0.125317 0.742059 0.224635
C30   C     C_3   0.599257 0.866407 0.699356 -0.732451
H16   H     H_    0.631561 0.763650 0.696890 0.275052
H17   H     H_    0.665686 0.912625 0.748553 0.222956
H18   H     H_    0.521290 0.882385 0.758235 0.218896
C31   C     C_3   0.359420 0.139765 0.695674 -0.619040
H19   H     H_    0.411201 0.099271 0.765730 0.176786
H20   H     H_    0.354887 0.248739 0.698897 0.309711
H21   H     H_    0.271005 0.111534 0.725610 0.263349
C32   C     C_3   0.327554 0.858501 0.667497 -0.510933
H22   H     H_    0.330929 0.748579 0.663635 0.305663
H23   H     H_    0.351679 0.887492 0.757408 0.165535
H24   H     H_    0.237629 0.893650 0.673201 0.282722
C33   C     C_3   0.602655 0.145968 0.284204 -0.726499
H25   H     H_    0.562980 0.183650 0.203377 0.229100
H26   H     H_    0.645426 0.228322 0.327962 0.296413
H27   H     H_    0.675646 0.084355 0.243762 0.214905
C34   C     C_3   0.631627 0.856719 0.305766 -0.796617
H28   H     H_    0.647268 0.750232 0.323527 0.279300
H29   H     H_    0.627003 0.869136 0.206878 0.211835
H30   H     H_    0.709830 0.904353 0.332420 0.245968
C35   C     C_3   0.377393 0.743735 0.078780 -0.768332
H31   H     H_    0.364501 0.801183 0.994685 0.245530
H32   H     H_    0.292818 0.723192 0.124523 0.239558
H33   H     H_    0.426610 0.806297 0.137229 0.223576
C36   C     C_3   0.368370 0.264258 0.084559 -0.820702
H34   H     H_    0.280365 0.274765 0.057492 0.279349
H35   H     H_    0.406335 0.169297 0.042360 0.226570
H36   H     H_    0.364478 0.252737 0.184208 0.235671
C37   C     C_3   0.625531 0.733602 0.950949 -0.860065
H37   H     H_    0.665276 0.753581 0.035643 0.241260
H38   H     H_    0.695360 0.720210 0.879682 0.235485
H39   H     H_    0.570371 0.823425 0.936334 0.232752
C38   C     C_3   0.623094 0.250938 0.939289 -0.848926
H40   H     H_    0.665866 0.221211 0.020393 0.237691
H41   H     H_    0.567280 0.165984 0.924023 0.219720
H42   H     H_    0.690676 0.265401 0.865098 0.239352
C39   C     C_3   0.716137 0.483992 0.085925 -0.886998
H43   H     H_    0.717533 0.567705 0.151665 0.227128
H44   H     H_    0.728389 0.385652 0.130537 0.235213
H45   H     H_    0.782296 0.495709 0.008438 0.265067
N4    N     N_R   0.086502 0.771096 0.553174 0.166729
O11   O     O_R   0.177728 0.794322 0.484866 -0.419011
O12   O     O_R   0.042150 0.877221 0.613027 -0.170266
N5    N     N_R   0.121153 0.230121 0.493221 0.137337
O13   O     O_R   0.103304 0.199390 0.382918 -0.389612
O14   O     O_R   0.144179 0.123702 0.556770 -0.276638
N6    N     N_R   0.076638 0.628660 0.723900 0.165899
O15   O     O_R   0.108519 0.738461 0.775781 -0.279126
O16   O     O_R   0.040103 0.537680 0.800985 -0.309261
N7    N     N_R   0.107294 0.334968 0.684800 0.149091
O17   O     O_R   0.071831 0.232637 0.751441 -0.302158
O18   O     O_R   0.199475 0.389819 0.715227 -0.332198
C40   C     C_3   0.844565 0.625898 0.712345 -0.726863
H46   H     H_    0.860002 0.719302 0.764205 0.277763
H47   H     H_    0.753804 0.613891 0.702974 0.185441
H48   H     H_    0.856179 0.558576 0.786489 0.217217
C41   C     C_3   0.868368 0.335807 0.692601 -0.746725
H49   H     H_    0.781389 0.380919 0.701706 0.173569
H50   H     H_    0.859945 0.229269 0.721319 0.262901
H51   H     H_    0.913389 0.370128 0.767825 0.272354
N8    N     N_R   0.870592 0.761413 0.535447 0.176711
O19   O     O_R   0.906365 0.809745 0.431443 -0.361617
O20   O     O_R   0.832751 0.856762 0.612308 -0.354590
N9    N     N_R   0.898901 0.221694 0.504444 0.182406
O21   O     O_R   0.823264 0.211903 0.428073 -0.428420
O22   O     O_R   0.929374 0.106824 0.551374 -0.178448
C42   C     C_3   0.125900 0.655038 0.300663 -0.669740
H52   H     H_    0.218218 0.670273 0.307332 0.239706
H53   H     H_    0.114541 0.652353 0.201626 0.230801
H54   H     H_    0.078988 0.747524 0.331284 0.301184
C43   C     C_3   0.168056 0.420225 0.274380 -0.669552
H55   H     H_    0.227782 0.357124 0.321315 0.236996
H56   H     H_    0.126551 0.355723 0.211264 0.260463
H57   H     H_    0.232882 0.470550 0.211453 0.208569

loop_
_geom_bond_atom_site_label_1
_geom_bond_atom_site_label_2
_geom_bond_distance
_ccdc_geom_bond_type
C42   H52   1.109223 S    
C33   H26   1.099315 S    
C4    C8    1.539526 S    
C43   H56   1.097274 S    
C23   C24   1.594826 S    
C36   H36   1.103769 S    
C40   H47   1.091460 S    
N9    O21   1.286778 A    
C5    C12   1.543996 S    
C26   C34   1.553123 S    
N3    O9    1.299395 A    
C29   H13   1.103070 S    
Cu1   O7    2.035494 S    
C10   C38   1.520754 S    
C25   C26   1.633742 S    
C30   H18   1.080246 S    
C34   H29   1.105778 S    
C20   C27   1.594564 S    
C1    C18   1.639118 S    
C9    C11   1.539933 S    
C36   H35   1.105406 S    
C26   H4    1.109240 S    
N7    O18   1.295923 A    
O4    C2    1.332649 A    
O7    C4    1.347527 A    
N9    O22   1.300921 A    
N6    O15   1.301507 A    
C2    C12   1.505227 S    
C39   H45   1.110236 S    
C6    C36   1.532727 S    
C41   H49   1.098500 S    
C30   H17   1.099825 S    
C8    C9    1.561724 S    
O5    C3    1.365849 A    
C38   H40   1.104133 S    
C15   C40   1.586888 S    
C5    C9    1.536015 S    
C27   H9    1.088660 S    
C5    C35   1.520746 S    
N8    O20   1.302132 A    
C6    C7    1.542024 S    
C39   H44   1.100207 S    
C42   H53   1.114461 S    
Cu1   N2    2.105818 S    
C21   H1    1.092498 S    
C23   C31   1.543419 S    
Cu2   N1    2.105871 S    
C21   C29   1.504584 S    
C23   H5    1.089773 S    
C28   H12   1.112898 S    
Cu2   O8    2.033177 S    
C33   H25   1.105969 S    
C37   H37   1.103176 S    
C27   H8    1.089063 S    
C13   N4    1.498505 S    
C11   C12   1.536406 S    
C17   C20   1.658874 S    
C33   H27   1.094814 S    
C38   H41   1.099773 S    
C40   H46   1.108889 S    
C28   H11   1.102065 S    
N3    O10   1.290548 A    
C15   C19   1.673542 S    
C31   H21   1.104902 S    
Cu1   Cu2   2.803227 S    
C34   H28   1.080899 S    
C35   H32   1.097217 S    
C9    C37   1.520064 S    
C32   H22   1.081896 S    
C42   H54   1.086064 S    
O3    Cu1   2.033390 S    
C13   N6    1.514214 S    
C38   H42   1.099641 S    
C30   H16   1.069137 S    
O1    C1    1.360435 A    
C22   H2    1.087415 S    
C23   N1    1.490059 S    
C19   C20   1.685050 S    
C21   C22   1.589165 S    
C37   H39   1.102566 S    
C24   N2    1.508552 S    
C6    C10   1.548182 S    
C39   H43   1.096730 S    
N4    O12   1.302334 A    
C7    C8    1.549388 S    
N5    O14   1.299856 A    
C13   C18   1.710087 S    
C36   H34   1.105675 S    
C41   H50   1.101659 S    
O3    C2    1.337988 A    
C27   H7    1.108313 S    
C37   H38   1.087508 S    
C24   H6    1.094775 S    
C43   H57   1.111786 S    
C16   N9    1.502078 S    
C22   C30   1.532151 S    
C15   N8    1.513997 S    
C17   C18   1.662600 S    
C28   H10   1.074702 S    
C35   H33   1.103225 S    
C13   C15   1.644579 S    
C3    C19   1.642695 S    
C5    C7    1.537896 S    
C20   C28   1.562330 S    
C41   H51   1.083557 S    
C6    C12   1.553461 S    
O1    Cu1   2.160630 S    
Cu2   O6    2.161079 S    
O2    Cu2   2.147910 S    
C14   N7    1.495582 S    
C14   C18   1.689051 S    
C7    N3    1.440815 S    
C35   H31   1.110010 S    
O6    C3    1.362385 A    
O4    Cu2   2.035715 S    
C24   C32   1.548817 S    
C11   C39   1.497745 S    
C29   H15   1.073010 S    
C14   N5    1.509734 S    
C31   H19   1.097813 S    
C43   H55   1.092406 S    
O8    C4    1.339178 A    
C25   N1    1.534922 S    
N7    O17   1.305788 A    
C26   N2    1.516851 S    
C14   C16   1.658355 S    
N6    O16   1.293622 A    
C32   H24   1.098789 S    
N4    O11   1.279376 A    
C17   C42   1.562280 S    
C29   H14   1.060276 S    
O2    C1    1.365096 A    
C8    C10   1.570300 S    
C22   N2    1.494966 S    
C25   H3    1.114095 S    
C16   C41   1.568822 S    
Cu1   O5    2.148358 S    
C34   H30   1.107345 S    
C10   C11   1.540362 S    
C16   C19   1.680915 S    
C32   H23   1.096453 S    
C25   C33   1.570784 S    
N5    O13   1.291131 A    
C21   N1    1.509757 S    
C17   C43   1.600235 S    
N8    O19   1.284451 A    
C40   H48   1.072178 S    
C31   H20   1.072522 S    
