data_mof_unit_4224.cif
_audit_creation_date              2012-12-11T15:09:11-0500
_audit_creation_method            fapswitch 2.2
_symmetry_space_group_name_H-M    P1
_symmetry_Int_Tables_number       1
_space_group_crystal_system       triclinic
_cell_length_a                    26.027411
_cell_length_b                    27.592223
_cell_length_c                    8.389381
_cell_angle_alpha                 89.999665
_cell_angle_beta                  96.267291
_cell_angle_gamma                 90.095392
_cell_volume                      5988.85220879

loop_
_atom_site_label
_atom_site_type_symbol
_atom_type_description
_atom_site_fract_x
_atom_site_fract_y
_atom_site_fract_z
_atom_type_partial_charge
Ba1   Ba    Ba6+2 0.999910 0.465960 0.844870 1.641178
Ba2   Ba    Ba6+2 0.999910 0.534040 0.344870 1.642116
Ba3   Ba    Ba6+2 0.499910 0.965960 0.844870 1.641179
Ba4   Ba    Ba6+2 0.499910 0.034040 0.344870 1.642135
C1    C     C_3   0.027307 0.231863 0.663398 0.173577
C2    C     C_R   0.846238 0.642429 0.598669 -0.121362
C3    C     C_3   0.515393 0.211258 0.095474 0.411706
C4    C     C_R   0.915180 0.382529 0.294999 -0.286467
C5    C     C_R   0.914769 0.616604 0.798800 -0.282592
C6    C     C_R   0.415168 0.882537 0.295029 -0.286455
C7    C     C_R   0.414841 0.116652 0.798724 -0.282481
C8    C     C_3   0.939206 0.203156 0.291853 0.235323
C9    C     C_3   0.927741 0.148998 0.270577 -0.188605
C10   C     C_3   0.943803 0.121047 0.424858 -0.479830
C11   C     C_3   0.906460 0.824444 0.582606 0.292162
C12   C     C_3   0.929243 0.870900 0.517393 -0.202497
C13   C     C_R   0.344664 0.858235 0.098617 -0.123344
C14   C     C_3   0.886784 0.907467 0.464696 -0.482436
C15   C     C_3   0.439218 0.703119 0.291771 0.235351
C16   C     C_3   0.427783 0.648957 0.270416 -0.188012
C17   C     C_3   0.443844 0.620994 0.424683 -0.480870
C18   C     C_3   0.410463 0.328031 0.590677 0.296828
C19   C     C_3   0.438710 0.375340 0.558272 -0.189798
C20   C     C_3   0.400388 0.415689 0.506562 -0.487900
C21   C     C_R   0.346366 0.142506 0.598453 -0.121388
C22   C     C_R   0.833293 0.318391 0.195561 0.021301
C23   C     C_R   0.834811 0.682253 0.695850 -0.008567
C24   C     C_R   0.333280 0.818402 0.195619 0.021290
C25   C     C_R   0.335034 0.182408 0.695409 -0.008086
C26   C     C_R   0.862677 0.312839 0.346482 -0.090092
C27   C     C_R   0.863511 0.687161 0.848431 -0.092790
C28   C     C_R   0.362672 0.812843 0.346521 -0.090083
C29   C     C_3   0.040454 0.760974 0.118128 0.244432
C30   C     C_R   0.363739 0.187351 0.847972 -0.091090
C31   C     C_R   0.902977 0.345131 0.396347 -0.002142
C32   C     C_R   0.902835 0.654187 0.899950 -0.001233
C33   C     C_R   0.402972 0.845136 0.396376 -0.002154
C34   C     C_R   0.402983 0.154309 0.899721 -0.001567
C35   C     C_R   0.793036 0.234573 0.184896 -0.049390
C36   C     C_R   0.793646 0.765779 0.694926 -0.086436
C37   C     C_R   0.293017 0.734588 0.184947 -0.049431
C38   C     C_R   0.294094 0.266046 0.693338 -0.084212
C39   C     C_R   0.252467 0.702346 0.137576 -0.084244
C40   C     C_3   0.527324 0.731860 0.663280 0.173304
C41   C     C_R   0.254136 0.298704 0.643959 -0.093916
C42   C     C_R   0.752501 0.202322 0.137459 -0.084380
C43   C     C_R   0.753764 0.798472 0.645284 -0.094035
C44   C     C_R   0.206608 0.718535 0.049165 0.059048
C45   C     C_R   0.210338 0.283860 0.541810 0.071872
C46   C     C_R   0.706656 0.218497 0.048936 0.059005
C47   C     C_R   0.710139 0.783740 0.542192 0.072218
C48   C     C_R   0.202827 0.768154 0.009586 -0.075655
C49   C     C_R   0.208583 0.235252 0.489336 -0.016418
C50   C     C_R   0.702872 0.268113 0.009323 -0.075669
C51   C     C_3   0.541048 0.260703 0.121858 0.245010
C52   C     C_R   0.708498 0.735197 0.489036 -0.016272
C53   C     C_R   0.743664 0.300343 0.055864 -0.082652
C54   C     C_R   0.748371 0.702561 0.538630 -0.068914
C55   C     C_R   0.243631 0.800374 0.056065 -0.082462
C56   C     C_R   0.248478 0.202635 0.538887 -0.069165
C57   C     C_3   0.986968 0.286357 0.090072 0.329068
C58   C     C_3   0.004199 0.728290 0.622216 0.297919
C59   C     C_3   0.486962 0.786349 0.090009 0.329211
C60   C     C_3   0.504060 0.228078 0.625101 0.298439
C61   C     C_R   0.789564 0.284087 0.144174 0.063744
C62   C     C_R   0.885070 0.390633 0.149456 0.065424
C63   C     C_R   0.791891 0.717240 0.642110 0.054750
C64   C     C_R   0.289543 0.784105 0.144271 0.063655
C65   C     C_R   0.292156 0.217412 0.641496 0.055081
C66   C     C_R   0.134199 0.689252 0.845214 -0.142421
C67   C     C_R   0.137678 0.313485 0.338343 -0.077464
C68   C     C_R   0.634284 0.189182 0.844888 -0.141985
C69   C     C_R   0.637603 0.813462 0.338421 -0.077538
C70   C     C_R   0.095124 0.655926 0.793164 -0.022163
C71   C     C_R   0.097423 0.345751 0.289183 0.005216
C72   C     C_R   0.595220 0.155848 0.792817 -0.021882
C73   C     C_R   0.885479 0.609226 0.651224 0.077330
C74   C     C_R   0.597387 0.845755 0.289175 0.005270
C75   C     C_R   0.113746 0.610037 0.039469 0.067765
C76   C     C_R   0.114847 0.390454 0.538060 0.062166
C77   C     C_R   0.613778 0.110011 0.039301 0.067438
C78   C     C_R   0.614782 0.890443 0.538079 0.062220
C79   C     C_R   0.152945 0.643393 0.092061 -0.131694
C80   C     C_R   0.155032 0.357914 0.588575 -0.110254
C81   C     C_R   0.652979 0.143367 0.091860 -0.132091
C82   C     C_R   0.654887 0.857846 0.588753 -0.110428
C83   C     C_R   0.163447 0.683818 0.996422 -0.011945
C84   C     C_R   0.385054 0.890641 0.149488 0.065240
C85   C     C_R   0.166868 0.318528 0.490056 0.026238
C86   C     C_R   0.663510 0.183768 0.996147 -0.011685
C87   C     C_R   0.666729 0.818456 0.490258 0.026214
C88   C     C_R   0.083895 0.617721 0.893087 -0.276578
C89   C     C_R   0.085135 0.382845 0.391486 -0.288077
C90   C     C_R   0.583967 0.117663 0.892812 -0.276783
C91   C     C_R   0.585108 0.882866 0.391428 -0.288134
C92   C     C_3   0.963271 0.236287 0.054760 0.233240
C93   C     C_3   0.969108 0.767080 0.539860 0.295704
C94   C     C_3   0.463274 0.736274 0.054703 0.233211
C95   C     C_R   0.385541 0.109257 0.651156 0.077353
C96   C     C_3   0.468408 0.266770 0.544504 0.295716
C97   C     C_3   0.147979 0.469753 0.222511 0.315609
C98   C     C_3   0.146682 0.530963 0.721925 0.314018
C99   C     C_3   0.647986 0.969759 0.222691 0.315809
C100  C     C_3   0.646744 0.030938 0.721907 0.313961
C101  C     C_3   0.196970 0.439369 0.243597 -0.390643
C102  C     C_3   0.195218 0.562091 0.745217 -0.391073
C103  C     C_3   0.697002 0.939411 0.244182 -0.391164
C104  C     C_3   0.695298 0.062045 0.745058 -0.391208
C105  C     C_3   0.852274 0.531011 0.967252 0.308061
C106  C     C_R   0.844683 0.358225 0.098568 -0.123353
C107  C     C_3   0.852511 0.468718 0.468058 0.311192
C108  C     C_3   0.352368 0.031052 0.967388 0.308016
C109  C     C_3   0.352484 0.968732 0.468062 0.311179
C110  C     C_3   0.803649 0.561936 0.949708 -0.378276
C111  C     C_3   0.803900 0.437636 0.449500 -0.377796
C112  C     C_3   0.303686 0.061890 0.948363 -0.378379
C113  C     C_3   0.303879 0.937642 0.449668 -0.377476
C114  C     C_3   0.008565 0.282956 0.619735 0.280697
C115  C     C_3   0.015008 0.711403 0.093000 0.410153
C116  C     C_3   0.508570 0.782950 0.619620 0.280825
Cl1   Cl    Cl    0.082886 0.217633 0.567285 -0.764714
Cl2   Cl    Cl    0.000280 0.807226 0.023192 -0.651841
Cl3   Cl    Cl    0.582845 0.717600 0.566920 -0.764964
Cl4   Cl    Cl    0.501713 0.307135 0.025038 -0.657059
H1    H     H_    0.036745 0.309478 0.678785 0.093087
H2    H     H_    0.185722 0.599129 0.783103 0.069497
H3    H     H_    0.438753 0.248341 0.459185 0.056469
H4    H     H_    0.993590 0.207592 0.070204 0.034600
H5    H     H_    0.993259 0.791693 0.474172 0.054843
H6    H     H_    0.493601 0.707587 0.070138 0.034453
H7    H     H_    0.492015 0.291458 0.476795 0.051017
H8    H     H_    0.132373 0.472871 0.339529 0.008474
H9    H     H_    0.130279 0.527888 0.837666 0.008740
H10   H     H_    0.632315 0.972917 0.339593 0.008670
H11   H     H_    0.630383 0.027865 0.837719 0.008975
H12   H     H_    0.119416 0.451494 0.134186 0.061660
H13   H     H_    0.688392 0.902476 0.285147 0.053956
H14   H     H_    0.118432 0.548691 0.631639 0.069894
H15   H     H_    0.619476 0.951451 0.134327 0.061519
H16   H     H_    0.618475 0.048681 0.631706 0.069351
H17   H     H_    0.917525 0.217344 0.388678 0.065619
H18   H     H_    0.980945 0.209031 0.332887 0.074460
H19   H     H_    0.885670 0.143655 0.235789 0.123817
H20   H     H_    0.948997 0.134331 0.173334 0.123064
H21   H     H_    0.986074 0.124719 0.459189 0.172005
H22   H     H_    0.934433 0.082045 0.406163 0.145206
H23   H     H_    0.922742 0.134861 0.523766 0.131138
H24   H     H_    0.685839 0.099081 0.783048 0.069319
H25   H     H_    0.881927 0.835240 0.676782 0.091872
H26   H     H_    0.880464 0.805698 0.487318 0.017427
H27   H     H_    0.957032 0.887526 0.612079 0.161078
H28   H     H_    0.950074 0.862324 0.412192 0.133147
H29   H     H_    0.858519 0.891531 0.370014 0.141431
H30   H     H_    0.904174 0.940300 0.415492 0.153560
H31   H     H_    0.866266 0.918376 0.568419 0.134878
H32   H     H_    0.417525 0.717283 0.388604 0.065592
H33   H     H_    0.480952 0.709011 0.332831 0.074602
H34   H     H_    0.385714 0.643599 0.235574 0.123782
H35   H     H_    0.213692 0.436557 0.127667 0.127103
H36   H     H_    0.449058 0.634313 0.173175 0.122689
H37   H     H_    0.486111 0.624697 0.459102 0.171847
H38   H     H_    0.434514 0.581987 0.405909 0.144419
H39   H     H_    0.422750 0.634772 0.523575 0.131185
H40   H     H_    0.382366 0.336218 0.677302 0.085041
H41   H     H_    0.387397 0.314645 0.479348 0.015649
H42   H     H_    0.463222 0.386788 0.668892 0.169401
H43   H     H_    0.464015 0.369822 0.461467 0.124677
H44   H     H_    0.375171 0.404832 0.396779 0.143116
H45   H     H_    0.421801 0.449082 0.480033 0.152321
H46   H     H_    0.212917 0.564600 0.630856 0.126380
H47   H     H_    0.375945 0.423780 0.603882 0.135865
H48   H     H_    0.713791 0.936552 0.128376 0.127105
H49   H     H_    0.712949 0.064560 0.630615 0.126278
H50   H     H_    0.866895 0.527642 0.848901 0.008945
H51   H     H_    0.867610 0.471888 0.350325 0.007168
H52   H     H_    0.367385 0.027720 0.849611 0.008713
H53   H     H_    0.041387 0.684230 0.156174 0.003672
H54   H     H_    0.367535 0.971907 0.350256 0.006950
H55   H     H_    0.881642 0.548940 0.053846 0.060210
H56   H     H_    0.881611 0.451012 0.555768 0.068229
H57   H     H_    0.381462 0.049025 0.054742 0.060814
H58   H     H_    0.381616 0.951026 0.555672 0.068164
H59   H     H_    0.773821 0.544952 0.862373 0.131684
H60   H     H_    0.774566 0.454093 0.359578 0.127037
H61   H     H_    0.274272 0.045011 0.859446 0.131712
H62   H     H_    0.274506 0.954105 0.359880 0.127164
H63   H     H_    0.812226 0.598609 0.906349 0.059665
H64   H     H_    0.536761 0.809476 0.678592 0.092937
H65   H     H_    0.812783 0.400753 0.409033 0.058988
H66   H     H_    0.312401 0.098679 0.906302 0.059408
H67   H     H_    0.312751 0.900767 0.409104 0.058946
H68   H     H_    0.788234 0.565409 0.067536 0.128889
H69   H     H_    0.787723 0.434769 0.566315 0.129876
H70   H     H_    0.287682 0.065076 0.065348 0.129271
H71   H     H_    0.287757 0.934758 0.566567 0.130053
H72   H     H_    0.006274 0.287312 0.487833 -0.021365
H73   H     H_    0.010065 0.703269 0.962498 -0.101025
H74   H     H_    0.506248 0.787299 0.487715 -0.021329
H75   H     H_    0.541415 0.183954 0.159388 0.004953
H76   H     H_    0.510917 0.203174 0.964968 -0.100721
H77   H     H_    0.037242 0.228625 0.794789 0.108404
H78   H     H_    0.077947 0.761041 0.066317 -0.014140
H79   H     H_    0.537319 0.728640 0.794646 0.108402
H80   H     H_    0.578859 0.260549 0.072276 -0.014653
H81   H     H_    0.175460 0.637305 0.206487 0.084674
H82   H     H_    0.177106 0.363899 0.703743 0.081137
H83   H     H_    0.675471 0.137304 0.206341 0.084614
H84   H     H_    0.676887 0.863801 0.704048 0.081348
H85   H     H_    0.257642 0.664427 0.168053 0.058999
H86   H     H_    0.225768 0.456354 0.334209 0.123342
H87   H     H_    0.258252 0.335870 0.684408 0.057514
H88   H     H_    0.757675 0.164406 0.167979 0.059059
H89   H     H_    0.757823 0.835582 0.686320 0.057790
H90   H     H_    0.827488 0.220345 0.251980 0.093387
H91   H     H_    0.826248 0.778953 0.773824 0.082274
H92   H     H_    0.327481 0.720350 0.251943 0.093398
H93   H     H_    0.326864 0.279280 0.771405 0.084635
H94   H     H_    0.821937 0.364609 0.984706 0.082333
H95   H     H_    0.824590 0.636619 0.482744 0.080915
H96   H     H_    0.321913 0.864618 0.984764 0.082378
H97   H     H_    0.223533 0.545901 0.838782 0.123505
H98   H     H_    0.324691 0.136683 0.482572 0.081159
H99   H     H_    0.167935 0.782363 0.944194 0.078128
H100  H     H_    0.175809 0.221732 0.411748 0.130372
H101  H     H_    0.667987 0.282313 0.943863 0.078228
H102  H     H_    0.675834 0.721733 0.410848 0.129806
H103  H     H_    0.738694 0.338262 0.025102 0.067514
H104  H     H_    0.744216 0.665435 0.497869 0.071164
H105  H     H_    0.238664 0.838296 0.025339 0.067771
H106  H     H_    0.244229 0.165448 0.498806 0.071392
H107  H     H_    0.143230 0.717899 0.764598 0.074720
H108  H     H_    0.725747 0.956451 0.334830 0.123750
H109  H     H_    0.147247 0.285812 0.255206 0.074133
H110  H     H_    0.643304 0.217839 0.764292 0.074218
H111  H     H_    0.647176 0.785799 0.255260 0.073966
H112  H     H_    0.852855 0.284909 0.428579 0.059693
H113  H     H_    0.854238 0.715253 0.930486 0.083207
H114  H     H_    0.352857 0.784910 0.428612 0.059728
H115  H     H_    0.354515 0.215529 0.929799 0.083382
H116  H     H_    0.054511 0.591557 0.850812 0.064503
H117  H     H_    0.054800 0.408219 0.351285 0.065219
H118  H     H_    0.554565 0.091511 0.850589 0.064654
H119  H     H_    0.723639 0.045832 0.838499 0.123813
H120  H     H_    0.554813 0.908271 0.351143 0.065298
H121  H     H_    0.996533 0.205091 0.625505 0.048776
H122  H     H_    0.047887 0.769024 0.248266 0.069557
H123  H     H_    0.496534 0.705088 0.625564 0.048782
H124  H     H_    0.547810 0.268777 0.251958 0.071568
H125  H     H_    0.945432 0.407993 0.336000 0.065814
H126  H     H_    0.944552 0.590837 0.840362 0.062842
H127  H     H_    0.445421 0.908001 0.336020 0.065833
H128  H     H_    0.444568 0.090844 0.840408 0.062883
H129  H     H_    0.959856 0.314012 0.032939 0.058113
H130  H     H_    0.188353 0.402421 0.284412 0.054167
H131  H     H_    0.979264 0.699747 0.668102 -0.020254
H132  H     H_    0.459845 0.814001 0.032876 0.058104
H133  H     H_    0.479535 0.199363 0.672040 -0.020390
H134  H     H_    0.992059 0.292226 0.221536 -0.053833
H135  H     H_    0.029197 0.745005 0.723510 0.050191
H136  H     H_    0.492051 0.792219 0.221469 -0.053843
H137  H     H_    0.529410 0.244856 0.725547 0.050223
H138  H     H_    0.947312 0.234862 0.926701 0.084829
H139  H     H_    0.940065 0.748658 0.452838 0.054986
H140  H     H_    0.447314 0.734847 0.926649 0.084814
O1    O     O_2   0.898940 0.431940 0.867860 -0.453518
O2    O     O_3   0.035461 0.709767 0.510447 -0.625972
O3    O     O_3   0.534807 0.788878 0.027649 -0.625687
O4    O     O_3   0.534885 0.209801 0.511733 -0.626482
O5    O     O_3   0.058810 0.523750 0.066650 -0.496693
O6    O     O_3   0.058810 0.476250 0.566650 -0.496491
O7    O     O_3   0.558810 0.023750 0.066650 -0.496576
O8    O     O_3   0.558810 0.976250 0.566650 -0.496478
O9    O     O_3   0.941140 0.476130 0.123050 -0.495780
O10   O     O_3   0.941140 0.523870 0.623050 -0.496888
O11   O     O_3   0.441140 0.976130 0.123050 -0.495855
O12   O     O_2   0.898940 0.568060 0.367860 -0.457759
O13   O     O_3   0.441140 0.023870 0.623050 -0.496843
O14   O     O_3   0.982430 0.389880 0.635700 -0.484220
O15   O     O_3   0.982430 0.610120 0.135700 -0.487301
O16   O     O_3   0.482430 0.889880 0.635700 -0.484201
O17   O     O_3   0.482430 0.110120 0.135700 -0.487892
O18   O     O_2   0.893097 0.355572 0.717401 -0.471092
O19   O     O_2   0.897691 0.649607 0.231262 -0.480114
O20   O     O_2   0.393112 0.855559 0.717455 -0.471069
O21   O     O_2   0.397662 0.149603 0.230860 -0.479890
O22   O     O_3   0.839396 0.485261 0.022299 -0.634119
O23   O     O_2   0.398940 0.931940 0.867860 -0.453355
O24   O     O_3   0.839431 0.514526 0.521949 -0.635283
O25   O     O_3   0.339412 0.985283 0.022105 -0.633994
O26   O     O_3   0.339421 0.014539 0.522017 -0.635236
O27   O     O_3   0.959785 0.289266 0.673101 -0.636057
O28   O     O_3   0.967177 0.711253 0.156407 -0.570632
O29   O     O_3   0.459806 0.789263 0.673089 -0.636032
O30   O     O_3   0.467249 0.211294 0.156912 -0.569501
O31   O     O_2   0.100770 0.431440 0.821660 -0.455548
O32   O     O_2   0.100770 0.568560 0.321660 -0.454777
O33   O     O_2   0.600770 0.931440 0.821660 -0.455548
O34   O     O_2   0.398940 0.068060 0.367860 -0.457903
O35   O     O_2   0.600770 0.068560 0.321660 -0.455170
O36   O     O_3   0.017130 0.389790 0.053700 -0.487781
O37   O     O_3   0.017130 0.610210 0.553700 -0.464922
O38   O     O_3   0.517130 0.889790 0.053700 -0.487752
O39   O     O_3   0.517130 0.110210 0.553700 -0.464595
O40   O     O_2   0.103226 0.351923 0.960749 -0.470127
O41   O     O_2   0.105256 0.645750 0.470451 -0.475915
O42   O     O_2   0.603232 0.851930 0.960769 -0.470248
O43   O     O_2   0.604901 0.146149 0.469150 -0.476770
O44   O     O_3   0.922125 0.228324 0.148765 -0.673536
O45   O     O_3   0.160254 0.485089 0.669492 -0.636703
O46   O     O_3   0.945400 0.793440 0.656257 -0.623060
O47   O     O_3   0.422133 0.728300 0.148716 -0.673597
O48   O     O_3   0.445056 0.292751 0.662584 -0.625757
O49   O     O_3   0.160671 0.515656 0.168002 -0.635702
O50   O     O_3   0.660276 0.985061 0.669414 -0.636652
O51   O     O_3   0.660666 0.015645 0.168006 -0.635634
O52   O     O_3   0.034815 0.288877 0.027716 -0.625668
P1    P     P_3+3 0.893960 0.447890 0.040050 0.986984
P2    P     P_3+3 0.063887 0.655906 0.584852 0.948399
P3    P     P_3+3 0.563935 0.844279 0.083951 0.957830
P4    P     P_3+3 0.563778 0.155980 0.584690 0.947936
P5    P     P_3+3 0.936346 0.656155 0.105318 0.979619
P6    P     P_3+3 0.934565 0.344981 0.603798 0.938373
P7    P     P_3+3 0.436417 0.156223 0.105248 0.979894
P8    P     P_3+3 0.434571 0.844977 0.603814 0.938417
P9    P     P_3+3 0.893960 0.552110 0.540050 0.988384
P10   P     P_3+3 0.393960 0.947890 0.040050 0.987076
P11   P     P_3+3 0.393960 0.052110 0.540050 0.988465
P12   P     P_3+3 0.105800 0.447360 0.649510 0.983949
P13   P     P_3+3 0.105800 0.552640 0.149510 0.983905
P14   P     P_3+3 0.605800 0.947360 0.649510 0.983927
P15   P     P_3+3 0.605800 0.052640 0.149510 0.983814
P16   P     P_3+3 0.063943 0.344281 0.083978 0.957818

loop_
_geom_bond_atom_site_label_1
_geom_bond_atom_site_label_2
_ccdc_geom_bond_type
Ba4   O8    S    
C17   H39   S    
C100  H11   S    
C96   H3    S    
C100  O50   S    
C15   C16   S    
C3    C51   S    
C59   C94   S    
C110  H59   S    
C70   C88   A    
C20   H47   S    
O14   P6    S    
C72   C90   A    
C46   C86   S    
Ba1   P1    S    
C66   C70   A    
C40   H79   S    
C57   H129  S    
O31   P12   D    
C16   H34   S    
C37   C39   A    
O2    P2    S    
Ba4   O34   S    
C57   H134  S    
C116  H64   S    
C25   C65   S    
C21   C25   A    
C23   C27   A    
C24   C28   A    
C17   H37   S    
C1    H121  S    
O28   P5    S    
C110  H63   S    
C100  H16   S    
Ba4   O39   S    
O18   P6    D    
O19   P5    D    
C104  H49   S    
C44   C83   S    
C29   H122  S    
C5    C73   A    
C62   C106  A    
O25   P10   S    
C19   H43   S    
C6    H127  S    
C114  O27   S    
C11   H25   S    
C71   C89   A    
C95   P11   S    
Ba2   O5    S    
Ba4   P15   S    
C92   H138  S    
C81   C86   A    
O24   P9    S    
C112  H61   S    
C40   Cl3   S    
O8    P14   S    
C45   C49   A    
O34   P11   D    
C60   H137  S    
C12   H27   S    
C38   C65   A    
C39   H85   S    
O16   P8    S    
C111  H65   S    
C97   H8    S    
C94   H140  S    
C54   C63   A    
C44   C48   A    
C16   C17   S    
C16   H36   S    
C18   C19   S    
C99   C103  S    
C115  H53   S    
C76   C89   A    
O45   P12   S    
C104  H24   S    
O7    P15   S    
Ba1   O36   S    
C111  H60   S    
C57   C92   S    
C6    C84   A    
C24   C64   S    
C113  H62   S    
C1    H77   S    
C96   O48   S    
Ba3   O13   S    
Ba1   O5    S    
C15   O47   S    
O29   P8    S    
Ba3   O7    S    
C8    H17   S    
C7    C95   A    
C9    H20   S    
C66   H107  S    
Ba3   O33   S    
C40   H123  S    
C8    O44   S    
O33   P14   D    
O23   P10   D    
C109  H58   S    
C36   C63   A    
C5    C32   A    
C107  O24   S    
C17   H38   S    
C14   H30   S    
C27   H113  S    
C112  H70   S    
C93   O46   S    
C9    C10   S    
C108  O25   S    
C102  H46   S    
C66   C83   A    
C49   C56   A    
C58   H131  S    
C84   P10   S    
O39   P4    S    
C93   H139  S    
C10   H23   S    
C74   P3    S    
C50   H101  S    
C113  H71   S    
C80   H82   S    
C58   C93   S    
C68   C86   A    
C59   H132  S    
C21   H98   S    
C28   C33   A    
Ba1   O10   S    
C105  C110  S    
C109  C113  S    
C105  O22   S    
C108  H52   S    
O5    P13   S    
C22   C26   A    
C51   H124  S    
C29   Cl2   S    
Ba3   Ba4   S    
C55   H105  S    
O51   P15   S    
C108  C112  S    
C60   H133  S    
C81   H83   S    
Ba3   P14   S    
C88   H116  S    
O41   P2    D    
C27   C32   A    
Ba4   O11   S    
C108  H57   S    
C7    H128  S    
C1    C114  S    
C18   H40   S    
C98   H9    S    
C79   H81   S    
C89   H117  S    
C58   O2    S    
C77   C90   A    
C56   C65   A    
O12   P9    D    
C104  H119  S    
C52   C54   A    
C67   H109  S    
C23   C63   S    
C38   C41   A    
C53   H103  S    
C62   P1    S    
C8    C9    S    
O22   P1    S    
C94   O47   S    
O11   P10   S    
C31   P6    S    
C26   H112  S    
C70   P2    S    
O26   P11   S    
C77   C81   A    
C50   C53   A    
C79   C83   A    
C71   P16   S    
C35   C61   A    
O40   P16   D    
O17   P7    S    
C76   C80   A    
Ba3   O23   S    
C10   H21   S    
C46   C50   A    
C56   H106  S    
C99   H10   S    
C82   C87   A    
O4    P4    S    
C102  H97   S    
C40   C116  S    
C29   H78   S    
C92   H4    S    
O49   P13   S    
C3    H76   S    
C78   P14   S    
C113  H67   S    
O9    P1    S    
C21   C95   A    
C116  H74   S    
C78   C91   A    
C114  H1    S    
C114  H72   S    
Ba3   O38   S    
C91   H120  S    
Ba4   O7    S    
C109  H54   S    
C77   P15   S    
C103  H108  S    
C15   H32   S    
C22   C61   S    
C101  H130  S    
C3    O30   S    
C37   C64   A    
C103  H48   S    
O35   P15   D    
Ba2   O6    S    
Ba1   O31   S    
C76   P12   S    
Ba2   O32   S    
C60   O4    S    
C82   H84   S    
C105  H50   S    
C43   C47   A    
O27   P6    S    
C109  O26   S    
C78   C82   A    
C25   C30   A    
O52   P16   S    
C115  O28   S    
C103  H13   S    
C7    C34   A    
C41   C45   A    
C74   C91   A    
C94   H6    S    
C12   H28   S    
C30   H115  S    
C13   H96   S    
C107  H56   S    
O1    P1    D    
C33   P8    S    
C100  C104  S    
C41   H87   S    
C10   H22   S    
C51   Cl4   S    
C20   H44   S    
C115  H73   S    
O6    P12   S    
O43   P4    D    
C53   C61   A    
Ba2   P9    S    
C102  H2    S    
O38   P3    S    
O15   P5    S    
Ba1   O14   S    
Ba2   O9    S    
C75   C79   A    
Ba3   O16   S    
C101  H35   S    
C28   H114  S    
C51   H80   S    
C43   H89   S    
C8    H18   S    
C5    H126  S    
C9    H19   S    
Ba2   O37   S    
C69   H111  S    
Ba1   P12   S    
C101  H86   S    
C11   O46   S    
C60   C96   S    
Ba3   P10   S    
C48   H99   S    
C18   O48   S    
C4    C31   A    
C11   H26   S    
C14   H31   S    
C36   C43   A    
C4    C62   A    
C13   C84   A    
C68   C72   A    
C38   H93   S    
C96   H7    S    
C99   O51   S    
C49   H100  S    
Ba2   P13   S    
C26   C31   A    
O13   P11   S    
C6    C33   A    
C107  H51   S    
O20   P8    D    
C116  O29   S    
C47   C52   A    
O3    P3    S    
C11   C12   S    
C1    Cl1   S    
O37   P2    S    
O32   P13   D    
Ba1   Ba2   S    
C98   H14   S    
O36   P16   S    
O21   P7    D    
C18   H41   S    
C69   C74   A    
Ba4   O35   S    
C39   C44   A    
C22   C106  A    
O10   P9    S    
C111  H69   S    
C47   C87   S    
O42   P3    D    
C57   O52   S    
C97   C101  S    
C4    H125  S    
C110  H68   S    
C15   H33   S    
C34   P7    S    
C69   C87   A    
Ba2   O15   S    
C37   H92   S    
C2    C73   A    
Ba1   O6    S    
C98   O45   S    
Ba4   P11   S    
Ba3   O8    S    
C75   P13   S    
C48   C55   A    
C99   H15   S    
C55   C64   A    
C19   H42   S    
C105  H55   S    
C2    C23   A    
C67   C85   A    
C19   C20   S    
Ba4   O17   S    
O30   P7    S    
C20   H45   S    
C75   C88   A    
C14   H29   S    
C35   C42   A    
C97   O49   S    
C29   C115  S    
C80   C85   A    
C54   H104  S    
O50   P14   S    
C97   H12   S    
C112  H66   S    
C35   H90   S    
C30   C34   A    
C13   C24   A    
C73   P9    S    
C45   C85   S    
C72   P4    S    
C42   C46   A    
C52   H102  S    
C90   H118  S    
C93   H5    S    
C59   H136  S    
C92   O44   S    
C67   C71   A    
C42   H88   S    
C58   H135  S    
C36   H91   S    
C68   H110  S    
C98   C102  S    
C3    H75   S    
C106  H94   S    
Ba2   O12   S    
C2    H95   S    
Ba1   O1    S    
C12   C14   S    
C32   P5    S    
C107  C111  S    
C59   O3    S    
