data_mof_unit_588.cif
_audit_creation_date              2012-12-11T16:32:28-0500
_audit_creation_method            fapswitch 2.2
_symmetry_space_group_name_H-M    P1
_symmetry_Int_Tables_number       1
_space_group_crystal_system       triclinic
_cell_length_a                    6.956843
_cell_length_b                    14.20112
_cell_length_c                    16.20415
_cell_angle_alpha                 90.21529
_cell_angle_beta                  89.482039
_cell_angle_gamma                 90.59903
_cell_volume                      1600.72474119

loop_
_atom_site_label
_atom_site_type_symbol
_atom_type_description
_atom_site_fract_x
_atom_site_fract_y
_atom_site_fract_z
_atom_type_partial_charge
O1    O     O_R   0.361630 0.167340 0.164570 -0.543938
O2    O     O_R   0.638370 0.832660 0.835430 -0.543513
O3    O     O_R   0.690860 0.157560 0.338690 -0.541406
O4    O     O_R   0.309140 0.842440 0.661310 -0.544210
O5    O     O_R   0.861260 0.336420 0.339380 -0.513303
O6    O     O_R   0.138740 0.663580 0.660620 -0.514289
C1    C     C_R   0.520571 0.133963 0.367365 0.713198
C2    C     C_R   0.479024 0.865019 0.632207 0.720051
O7    O     O_R   0.691330 0.156310 0.165190 -0.542523
O8    O     O_R   0.308670 0.843690 0.834810 -0.543981
O9    O     O_R   0.861730 0.335160 0.164640 -0.546213
O10   O     O_R   0.138270 0.664840 0.835360 -0.545179
C3    C     C_R   0.522124 0.131288 0.138853 0.684624
C4    C     C_R   0.477853 0.865889 0.863553 0.683305
O11   O     O_R   0.361150 0.168600 0.339320 -0.545147
O12   O     O_R   0.638850 0.831400 0.660680 -0.542007
O13   O     O_3   0.527950 0.310560 0.252000 -0.352989
O14   O     O_3   0.472050 0.689440 0.748000 -0.357459
V1    V     V_3+5 0.802770 0.240990 0.251980 1.447472
V2    V     V_3+5 0.197230 0.759010 0.748020 1.454894
O15   O     O_R   0.191450 0.346190 0.165260 -0.524844
O16   O     O_R   0.808550 0.653810 0.834740 -0.529215
C5    C     C_R   0.024492 0.370890 0.138580 0.790744
C6    C     C_R   0.975877 0.629697 0.861804 0.798524
O17   O     O_R   0.190980 0.347440 0.338770 -0.532148
O18   O     O_R   0.809020 0.652560 0.661230 -0.532441
C7    C     C_R   0.021510 0.373206 0.364454 0.780172
C8    C     C_R   0.977374 0.632039 0.631331 0.779036
V3    V     V_3+5 0.302780 0.262760 0.251980 1.464013
V4    V     V_3+5 0.697220 0.737240 0.748020 1.467846
O19   O     O_3   0.027730 0.193200 0.251960 -0.388562
O20   O     O_3   0.972270 0.806800 0.748040 -0.385409
C9    C     C_3   0.832170 0.462869 0.485967 0.432840
C10   C     C_3   0.162559 0.549891 0.503970 0.427211
C11   C     C_3   0.953858 0.457295 0.564363 -0.248706
C12   C     C_3   0.040420 0.554742 0.425395 -0.258679
H1    H     H_    0.912792 0.413201 0.617705 0.170656
H2    H     H_    0.076591 0.597499 0.370578 0.174949
C13   C     C_3   0.985810 0.565213 0.559211 -0.077308
C14   C     C_3   0.009467 0.446602 0.431420 -0.070794
C15   C     C_3   0.859643 0.570579 0.481045 -0.250518
C16   C     C_3   0.135138 0.442474 0.509147 -0.248579
H3    H     H_    0.745529 0.622815 0.469785 0.141466
H4    H     H_    0.252749 0.392404 0.516781 0.150112
C17   C     C_R   0.991264 0.696875 0.027069 -0.228989
C18   C     C_R   0.029598 0.304127 0.972081 -0.227203
C19   C     C_R   0.024096 0.735277 0.104275 -0.222545
C20   C     C_R   0.020835 0.267035 0.892855 -0.223918
C21   C     C_R   0.071834 0.677888 0.170989 0.376769
C22   C     C_R   0.983421 0.325257 0.825751 0.388399
C23   C     C_R   0.081858 0.579127 0.158827 0.245337
C24   C     C_R   0.951426 0.422153 0.839238 0.235667
C25   C     C_R   0.031863 0.537917 0.081161 -0.012697
C26   C     C_R   0.982154 0.463023 0.918608 -0.015923
C27   C     C_R   0.000118 0.598888 0.013140 -0.014296
C28   C     C_R   0.010643 0.401838 0.986794 -0.013303
C29   C     C_R   0.023003 0.438348 0.068266 -0.116923
C30   C     C_R   0.980331 0.562314 0.932060 -0.119823
H5    H     H_    0.960313 0.745815 0.978027 0.133966
H6    H     H_    0.054671 0.254957 0.021591 0.136076
H7    H     H_    0.019903 0.810916 0.110345 0.145314
H8    H     H_    0.034251 0.191728 0.884461 0.149269
C31   C     C_3   0.320660 0.032356 0.485517 -0.233658
C32   C     C_3   0.676646 0.964816 0.513703 -0.225039
C33   C     C_3   0.383559 0.928619 0.480268 0.419728
C34   C     C_3   0.614002 0.068589 0.519369 0.421232
H9    H     H_    0.173044 0.057935 0.474273 0.119346
H10   H     H_    0.824108 0.939419 0.525661 0.114733
C35   C     C_3   0.491514 0.936388 0.562030 -0.112429
C36   C     C_3   0.506473 0.061188 0.437107 -0.117983
C37   C     C_3   0.431129 0.040948 0.568716 -0.205595
C38   C     C_3   0.565713 0.956027 0.430551 -0.215120
H11   H     H_    0.374686 0.073795 0.626015 0.108231
H12   H     H_    0.612026 0.917821 0.374136 0.116101
H13   H     H_    0.532278 0.805022 0.240900 0.126365
H14   H     H_    0.619047 0.186343 0.766389 0.163117
C39   C     C_R   0.530793 0.193627 0.970718 -0.137413
C40   C     C_R   0.493314 0.801970 0.032656 -0.148396
C41   C     C_R   0.560247 0.225787 0.890792 -0.105669
C42   C     C_R   0.508651 0.768659 0.112988 -0.074218
C43   C     C_R   0.576416 0.161830 0.826250 -0.130322
C44   C     C_R   0.523087 0.831534 0.178563 -0.125843
C45   C     C_R   0.544736 0.066122 0.839249 -0.165537
C46   C     C_R   0.523239 0.928347 0.164536 -0.188170
C47   C     C_R   0.513743 0.031285 0.919718 0.069971
C48   C     C_R   0.509746 0.964303 0.083713 0.073647
C49   C     C_R   0.516314 0.096064 0.987154 0.058498
C50   C     C_R   0.495617 0.899728 0.016249 0.056306
C51   C     C_R   0.490639 0.933452 0.934076 -0.179406
C52   C     C_R   0.512568 0.062744 0.069209 -0.177391
H15   H     H_    0.527201 0.245852 0.019497 0.111750
H16   H     H_    0.482337 0.750273 0.983637 0.108748
H17   H     H_    0.579180 0.300389 0.879463 0.120511
H18   H     H_    0.508374 0.693601 0.124462 0.123018
H19   H     H_    0.553714 0.019601 0.786311 0.097548
H20   H     H_    0.533259 0.974574 0.217598 0.084584
O21   O     O_3   0.656345 0.416413 0.475414 -0.638491
H21   H     H_    0.568062 0.447324 0.514993 0.288440
O22   O     O_3   0.338140 0.596985 0.514360 -0.639257
H22   H     H_    0.405894 0.591329 0.460555 0.284568
O23   O     O_3   0.955309 0.287757 0.747529 -0.584953
C53   C     C_3   0.124516 0.245335 0.716225 0.074814
H23   H     H_    0.084217 0.209461 0.657725 0.170616
H24   H     H_    0.178665 0.189206 0.757324 0.108680
C54   C     C_3   0.283863 0.318539 0.697902 -0.379384
H25   H     H_    0.220045 0.384885 0.675823 0.226506
H26   H     H_    0.362430 0.335241 0.755577 0.182915
C55   C     C_3   0.426102 0.283263 0.632754 -0.742820
H27   H     H_    0.497431 0.219029 0.653035 0.245783
H28   H     H_    0.538200 0.337769 0.621383 0.245756
H29   H     H_    0.352342 0.264822 0.574490 0.226316
O24   O     O_3   0.131760 0.716078 0.245945 -0.587452
C56   C     C_3   0.009130 0.787733 0.276222 0.079469
H30   H     H_    0.975075 0.771241 0.341750 0.157660
H31   H     H_    0.868882 0.791164 0.244355 0.098606
C57   C     C_3   0.112791 0.883422 0.272928 -0.286612
H32   H     H_    0.253199 0.878160 0.304241 0.232935
H33   H     H_    0.140015 0.904355 0.208085 0.186677
C58   C     C_3   0.997010 0.960682 0.314694 -0.794675
H34   H     H_    0.861941 0.972781 0.280631 0.218687
H35   H     H_    0.082860 0.026847 0.314971 0.243451
H36   H     H_    0.963948 0.941524 0.379549 0.226308
O25   O     O_3   0.149581 0.522740 0.221001 -0.662200
H37   H     H_    0.241508 0.559469 0.254901 0.304169
O26   O     O_3   0.883745 0.476498 0.775816 -0.662280
H38   H     H_    0.794195 0.437298 0.742811 0.298196
O27   O     O_3   0.263313 0.852713 0.459937 -0.649399
H39   H     H_    0.153532 0.855888 0.499215 0.273972
O28   O     O_3   0.736594 0.142958 0.541484 -0.648290
H40   H     H_    0.844552 0.141179 0.501201 0.277117

loop_
_geom_bond_atom_site_label_1
_geom_bond_atom_site_label_2
_ccdc_geom_bond_type
C31   C33   S    
O23   C53   S    
C3    C52   S    
C38   H12   S    
C23   O25   S    
C10   C16   S    
O4    C2    A    
V1    O19   S    
C1    C36   S    
O21   H21   S    
O25   H37   S    
C19   C21   A    
C55   H27   S    
C54   H26   S    
O9    V1    S    
C2    C35   S    
C33   O27   S    
C11   H1    S    
C46   C48   A    
C41   H17   S    
O3    C1    A    
V2    O20   S    
C40   C42   A    
O12   V4    S    
O13   V3    S    
C28   C29   A    
C53   C54   S    
C46   H20   S    
C17   C19   A    
C35   C37   S    
C11   C16   S    
O7    C3    A    
C9    C11   S    
O5    C7    A    
O7    V1    S    
O6    C8    A    
O22   H22   S    
O8    V2    S    
C21   C23   A    
C22   C24   A    
O3    V1    S    
O14   V4    S    
O14   V2    S    
C56   C57   S    
C25   C27   A    
C2    O12   A    
C15   H3    S    
C12   C15   S    
C16   H4    S    
O24   C56   S    
C43   C45   A    
C24   C26   A    
O11   V3    S    
C18   C20   A    
C58   H35   S    
O17   V3    S    
C54   C55   S    
C31   H9    S    
C9    C14   S    
C48   C50   A    
C10   C13   S    
C6    C30   S    
C12   C14   S    
C13   C15   S    
O8    C4    A    
C37   H11   S    
C25   C29   A    
C1    O11   A    
C8    C13   S    
C40   H16   S    
O15   V3    S    
C23   C25   A    
C32   C34   S    
C11   C13   S    
C4    C51   S    
C20   H8    S    
C34   C37   S    
C31   C36   S    
C7    C14   S    
C24   O26   S    
C45   H19   S    
O10   V2    S    
O1    V3    S    
C10   O22   S    
C39   C41   A    
H13   C44   S    
C32   C35   S    
C53   H24   S    
C20   C22   A    
C39   C49   A    
C21   O24   S    
C42   C44   A    
C45   C47   A    
C31   C37   S    
O18   V4    S    
C44   C46   A    
O15   C5    A    
C48   C52   A    
O26   H38   S    
O16   C6    A    
C27   C30   A    
O1    C3    A    
C42   H18   S    
O27   H39   S    
C32   H10   S    
C41   C43   A    
C56   H30   S    
C26   C30   A    
C58   H36   S    
C40   C50   A    
C5    C29   S    
C39   H15   S    
C47   C51   A    
O16   V4    S    
C18   H6    S    
C14   C16   S    
H14   C43   S    
C19   H7    S    
C58   H34   S    
C57   C58   S    
C26   C28   A    
O5    V1    S    
O17   C7    A    
C33   C38   S    
O6    V2    S    
C54   H25   S    
O10   C6    A    
O18   C8    A    
C55   H29   S    
O2    V4    S    
C9    C15   S    
C34   O28   S    
C12   H2    S    
O28   H40   S    
V3    O19   S    
V4    O20   S    
C34   C36   S    
C55   H28   S    
C33   C35   S    
O9    C5    A    
O13   V1    S    
C57   H33   S    
C57   H32   S    
C10   C12   S    
C32   C38   S    
C53   H23   S    
O2    C4    A    
O4    V2    S    
C47   C49   A    
C50   C51   A    
C17   C27   A    
C22   O23   S    
C17   H5    S    
C49   C52   A    
C18   C28   A    
C36   C38   S    
C9    O21   S    
C56   H31   S    
