data_mof_unit_193.cif
_audit_creation_date              2012-12-11T15:22:45-0500
_audit_creation_method            fapswitch 2.2
_symmetry_space_group_name_H-M    P1
_symmetry_Int_Tables_number       1
_space_group_crystal_system       triclinic
_cell_length_a                    22.459402
_cell_length_b                    12.981756
_cell_length_c                    26.972822
_cell_angle_alpha                 90.071959
_cell_angle_beta                  90.534676
_cell_angle_gamma                 90.265828
_cell_volume                      7863.82908814

loop_
_atom_site_label
_atom_site_type_symbol
_atom_type_description
_atom_site_fract_x
_atom_site_fract_y
_atom_site_fract_z
_atom_type_partial_charge
C1    C     C_R   0.720482 0.345035 0.178223 0.544906
C2    C     C_R   0.485172 0.254197 0.896881 -0.147703
C3    C     C_R   0.009487 0.586245 0.555112 -0.119039
C4    C     C_R   0.502613 0.082804 0.394330 -0.128180
C5    C     C_R   0.497311 0.083326 0.605654 -0.127979
C6    C     C_R   0.002611 0.582805 0.394329 -0.128173
C7    C     C_R   0.997309 0.583325 0.605653 -0.127978
C8    C     C_R   0.740004 0.955514 0.371662 0.025397
C9    C     C_R   0.259818 0.955534 0.628310 0.024767
C10   C     C_R   0.240013 0.455495 0.371656 0.025399
C11   C     C_R   0.759815 0.455528 0.628311 0.024772
C12   C     C_R   0.689602 0.921101 0.397323 -0.125809
C13   C     C_R   0.025180 0.758682 0.102777 -0.125825
C14   C     C_R   0.310152 0.921363 0.602688 -0.125657
C15   C     C_R   0.189619 0.421031 0.397313 -0.125804
C16   C     C_R   0.810148 0.421348 0.602690 -0.125653
C17   C     C_R   0.692645 0.905506 0.447968 -0.123063
C18   C     C_R   0.307199 0.906003 0.552022 -0.123021
C19   C     C_R   0.192664 0.405425 0.447957 -0.123057
C20   C     C_R   0.807194 0.405983 0.552025 -0.123018
C21   C     C_R   0.746548 0.920834 0.473484 0.037882
C22   C     C_R   0.253429 0.921205 0.526446 0.038022
C23   C     C_R   0.246561 0.420796 0.473477 0.037886
C24   C     C_R   0.985492 0.754001 0.896832 -0.147892
C25   C     C_R   0.753425 0.421190 0.526449 0.038023
C26   C     C_R   0.798296 0.945613 0.447111 -0.120302
C27   C     C_R   0.201689 0.945613 0.552756 -0.120128
C28   C     C_R   0.298303 0.445620 0.447107 -0.120302
C29   C     C_R   0.701685 0.445606 0.552758 -0.120123
C30   C     C_R   0.794951 0.963722 0.396399 -0.129390
C31   C     C_R   0.204960 0.963565 0.603501 -0.129213
C32   C     C_R   0.294957 0.463738 0.396397 -0.129384
C33   C     C_R   0.704958 0.463562 0.603503 -0.129202
C34   C     C_R   0.784219 0.979870 0.555875 -0.119950
C35   C     C_R   0.512009 0.259790 0.051977 0.020354
C36   C     C_R   0.216215 0.980227 0.444112 -0.120049
C37   C     C_R   0.284211 0.479859 0.555871 -0.119947
C38   C     C_R   0.716214 0.480219 0.444115 -0.120049
C39   C     C_R   0.721220 0.347261 0.321687 0.543519
C40   C     C_R   0.278800 0.347253 0.678289 0.552770
C41   C     C_R   0.221220 0.847262 0.321686 0.543529
C42   C     C_R   0.778799 0.847256 0.678290 0.552786
C43   C     C_R   0.790523 0.964706 0.606634 -0.129144
C44   C     C_R   0.209932 0.964982 0.393341 -0.129159
C45   C     C_R   0.290513 0.464702 0.606630 -0.129154
C46   C     C_R   0.494802 0.256771 0.948384 0.004426
C47   C     C_R   0.709932 0.464977 0.393343 -0.129164
C48   C     C_R   0.719901 0.822801 0.601879 -0.126462
C49   C     C_R   0.280067 0.823478 0.398028 -0.126265
C50   C     C_R   0.219923 0.322750 0.601871 -0.126453
C51   C     C_R   0.780061 0.323464 0.398031 -0.126260
C52   C     C_R   0.714754 0.836302 0.551191 -0.123094
C53   C     C_R   0.285162 0.837018 0.448718 -0.123316
C54   C     C_R   0.214780 0.336242 0.551182 -0.123096
C55   C     C_R   0.785154 0.337000 0.448721 -0.123316
C56   C     C_R   0.748303 0.912743 0.527587 0.037682
C57   C     C_R   0.012353 0.759783 0.051921 0.020127
C58   C     C_R   0.251816 0.913253 0.472355 0.037786
C59   C     C_R   0.248314 0.412705 0.527580 0.037680
C60   C     C_R   0.751811 0.413239 0.472358 0.037785
C61   C     C_R   0.760145 0.883406 0.629493 0.023997
C62   C     C_R   0.240027 0.883768 0.370455 0.025067
C63   C     C_R   0.260149 0.383386 0.629488 0.024000
C64   C     C_R   0.740025 0.383761 0.370456 0.025069
C65   C     C_R   0.554351 0.158843 0.321633 0.543334
C66   C     C_R   0.445652 0.158995 0.678367 0.545870
C67   C     C_R   0.054351 0.658844 0.321633 0.543335
C68   C     C_R   0.995119 0.756632 0.948337 0.004491
C69   C     C_R   0.945652 0.658995 0.678367 0.545867
C70   C     C_R   0.731653 0.001836 0.322926 0.544741
C71   C     C_R   0.268282 0.001932 0.677080 0.546441
C72   C     C_R   0.231654 0.501833 0.322925 0.544741
C73   C     C_R   0.768282 0.501931 0.677081 0.546454
C74   C     C_R   0.503353 0.075045 0.105918 -0.130857
C75   C     C_R   0.469630 0.068921 0.901128 -0.129801
C76   C     C_R   0.003024 0.575297 0.106006 -0.130951
C77   C     C_R   0.969078 0.568955 0.901245 -0.129725
C78   C     C_R   0.491345 0.074569 0.055224 0.014372
C79   C     C_R   0.497066 0.166706 0.027850 0.060364
C80   C     C_R   0.476988 0.070803 0.952203 0.006462
C81   C     C_R   0.990939 0.574816 0.055320 0.014463
C82   C     C_R   0.976457 0.570914 0.952313 0.006406
C83   C     C_R   0.470193 0.980120 0.979772 -0.132826
C84   C     C_R   0.477029 0.982104 0.031063 -0.134811
C85   C     C_R   0.969276 0.480411 0.979953 -0.132638
C86   C     C_R   0.976192 0.482461 0.031237 -0.134557
C87   C     C_R   0.489525 0.164909 0.976128 0.053079
C88   C     C_R   0.997013 0.666802 0.027874 0.060372
C89   C     C_R   0.294868 0.305510 0.826758 0.551416
C90   C     C_R   0.989433 0.664933 0.976156 0.053043
C91   C     C_R   0.516961 0.350970 0.024332 -0.091030
C92   C     C_R   0.507952 0.349598 0.972928 -0.102758
C93   C     C_R   0.017693 0.850807 0.024206 -0.091981
C94   C     C_R   0.008682 0.849372 0.972805 -0.103166
C95   C     C_R   0.743597 0.946599 0.132551 -0.037462
C96   C     C_R   0.264786 0.978311 0.873772 -0.027501
C97   C     C_R   0.243560 0.446597 0.132541 -0.037470
C98   C     C_R   0.764813 0.478382 0.873785 -0.027433
C99   C     C_R   0.799796 0.955288 0.110450 -0.082850
C100  C     C_R   0.220475 0.845021 0.178219 0.544876
C101  C     C_R   0.240687 0.052753 0.905368 -0.088493
C102  C     C_R   0.299861 0.454679 0.110564 -0.082961
C103  C     C_R   0.740854 0.552955 0.905384 -0.088372
C104  C     C_R   0.808639 0.920983 0.062066 0.365959
C105  C     C_R   0.243220 0.040345 0.956174 0.357318
C106  C     C_R   0.308719 0.420341 0.062179 0.366172
C107  C     C_R   0.743412 0.540578 0.956193 0.357421
C108  C     C_R   0.761187 0.876856 0.034889 0.050042
C109  C     C_R   0.267150 0.949995 0.976595 0.036024
C110  C     C_R   0.261168 0.376875 0.034876 0.050096
C111  C     C_R   0.794844 0.805561 0.826763 0.551399
C112  C     C_R   0.767217 0.450132 0.976618 0.036116
C113  C     C_R   0.705967 0.862660 0.057964 -0.151247
C114  C     C_R   0.292576 0.875915 0.945238 -0.178717
C115  C     C_R   0.205824 0.363297 0.057824 -0.151318
C116  C     C_R   0.792510 0.375920 0.945254 -0.178806
C117  C     C_R   0.553314 0.157458 0.177789 0.547464
C118  C     C_R   0.445930 0.157038 0.822773 0.534842
C119  C     C_R   0.053319 0.657471 0.177790 0.547429
C120  C     C_R   0.945919 0.657025 0.822778 0.534833
C121  C     C_R   0.697250 0.896976 0.106420 -0.153391
C122  C     C_R   0.471050 0.160536 0.873296 -0.014942
C123  C     C_R   0.292310 0.890961 0.893899 -0.152419
C124  C     C_R   0.197101 0.397578 0.106282 -0.153264
C125  C     C_R   0.792230 0.390933 0.893912 -0.152558
C126  C     C_R   0.724934 0.887822 0.947128 -0.106122
C127  C     C_R   0.304445 0.886087 0.059108 -0.118975
C128  C     C_R   0.225244 0.388786 0.947064 -0.106818
C129  C     C_R   0.804450 0.385934 0.059099 -0.118915
C130  C     C_R   0.733122 0.872354 0.896379 -0.111941
C131  C     C_R   0.293543 0.862534 0.108833 -0.126341
C132  C     C_R   0.233444 0.373265 0.896321 -0.111680
C133  C     C_R   0.523368 0.165346 0.129363 -0.004700
C134  C     C_R   0.793538 0.362346 0.108818 -0.126333
C135  C     C_R   0.826149 0.785682 0.913939 -0.140023
C136  C     C_R   0.193379 0.929687 0.099838 -0.127196
C137  C     C_R   0.325883 0.284803 0.913973 -0.140236
C138  C     C_R   0.693523 0.430195 0.099923 -0.127358
C139  C     C_R   0.818047 0.800645 0.964576 -0.004691
C140  C     C_R   0.203609 0.950090 0.050501 -0.065592
C141  C     C_R   0.317786 0.299893 0.964608 -0.004447
C142  C     C_R   0.703759 0.450646 0.050588 -0.065690
C143  C     C_R   0.767788 0.853328 0.981608 0.103391
C144  C     C_R   0.970955 0.660443 0.873328 -0.014974
C145  C     C_R   0.259127 0.929270 0.029633 0.064954
C146  C     C_R   0.267805 0.353435 0.981589 0.102930
C147  C     C_R   0.759205 0.429469 0.029669 0.065018
C148  C     C_R   0.784415 0.822695 0.879608 0.014772
C149  C     C_R   0.237579 0.883547 0.129314 0.023144
C150  C     C_R   0.284441 0.322642 0.879602 0.014958
C151  C     C_R   0.737635 0.383658 0.129344 0.023047
C152  C     C_R   0.527681 0.168888 0.370903 0.023205
C153  C     C_R   0.472308 0.169178 0.629090 0.022500
C154  C     C_R   0.027680 0.668888 0.370902 0.023205
C155  C     C_R   0.023383 0.665453 0.129370 -0.004672
C156  C     C_R   0.972307 0.669177 0.629090 0.022495
C157  C     C_R   0.536961 0.259954 0.398172 -0.125953
C158  C     C_R   0.463070 0.259968 0.601823 -0.126117
C159  C     C_R   0.036960 0.759954 0.398171 -0.125952
C160  C     C_R   0.963069 0.759968 0.601823 -0.126118
C161  C     C_R   0.525608 0.262447 0.448754 -0.121383
C162  C     C_R   0.474401 0.262353 0.551236 -0.121314
C163  C     C_R   0.025606 0.762447 0.448754 -0.121385
C164  C     C_R   0.974400 0.762353 0.551236 -0.121314
C165  C     C_R   0.731561 0.000968 0.179486 0.549052
C166  C     C_R   0.524834 0.258673 0.102840 -0.125775
C167  C     C_R   0.269373 0.004776 0.821400 0.534688
C168  C     C_R   0.231557 0.500969 0.179483 0.549006
C169  C     C_R   0.769375 0.504780 0.821402 0.534698
C170  C     C_R   0.503796 0.174504 0.472852 0.036604
C171  C     C_R   0.496146 0.174590 0.527131 0.036562
C172  C     C_R   0.003793 0.674505 0.472851 0.036602
C173  C     C_R   0.996143 0.674590 0.527130 0.036561
C174  C     C_R   0.490407 0.085823 0.444866 -0.119105
C175  C     C_R   0.509490 0.086246 0.555113 -0.119039
C176  C     C_R   0.990404 0.585824 0.444865 -0.119101
Cr1   Cr    Cr6+3 0.756570 0.170940 0.251190 1.015255
Cr2   Cr    Cr6+3 0.374010 0.036240 0.749520 1.008941
Cr3   Cr    Cr6+3 0.125990 0.536240 0.250480 1.014117
Cr4   Cr    Cr6+3 0.874010 0.536240 0.749520 1.009007
Cr5   Cr    Cr6+3 0.243430 0.170940 0.748810 1.013940
Cr6   Cr    Cr6+3 0.256570 0.670940 0.251190 1.015249
Cr7   Cr    Cr6+3 0.743430 0.670940 0.748810 1.013851
Cr8   Cr    Cr6+3 0.623740 0.299110 0.249580 1.014460
Cr9   Cr    Cr6+3 0.376260 0.299110 0.750420 1.014228
Cr10  Cr    Cr6+3 0.123740 0.799110 0.249580 1.014510
Cr11  Cr    Cr6+3 0.876260 0.799110 0.750420 1.014311
Cr12  Cr    Cr6+3 0.625990 0.036240 0.250480 1.014048
F1    F     F_    0.862345 0.937929 0.040776 -0.659129
F2    F     F_    0.222238 0.117051 0.985422 -0.668806
F3    F     F_    0.362564 0.436609 0.041012 -0.659291
F4    F     F_    0.722576 0.617409 0.985438 -0.669115
H1    H     H_    0.458538 0.995974 0.883638 0.141346
H2    H     H_    0.311291 0.805751 0.960296 0.128059
H3    H     H_    0.168788 0.328978 0.037665 0.149310
H4    H     H_    0.811132 0.305679 0.960309 0.128245
H5    H     H_    0.653412 0.889243 0.122430 0.144257
H6    H     H_    0.312930 0.834570 0.870017 0.133318
H7    H     H_    0.153181 0.390333 0.122189 0.144504
H8    H     H_    0.812747 0.334434 0.870026 0.133348
H9    H     H_    0.556876 0.327295 0.381263 0.133501
H10   H     H_    0.443206 0.327116 0.618738 0.133475
H11   H     H_    0.056876 0.827295 0.381264 0.133506
H12   H     H_    0.501465 0.003168 0.126312 0.127219
H13   H     H_    0.943206 0.827117 0.618738 0.133473
H14   H     H_    0.528010 0.018509 0.537709 0.101326
H15   H     H_    0.471836 0.017916 0.462265 0.101060
H16   H     H_    0.028006 0.518508 0.537707 0.101335
H17   H     H_    0.971832 0.517917 0.462264 0.101064
H18   H     H_    0.504999 0.012523 0.625879 0.124038
H19   H     H_    0.494894 0.011787 0.374101 0.122983
H20   H     H_    0.004996 0.512522 0.625877 0.124051
H21   H     H_    0.994891 0.511788 0.374100 0.122990
H22   H     H_    0.536688 0.331684 0.469345 0.099152
H23   H     H_    0.957631 0.496094 0.883823 0.141531
H24   H     H_    0.463361 0.331328 0.530648 0.099238
H25   H     H_    0.036687 0.831684 0.469345 0.099154
H26   H     H_    0.963360 0.831329 0.530648 0.099236
H27   H     H_    0.646508 0.914345 0.379199 0.134002
H28   H     H_    0.353180 0.914702 0.620861 0.134711
H29   H     H_    0.146528 0.414243 0.379186 0.133988
H30   H     H_    0.853175 0.414683 0.620864 0.134711
H31   H     H_    0.808899 0.041765 0.538553 0.101216
H32   H     H_    0.191724 0.041992 0.461480 0.101112
H33   H     H_    0.308880 0.541770 0.538550 0.101219
H34   H     H_    0.000890 0.503516 0.126462 0.127117
H35   H     H_    0.691726 0.541986 0.461483 0.101117
H36   H     H_    0.821444 0.012744 0.627422 0.124060
H37   H     H_    0.179203 0.012821 0.372572 0.123359
H38   H     H_    0.321420 0.512763 0.627421 0.124042
H39   H     H_    0.679207 0.512822 0.372574 0.123344
H40   H     H_    0.459636 0.907652 0.961648 0.112290
H41   H     H_    0.472403 0.910981 0.051702 0.106679
H42   H     H_    0.958374 0.408024 0.961889 0.112392
H43   H     H_    0.971284 0.411463 0.051931 0.106703
H44   H     H_    0.652015 0.886923 0.467386 0.099094
H45   H     H_    0.864519 0.743761 0.901471 0.109202
H46   H     H_    0.347823 0.887713 0.532651 0.099066
H47   H     H_    0.152037 0.386804 0.467372 0.099090
H48   H     H_    0.847817 0.387685 0.532654 0.099067
H49   H     H_    0.686991 0.783110 0.530272 0.099053
H50   H     H_    0.312683 0.783950 0.469605 0.099160
H51   H     H_    0.187033 0.283028 0.530262 0.099058
H52   H     H_    0.812671 0.283926 0.469608 0.099167
H53   H     H_    0.696070 0.759086 0.618537 0.134941
H54   H     H_    0.303714 0.759876 0.381348 0.135096
H55   H     H_    0.196104 0.259019 0.618527 0.134961
H56   H     H_    0.149271 0.944854 0.113948 0.128288
H57   H     H_    0.803706 0.259859 0.381350 0.135106
H58   H     H_    0.840848 0.954249 0.465908 0.100311
H59   H     H_    0.159222 0.954107 0.533890 0.100424
H60   H     H_    0.340852 0.454288 0.465907 0.100303
H61   H     H_    0.659219 0.454104 0.533892 0.100422
H62   H     H_    0.834445 0.989387 0.377161 0.123320
H63   H     H_    0.165515 0.989012 0.622712 0.124055
H64   H     H_    0.334446 0.489441 0.377163 0.123317
H65   H     H_    0.665513 0.489016 0.622713 0.124054
H66   H     H_    0.485821 0.325086 0.875695 0.128306
H67   H     H_    0.364013 0.242154 0.901542 0.108789
H68   H     H_    0.539971 0.328897 0.120847 0.125371
H69   H     H_    0.986481 0.824793 0.875579 0.128137
H70   H     H_    0.040592 0.828799 0.120723 0.125444
H71   H     H_    0.511853 0.420870 0.952331 0.122127
H72   H     H_    0.528436 0.423077 0.042390 0.118058
H73   H     H_    0.012904 0.920520 0.952151 0.122214
H74   H     H_    0.029487 0.922829 0.042207 0.117731
H75   H     H_    0.836324 0.993226 0.129712 0.153229
H76   H     H_    0.221889 0.123364 0.890838 0.156257
H77   H     H_    0.336472 0.492134 0.129934 0.152983
H78   H     H_    0.649463 0.445627 0.114070 0.128397
H79   H     H_    0.722139 0.623626 0.890849 0.156069
H80   H     H_    0.685922 0.929083 0.959380 0.106253
H81   H     H_    0.347610 0.869336 0.043535 0.109893
H82   H     H_    0.186461 0.430732 0.959281 0.106339
H83   H     H_    0.847558 0.368902 0.043492 0.109761
H84   H     H_    0.700106 0.900530 0.870269 0.127690
H85   H     H_    0.328038 0.825840 0.130766 0.124680
H86   H     H_    0.200668 0.402118 0.870175 0.127684
H87   H     H_    0.827968 0.325359 0.130706 0.124783
H88   H     H_    0.850955 0.770961 0.990400 0.168151
H89   H     H_    0.669012 0.827820 0.037910 0.149496
H90   H     H_    0.167075 0.979412 0.028218 0.155876
H91   H     H_    0.350460 0.269598 0.990472 0.168062
H92   H     H_    0.667269 0.480247 0.028345 0.156017
O1    O     O_R   0.769900 0.064540 0.196060 -0.519674
O2    O     O_R   0.433710 0.069580 0.694600 -0.519331
O3    O     O_R   0.066290 0.569580 0.305400 -0.522830
O4    O     O_R   0.933710 0.569580 0.694600 -0.519311
O5    O     O_R   0.680760 0.993330 0.302620 -0.506739
O6    O     O_R   0.319240 0.993330 0.697380 -0.504023
O7    O     O_R   0.180760 0.493330 0.302620 -0.506714
O8    O     O_R   0.819240 0.493330 0.697380 -0.504014
O9    O     O_3   0.668770 0.168760 0.250420 -0.238754
O10   O     O_3   0.331230 0.168760 0.749580 -0.262693
O11   O     O_3   0.168770 0.668760 0.250420 -0.238793
O12   O     O_R   0.230100 0.064540 0.803940 -0.525286
O13   O     O_3   0.831230 0.668760 0.749580 -0.262665
O14   O     O_R   0.750800 0.274080 0.199250 -0.500892
O15   O     O_R   0.249200 0.274080 0.800750 -0.504845
O16   O     O_R   0.250800 0.774080 0.199250 -0.500866
O17   O     O_R   0.749200 0.774080 0.800750 -0.505000
O18   O     O_R   0.669990 0.371670 0.194150 -0.523822
O19   O     O_R   0.330010 0.371670 0.805850 -0.501544
O20   O     O_R   0.169990 0.871670 0.194150 -0.523825
O21   O     O_R   0.830010 0.871670 0.805850 -0.501398
O22   O     O_R   0.574600 0.238480 0.197800 -0.503166
O23   O     O_R   0.269900 0.564540 0.196060 -0.519573
O24   O     O_R   0.425400 0.238480 0.802200 -0.517099
O25   O     O_R   0.074600 0.738480 0.197800 -0.503232
O26   O     O_R   0.925400 0.738480 0.802200 -0.517078
O27   O     O_R   0.566130 0.068680 0.194240 -0.521805
O28   O     O_R   0.433870 0.068680 0.805760 -0.519462
O29   O     O_R   0.066130 0.568680 0.194240 -0.521759
O30   O     O_R   0.933870 0.568680 0.805760 -0.519438
O31   O     O_R   0.680610 0.992490 0.199570 -0.498270
O32   O     O_R   0.319390 0.992490 0.800430 -0.499247
O33   O     O_R   0.180610 0.492490 0.199570 -0.498277
O34   O     O_R   0.730100 0.564540 0.803940 -0.525262
O35   O     O_R   0.819390 0.492490 0.800430 -0.499273
O36   O     O_R   0.770060 0.065440 0.307230 -0.523202
O37   O     O_R   0.229940 0.065440 0.692770 -0.520425
O38   O     O_R   0.270060 0.565440 0.307230 -0.523228
O39   O     O_R   0.729940 0.565440 0.692770 -0.520424
O40   O     O_R   0.750960 0.274920 0.302300 -0.506880
O41   O     O_R   0.249040 0.274920 0.697700 -0.500719
O42   O     O_R   0.250960 0.774920 0.302300 -0.506883
O43   O     O_R   0.749040 0.774920 0.697700 -0.500719
O44   O     O_R   0.670160 0.372580 0.305320 -0.521510
O45   O     O_R   0.574760 0.239320 0.300850 -0.503663
O46   O     O_R   0.329840 0.372580 0.694680 -0.518519
O47   O     O_R   0.170160 0.872580 0.305320 -0.521484
O48   O     O_R   0.829840 0.872580 0.694680 -0.518509
O49   O     O_R   0.425240 0.239320 0.699150 -0.503007
O50   O     O_R   0.074760 0.739320 0.300850 -0.503649
O51   O     O_R   0.925240 0.739320 0.699150 -0.503010
O52   O     O_R   0.566290 0.069580 0.305400 -0.522841

loop_
_geom_bond_atom_site_label_1
_geom_bond_atom_site_label_2
_ccdc_geom_bond_type
C21   C26   A    
C34   C56   A    
Cr9   O49   S    
C132  C150  A    
C107  C112  A    
C123  H6    S    
C16   H30   S    
C120  C144  S    
Cr6   O11   S    
C136  C140  A    
C117  C133  S    
C79   C87   A    
C7    H20   S    
C135  C139  A    
C5    H18   S    
C89   O15   A    
C134  H87   S    
C126  H80   S    
C72   O7    A    
C97   C124  A    
C138  H78   S    
C95   C99   A    
C83   H40   S    
Cr11  O51   S    
C75   C122  A    
C29   C33   A    
C126  C143  A    
C27   H59   S    
Cr7   O17   S    
C115  H3    S    
Cr5   O12   S    
C142  H92   S    
C98   C169  S    
Cr7   O43   S    
C162  C171  A    
C107  F4    S    
Cr9   O24   S    
C68   C90   A    
C25   C60   S    
C29   H61   S    
C36   H32   S    
C49   H54   S    
C72   O38   A    
C14   H28   S    
C80   C83   A    
C42   O43   A    
Cr12  O5    S    
C73   O39   A    
C25   C29   A    
C109  C145  S    
C55   H52   S    
C27   C31   A    
C1    O14   A    
C28   C32   A    
C47   C64   A    
C93   H74   S    
C111  O17   A    
C76   H34   S    
C17   C21   A    
C135  H45   S    
Cr8   O44   S    
C120  O30   A    
C108  C113  A    
C100  O20   A    
C19   C23   A    
Cr7   O34   S    
Cr3   O29   S    
Cr5   O37   S    
C39   O40   A    
C156  C160  A    
C16   C20   A    
C164  C173  A    
Cr8   O22   S    
Cr10  O11   S    
C4    H19   S    
C127  C145  A    
C89   C150  S    
C22   C27   A    
Cr1   O14   S    
C36   C44   A    
C37   C45   A    
C43   C61   A    
C170  C174  A    
C152  C157  A    
C49   C62   A    
C114  H2    S    
Cr9   O19   S    
Cr10  O20   S    
C51   C64   A    
C140  H90   S    
C140  C145  A    
C22   C58   S    
C66   C153  S    
C53   C58   A    
C138  C151  A    
C82   C85   A    
C132  H86   S    
C76   C155  A    
Cr12  O27   S    
C70   O36   A    
C52   H49   S    
Cr1   O1    S    
C165  O31   A    
C67   O50   A    
C77   C82   A    
C49   C53   A    
C134  C151  A    
Cr3   O3    S    
C73   O8    A    
C51   C55   A    
C127  C131  A    
C129  C147  A    
C81   C88   A    
C169  O35   A    
C48   C52   A    
C69   O4    A    
C117  O22   A    
C33   H65   S    
Cr12  O52   S    
C103  C107  A    
Cr8   O45   S    
C133  C166  A    
C103  H79   S    
Cr4   O4    S    
Cr6   O38   S    
C102  H77   S    
C41   O47   A    
C162  H24   S    
C85   C86   A    
Cr6   O23   S    
C23   C59   S    
C6    H21   S    
C124  H7    S    
Cr4   O8    S    
C67   C154  S    
C167  O32   A    
Cr12  O31   S    
C13   C57   A    
C170  C171  S    
C118  C122  S    
C165  O1    A    
C153  C158  A    
C139  C143  A    
C98   C125  A    
C7    C156  A    
C24   H69   S    
C50   C63   A    
C127  H81   S    
C54   C59   A    
C137  H67   S    
C4    C152  A    
C71   O37   A    
C69   C156  S    
Cr5   O15   S    
Cr6   O16   S    
C66   O2    A    
C110  C146  S    
C91   C92   A    
C20   H48   S    
C68   C94   A    
C41   O42   A    
C166  H68   S    
Cr11  O26   S    
C44   H37   S    
C19   H47   S    
C83   C84   A    
C8    C12   A    
Cr1   O36   S    
C23   C28   A    
C37   C59   A    
C109  C114  A    
C38   C60   A    
C114  C123  A    
C163  H25   S    
Cr1   O40   S    
C101  H76   S    
C26   C30   A    
C116  C125  A    
C119  O25   A    
C137  C150  A    
C157  H9    S    
C45   H38   S    
C130  H84   S    
C75   H1    S    
C112  C116  A    
C65   O45   A    
C34   H31   S    
C46   C87   A    
C17   H44   S    
C167  O12   A    
C111  O21   A    
C94   H73   S    
C105  C109  A    
C96   C123  A    
C18   C22   A    
C120  O26   A    
C142  C147  A    
Cr2   O28   S    
C168  O33   A    
C81   C86   A    
C39   O44   A    
C11   C33   A    
C97   C168  S    
C8    C70   S    
C112  C147  S    
C31   H63   S    
C54   H51   S    
C154  C159  A    
C65   O52   A    
C128  C146  A    
C74   H12   S    
C104  F1    S    
C35   C79   A    
C1    O18   A    
C40   O41   A    
C89   O19   A    
C116  H4    S    
C113  C121  A    
C96   C101  A    
C18   H46   S    
C38   H35   S    
C10   C72   S    
C161  H22   S    
C117  O27   A    
Cr1   O9    S    
C118  O28   A    
Cr2   O6    S    
C168  O23   A    
Cr3   O11   S    
Cr2   O32   S    
C136  C149  A    
Cr2   O2    S    
C15   C19   A    
C39   C64   S    
C50   C54   A    
C40   C63   S    
Cr10  O25   S    
C160  C164  A    
C3    C7    A    
C46   C92   A    
C20   C25   A    
C126  C130  A    
C98   C103  A    
C35   C166  A    
C176  H17   S    
C136  H56   S    
C26   H58   S    
Cr11  O48   S    
C125  H8    S    
C12   C17   A    
C30   H62   S    
C71   O6    A    
C13   H70   S    
C97   C102  A    
C95   C121  A    
C37   H33   S    
C99   C104  A    
C4    C174  A    
C55   C60   A    
C5    C175  A    
C41   C62   S    
C95   C165  S    
C40   O46   A    
C2    C122  A    
C34   C43   A    
C85   H42   S    
C139  H88   S    
C11   C73   S    
C76   C81   A    
C9    C14   A    
C28   H60   S    
C48   H53   S    
C11   C16   A    
Cr11  O21   S    
C32   H64   S    
C96   C167  S    
C128  H82   S    
C6    C154  A    
C169  O34   A    
C88   C90   A    
C138  C142  A    
C174  H15   S    
C129  H83   S    
C50   H55   S    
C157  C161  A    
C104  C108  A    
C77   H23   S    
C164  H26   S    
C137  C141  A    
C115  C124  A    
C105  F2    S    
C9    C71   S    
C21   C56   S    
C100  C149  S    
C82   C90   A    
C8    C30   A    
C24   C144  A    
C1    C151  S    
C131  H85   S    
C92   H71   S    
C24   C68   A    
C129  C134  A    
C74   C78   A    
C175  H14   S    
C110  C115  A    
Cr7   O13   S    
C108  C143  S    
C91   H72   S    
C113  H89   S    
Cr7   O39   S    
C93   C94   A    
C14   C18   A    
C2    C46   A    
C99   H75   S    
Cr4   O30   S    
C10   C32   A    
C3    H16   S    
C80   C87   A    
C36   C58   A    
C10   C15   A    
C69   O51   A    
C47   H39   S    
Cr10  O50   S    
C74   C133  A    
C66   O49   A    
C13   C155  A    
C67   O3    A    
C160  H13   S    
C3    C173  A    
C141  H91   S    
C118  O24   A    
Cr2   O10   S    
C119  O29   A    
Cr3   O7    S    
C100  O16   A    
C75   C80   A    
C12   H27   S    
C42   O48   A    
Cr12  O9    S    
Cr3   O33   S    
Cr5   O41   S    
C57   C93   A    
C106  F3    S    
C128  C132  A    
C101  C105  A    
C130  C148  A    
C70   O5    A    
Cr5   O10   S    
C53   H50   S    
C9    C31   A    
C78   C79   A    
C44   C62   A    
C171  C175  A    
C45   C63   A    
C15   H29   S    
C163  C172  A    
C78   C84   A    
Cr8   O9    S    
C159  H11   S    
Cr4   O13   S    
C42   C61   S    
C121  H5    S    
C38   C47   A    
C161  C170  A    
C141  C146  A    
C2    H66   S    
Cr10  O47   S    
C158  H10   S    
C159  C163  A    
C172  C173  S    
C106  C110  A    
C119  C155  S    
Cr9   O46   S    
C111  C148  S    
C86   H43   S    
Cr6   O42   S    
C57   C88   A    
C65   C152  S    
C84   H41   S    
C77   C144  A    
Cr11  O13   S    
C43   H36   S    
C48   C61   A    
C6    C176  A    
C5    C153  A    
C102  C106  A    
C51   H57   S    
C131  C149  A    
C158  C162  A    
C172  C176  A    
C135  C148  A    
Cr9   O10   S    
C52   C56   A    
Cr8   O18   S    
Cr4   O35   S    
C35   C91   A    
