data_mof_unit_1287.cif
_audit_creation_date              2012-12-11T17:37:51-0500
_audit_creation_method            fapswitch 2.2
_symmetry_space_group_name_H-M    P1
_symmetry_Int_Tables_number       1
_space_group_crystal_system       triclinic
_cell_length_a                    13.010472
_cell_length_b                    13.006659
_cell_length_c                    15.303366
_cell_angle_alpha                 116.291163
_cell_angle_beta                  63.947263
_cell_angle_gamma                 96.886696
_cell_volume                      2076.8989289

loop_
_atom_site_label
_atom_site_type_symbol
_atom_type_description
_atom_site_fract_x
_atom_site_fract_y
_atom_site_fract_z
_atom_type_partial_charge
C1    C     C_R   0.003038 0.833586 0.049108 0.695252
C2    C     C_R   0.301471 0.589666 0.790166 -0.164503
C3    C     C_R   0.259332 0.418407 0.049987 -0.162421
C4    C     C_R   0.679506 0.472278 0.222340 -0.099994
C5    C     C_R   0.047024 0.279953 0.684062 -0.141606
C6    C     C_R   0.361671 0.437982 0.978330 0.151632
C7    C     C_R   0.028266 0.171424 0.678551 0.062633
C8    C     C_R   0.299803 0.557138 0.692813 0.063143
C9    C     C_R   0.016246 0.149524 0.037358 0.137601
C10   C     C_R   0.438575 0.723570 0.191864 -0.125678
C11   C     C_R   0.327337 0.767551 0.273072 -0.134518
C12   C     C_R   0.675398 0.545541 0.323783 0.064931
C13   C     C_R   0.291374 0.885086 0.318494 0.117470
C14   C     C_R   0.369542 0.957772 0.282023 -0.175671
C15   C     C_R   0.480823 0.913371 0.200808 -0.093352
C16   C     C_R   0.754741 0.522162 0.894739 -0.177115
C17   C     C_R   0.515243 0.796369 0.155644 -0.079675
C18   C     C_R   0.155962 0.030478 0.499956 -0.241207
C19   C     C_R   0.044488 0.070654 0.582617 0.063329
C20   C     C_R   0.948383 0.014525 0.573154 -0.013389
C21   C     C_R   0.965249 0.918465 0.479928 -0.163373
C22   C     C_R   0.075349 0.878690 0.396364 0.137819
C23   C     C_R   0.661443 0.463287 0.928780 0.167742
C24   C     C_R   0.173124 0.932006 0.404960 0.008757
C25   C     C_R   0.762639 0.001592 0.715913 -0.106890
C26   C     C_R   0.645140 0.034181 0.781116 -0.056828
C27   C     C_R   0.592076 0.121509 0.781209 -0.110748
C28   C     C_R   0.018454 0.694137 0.300070 -0.124407
C29   C     C_R   0.656881 0.177626 0.717484 -0.080765
C30   C     C_R   0.774941 0.147651 0.654706 -0.152484
C31   C     C_R   0.828180 0.058626 0.652745 0.100826
C32   C     C_R   0.878227 0.428989 0.462738 -0.129943
C33   C     C_R   0.778387 0.431559 0.448691 0.651067
C34   C     C_R   0.078626 0.786927 0.299775 0.001611
C35   C     C_R   0.706000 0.534399 0.506303 -0.338798
C36   C     C_R   0.732999 0.633641 0.578510 0.670031
C37   C     C_R   0.831081 0.630790 0.592628 -0.220724
C38   C     C_R   0.903188 0.529373 0.535379 -0.288036
C39   C     C_R   0.500399 0.533919 0.584531 -0.179072
C40   C     C_R   0.676119 0.423688 0.992183 -0.133391
C41   C     C_R   0.392651 0.568718 0.604347 0.022974
C42   C     C_R   0.377741 0.613588 0.542075 0.077558
C43   C     C_R   0.472526 0.603950 0.447500 -0.270193
C44   C     C_R   0.580904 0.565703 0.426097 0.072270
C45   C     C_R   0.337972 0.518530 0.952841 -0.103653
C46   C     C_R   0.595987 0.539716 0.500691 0.247867
C47   C     C_R   0.219063 0.663008 0.512058 -0.373073
C48   C     C_R   0.120052 0.731053 0.549198 0.799176
C49   C     C_R   0.071141 0.818256 0.654830 -0.257719
C50   C     C_R   0.121178 0.837655 0.724184 -0.208161
C51   C     C_R   0.220420 0.770220 0.687559 -0.109042
C52   C     C_R   0.099945 0.795748 0.207358 -0.068870
C53   C     C_R   0.269937 0.681653 0.581171 0.067533
C54   C     C_2   0.474525 0.399986 0.953170 -0.230825
C55   C     C_2   0.565954 0.444714 0.901839 -0.218454
C56   C     C_R   0.964388 0.179592 0.781144 -0.107283
C57   C     C_2   0.840415 0.959224 0.078114 -0.273680
C58   C     C_2   0.820393 0.042383 0.176411 0.028066
C59   C     C_R   0.784914 0.565069 0.312581 -0.091233
C60   C     C_R   0.903352 0.747937 0.952990 -0.258107
C61   C     C_R   0.916570 0.853351 0.026324 -0.019170
C62   C     C_R   0.956172 0.322427 0.405011 0.232039
C63   C     C_R   0.075940 0.326566 0.356485 -0.211747
C64   C     C_R   0.150293 0.228336 0.308880 -0.169245
C65   C     C_R   0.106043 0.125368 0.309595 0.016767
C66   C     C_R   0.987310 0.119980 0.356871 -0.102856
C67   C     C_R   0.202231 0.503463 0.692795 -0.115209
C68   C     C_R   0.912467 0.217934 0.404209 -0.152845
C69   C     C_R   0.056248 0.253968 0.084343 -0.103401
C70   C     C_R   0.956461 0.170178 0.989624 -0.148997
F1    F     F_    0.046582 0.914682 0.113387 -0.761599
F2    F     F_    0.752579 0.335926 0.378581 -0.713002
F3    F     F_    0.663362 0.733191 0.635911 -0.716810
F4    F     F_    0.070940 0.711745 0.482707 -0.768427
H1    H     H_    0.928692 0.110639 0.803082 0.087671
H2    H     H_    0.269732 0.710024 0.301048 0.150346
H3    H     H_    0.608181 0.437259 0.203549 0.090690
H4    H     H_    0.344065 0.048494 0.315629 0.110018
H5    H     H_    0.540417 0.969716 0.172810 0.112904
H6    H     H_    0.228675 0.074798 0.510674 0.140763
H7    H     H_    0.890603 0.877474 0.470244 0.142620
H8    H     H_    0.802150 0.930976 0.713282 0.121037
H9    H     H_    0.594787 0.990053 0.829702 0.130612
H10   H     H_    0.500577 0.144802 0.829742 0.115443
H11   H     H_    0.615429 0.243184 0.715351 0.124324
H12   H     H_    0.170120 0.478589 0.632598 0.095802
H13   H     H_    0.824047 0.190721 0.604731 0.112322
H14   H     H_    0.977896 0.528735 0.549193 0.176074
H15   H     H_    0.776487 0.551573 0.833261 0.102512
H16   H     H_    0.850766 0.707219 0.648973 0.161727
H17   H     H_    0.510788 0.505940 0.637643 0.118258
H18   H     H_    0.463753 0.631604 0.393660 0.140800
H19   H     H_    0.255575 0.595691 0.429891 0.140690
H20   H     H_    0.994673 0.870878 0.682910 0.127439
H21   H     H_    0.083596 0.905397 0.806033 0.150234
H22   H     H_    0.993285 0.658046 0.357036 0.189743
H23   H     H_    0.094974 0.272229 0.138619 0.111864
H24   H     H_    0.259535 0.788279 0.741808 0.132898
H25   H     H_    0.477972 0.353977 0.996089 0.128542
H26   H     H_    0.563902 0.486463 0.855043 0.128148
H27   H     H_    0.792698 0.966784 0.037909 0.137348
H28   H     H_    0.861139 0.038414 0.223325 0.170012
H29   H     H_    0.629732 0.361411 0.020081 0.088575
H30   H     H_    0.156107 0.852536 0.177484 0.154338
H31   H     H_    0.812021 0.620095 0.374057 0.097992
H32   H     H_    0.841455 0.731323 0.920122 0.142536
H33   H     H_    0.396404 0.558972 0.904429 0.090229
H34   H     H_    0.903286 0.111000 0.956378 0.091465
H35   H     H_    0.111830 0.405946 0.355777 0.136093
H36   H     H_    0.242309 0.232276 0.272082 0.114720
H37   H     H_    0.164004 0.050079 0.273787 0.099083
H38   H     H_    0.953173 0.040102 0.357474 0.132050
H39   H     H_    0.820786 0.212869 0.442708 0.143199
H40   H     H_    0.358928 0.645636 0.819852 0.117140
H41   H     H_    0.249325 0.365474 0.090565 0.096040
H42   H     H_    0.087072 0.303872 0.617990 0.106153
H43   H     H_    0.601398 0.762214 0.092853 0.113182
H44   H     H_    0.465445 0.633095 0.157350 0.123808
N1    N     N_R   0.037320 0.720000 0.995830 -0.108793
N2    N     N_R   0.824900 0.517970 0.936430 -0.036791
N3    N     N_R   0.003190 0.648180 0.211390 -0.061953
N4    N     N_R   0.774330 0.457010 0.995830 -0.046777
N5    N     N_R   0.053760 0.709130 0.151980 -0.043794
N6    N     N_R   0.853840 0.498830 0.211390 -0.040354
N7    N     N_R   0.974250 0.667320 0.936430 -0.069891
N8    N     N_R   0.225670 0.542990 0.004170 -0.047953
N9    N     N_R   0.946240 0.290870 0.848020 -0.040632
N10   N     N_R   0.146160 0.501170 0.788610 -0.039222
N11   N     N_R   0.025750 0.332680 0.063570 -0.045773
N12   N     N_R   0.962680 0.280000 0.004170 -0.041308
N13   N     N_R   0.209230 0.553860 0.848010 -0.042665
N14   N     N_R   0.175100 0.482030 0.063570 -0.042076
N15   N     N_R   0.996810 0.351820 0.788610 -0.038699
N16   N     N_R   0.790770 0.446140 0.151990 -0.039747
Ni1   Ni    Ni4+2 0.130310 0.630310 0.000000 0.228152
Ni2   Ni    Ni4+2 0.869690 0.369690 0.000000 0.220009
Ni3   Ni    Ni4+2 0.985660 0.509480 0.863750 0.205417
Ni4   Ni    Ni4+2 0.014340 0.490520 0.136250 0.225500

loop_
_geom_bond_atom_site_label_1
_geom_bond_atom_site_label_2
_ccdc_geom_bond_type
C25   C31   A    
C66   C68   A    
N15   Ni3   S    
C26   H9    S    
C6    C45   A    
C27   C29   A    
C11   C13   A    
C41   C42   A    
C35   C36   A    
C43   C44   A    
C3    C6    A    
C39   C41   A    
C5    N15   A    
C26   C27   A    
C62   C63   A    
C37   H16   S    
C18   C24   A    
N6    Ni4   S    
C60   N7    A    
C37   C38   A    
C9    C69   A    
N13   Ni1   S    
C11   H2    S    
C16   N2    A    
C42   C53   S    
C30   C31   A    
C52   N5    A    
C50   H21   S    
C10   C17   A    
N14   Ni4   S    
C23   C40   A    
C70   N12   A    
C27   H10   S    
C18   C19   A    
C1    N1    A    
C56   N9    A    
C65   H37   S    
C33   F2    S    
C12   C59   A    
C15   H5    S    
N11   Ni4   S    
C19   C20   A    
N2    N4    A    
C55   H26   S    
C36   C37   A    
C58   H28   S    
C32   C38   A    
C49   H20   S    
C4    C12   A    
C29   H11   S    
C17   H43   S    
C68   H39   S    
C47   C53   A    
C51   H24   S    
C28   C34   A    
C16   H15   S    
C56   H1    S    
C13   C14   A    
C7    C56   A    
C6    C54   S    
C39   H17   S    
C44   C46   A    
C50   C51   A    
C22   C34   S    
N12   Ni2   S    
C3    N14   A    
C48   F4    S    
C9    C70   A    
C36   F3    S    
C5    C7    A    
C28   N3    A    
N16   Ni2   S    
N7    Ni3   S    
C25   C26   A    
N1    Ni1   S    
C13   C24   S    
C38   H14   S    
C60   C61   A    
C51   C53   A    
N3    Ni4   S    
C63   H35   S    
N10   Ni3   S    
C29   C30   A    
C10   H44   S    
C64   H36   S    
C47   C48   A    
N8    N14   A    
C45   N8    A    
C2    N13   A    
C47   H19   S    
C59   H31   S    
N9    Ni2   S    
C57   C61   S    
N4    Ni2   S    
C39   C46   A    
N1    N7    A    
C69   N11   A    
C48   C49   A    
C21   H7    S    
N8    Ni1   S    
C49   C50   A    
C16   C23   A    
C7    C19   S    
C5    H42   S    
C25   H8    S    
C22   C24   A    
C54   H25   S    
C42   C43   A    
N10   N13   A    
C60   H32   S    
C4    N16   A    
N11   N12   A    
C59   N6    A    
C15   C17   A    
C54   C55   D    
C52   H30   S    
C67   H12   S    
C8    C41   S    
C2    C8    A    
N9    N15   A    
C1    C61   A    
C23   C55   S    
C62   C68   A    
C57   H27   S    
C34   C52   A    
C43   H18   S    
N6    N16   A    
C28   H22   S    
C64   C65   A    
C32   C62   S    
C4    H3    S    
C12   C44   S    
C3    H41   S    
C67   N10   A    
C32   C33   A    
C40   H29   S    
C2    H40   S    
C40   N4    A    
C57   C58   D    
C1    F1    S    
C33   C35   A    
C14   H4    S    
N3    N5    A    
C10   C11   A    
C63   C64   A    
C20   C21   A    
C8    C67   A    
C18   H6    S    
C65   C66   A    
N5    Ni1   S    
C14   C15   A    
C70   H34   S    
N2    Ni3   S    
C66   H38   S    
C30   H13   S    
C21   C22   A    
C35   C46   S    
C45   H33   S    
C20   C31   S    
C69   H23   S    
