data_mof_unit_1413.cif
_audit_creation_date              2012-12-10T18:09:51-0500
_audit_creation_method            fapswitch 2.2
_symmetry_space_group_name_H-M    P1
_symmetry_Int_Tables_number       1
_space_group_crystal_system       triclinic
_cell_length_a                    10.686971
_cell_length_b                    12.550241
_cell_length_c                    13.245079
_cell_angle_alpha                 83.02099
_cell_angle_beta                  89.890413
_cell_angle_gamma                 101.749061
_cell_volume                      1725.72817222

loop_
_atom_site_label
_atom_site_type_symbol
_atom_type_description
_atom_site_fract_x
_atom_site_fract_y
_atom_site_fract_z
_atom_type_partial_charge
C1    C     C_R   0.475175 0.440160 0.690788 0.851982
C2    C     C_R   0.435892 0.453650 0.971912 0.099160
C3    C     C_R   0.431490 0.484208 0.866190 0.104167
C4    C     C_R   0.741608 0.499394 0.498479 0.854918
C5    C     C_R   0.460904 0.538421 0.035272 0.077449
C6    C     C_R   0.490114 0.649460 0.992100 0.137524
C7    C     C_R   0.460970 0.676690 0.891689 -0.246325
C8    C     C_R   0.422293 0.593952 0.831582 -0.135977
C9    C     C_R   0.462945 0.516314 0.139881 -0.286907
C10   C     C_R   0.576114 0.703432 0.151877 0.101126
C11   C     C_R   0.441555 0.405757 0.799044 -0.100037
C12   C     C_3   0.118631 0.488950 0.516664 0.058245
C13   C     C_R   0.339582 0.094277 0.336423 -0.320843
C14   C     C_R   0.651639 0.800605 0.628484 0.018594
C15   C     C_R   0.681455 0.905808 0.656109 -0.257279
C16   C     C_R   0.517949 0.560868 0.308737 0.853771
C17   C     C_R   0.622575 0.986591 0.607770 -0.199521
C18   C     C_R   0.532601 0.962121 0.531235 0.019249
C19   C     C_R   0.506203 0.854015 0.505734 0.222525
C20   C     C_R   0.470827 0.040930 0.477569 -0.032417
C21   C     C_R   0.389101 0.012318 0.395648 0.173612
C22   C     C_R   0.360064 0.903181 0.374205 0.027480
C23   C     C_3   0.091801 0.563403 0.419176 -0.456610
C24   C     C_R   0.419376 0.826467 0.429479 -0.219463
C25   C     C_R   0.488163 0.148628 0.501259 -0.071470
C26   C     C_R   0.362317 0.199029 0.363050 -0.021710
C27   C     C_R   0.257676 0.495077 0.511590 0.861118
C28   C     C_3   0.896693 0.373347 0.490420 -0.058042
C29   C     C_3   0.039163 0.367777 0.506987 -0.100233
C30   C     C_3   0.953957 0.579545 0.421261 -0.416514
C31   C     C_3   0.924603 0.519991 0.609098 -0.474532
C32   C     C_3   0.876237 0.492932 0.502118 0.081160
C33   C     C_3   0.840536 0.310761 0.399031 -0.397200
C34   C     C_3   0.071614 0.535119 0.612715 0.289099
C35   C     C_3   0.844924 0.377892 0.293982 -0.314500
C36   C     C_3   0.795810 0.304132 0.212836 -0.882296
C37   C     C_3   0.673934 0.784866 0.201427 -0.424816
C38   C     C_3   0.628432 0.891541 0.210484 -0.329823
C39   C     C_3   0.714497 0.963100 0.278666 -0.876740
C40   C     C_3   0.268736 0.865763 0.291519 -0.434958
C41   C     C_3   0.129779 0.865865 0.321363 -0.299636
C42   C     C_3   0.037383 0.818086 0.243134 -0.930619
C43   C     C_3   0.040643 0.270581 0.593736 -0.477586
C44   C     C_3   0.167759 0.235651 0.616278 -0.252847
C45   C     C_R   0.549822 0.730814 0.049513 -0.222301
C46   C     C_3   0.149856 0.132809 0.693707 -0.885404
C47   C     C_R   0.520612 0.596460 0.199342 -0.102378
C48   C     C_R   0.430692 0.295154 0.837822 -0.186566
C49   C     C_R   0.420093 0.263079 0.941984 -0.136870
C50   C     C_R   0.426862 0.341294 0.008815 -0.183663
H1    H     H_    0.951984 0.662392 0.441898 0.212559
H2    H     H_    0.388748 0.618739 0.757398 0.221317
H3    H     H_    0.324065 0.262635 0.318627 0.132337
H4    H     H_    0.284663 0.079724 0.269348 0.148184
H5    H     H_    0.544821 0.177270 0.563369 0.124559
H6    H     H_    0.696642 0.737198 0.665812 0.146400
H7    H     H_    0.651014 0.067202 0.630913 0.129665
H8    H     H_    0.750281 0.924860 0.714511 0.153508
H9    H     H_    0.398610 0.745603 0.409118 0.219573
H10   H     H_    0.076517 0.342346 0.437082 0.176342
H11   H     H_    0.913685 0.578398 0.344554 0.152227
H12   H     H_    0.157155 0.644913 0.411204 0.211458
H13   H     H_    0.109920 0.526239 0.349935 0.163300
H14   H     H_    0.895017 0.594889 0.629189 0.212977
H15   H     H_    0.877893 0.452725 0.667985 0.168528
H16   H     H_    0.856369 0.242660 0.207768 0.259358
H17   H     H_    0.695343 0.260918 0.231104 0.262730
H18   H     H_    0.798883 0.354786 0.137701 0.260094
H19   H     H_    0.781939 0.437992 0.294761 0.226929
H20   H     H_    0.944437 0.420576 0.272610 0.217741
H21   H     H_    0.890220 0.241943 0.392993 0.184715
H22   H     H_    0.739898 0.268088 0.417020 0.225926
H23   H     H_    0.468711 0.761511 0.859500 0.161528
H24   H     H_    0.717240 0.918037 0.355880 0.266801
H25   H     H_    0.813167 0.987747 0.245413 0.259574
H26   H     H_    0.676796 0.038144 0.285648 0.251322
H27   H     H_    0.627994 0.939058 0.134086 0.209050
H28   H     H_    0.529632 0.871741 0.241780 0.234555
H29   H     H_    0.701654 0.749115 0.276490 0.220888
H30   H     H_    0.762858 0.804883 0.153193 0.195668
H31   H     H_    0.053599 0.871672 0.169182 0.269339
H32   H     H_    0.049782 0.734559 0.231944 0.269146
H33   H     H_    0.938100 0.812752 0.270769 0.250031
H34   H     H_    0.583799 0.813678 0.012528 0.134052
H35   H     H_    0.105214 0.817416 0.396829 0.241449
H36   H     H_    0.115864 0.949788 0.328335 0.221069
H37   H     H_    0.297405 0.918329 0.218171 0.193981
H38   H     H_    0.274803 0.781399 0.277269 0.196000
H39   H     H_    0.110148 0.148406 0.766813 0.273800
H40   H     H_    0.084417 0.063366 0.664402 0.266073
H41   H     H_    0.243724 0.109561 0.707854 0.252819
H42   H     H_    0.209532 0.217204 0.545321 0.245630
H43   H     H_    0.233364 0.301714 0.648984 0.259085
H44   H     H_    0.996415 0.285035 0.665063 0.236826
H45   H     H_    0.418204 0.435978 0.175963 0.162757
H46   H     H_    0.975715 0.197061 0.570095 0.201384
H47   H     H_    0.434968 0.233746 0.787820 0.154031
H48   H     H_    0.429796 0.311545 0.088444 0.125012
H49   H     H_    0.413973 0.177750 0.971349 0.135532
H50   H     H_    0.839167 0.322252 0.556071 0.130697
I1    I     I_    0.150775 0.708342 0.618998 -0.436122
I2    I     I_    0.121264 0.462320 0.758877 -0.463256
N1    N     N_R   0.433240 0.222190 0.444680 -0.109501
N2    N     N_R   0.566070 0.776970 0.554790 -0.128197
O1    O     O_R   0.468120 0.366740 0.627160 -0.634113
O2    O     O_R   0.510770 0.544830 0.662520 -0.623359
O3    O     O_R   0.663880 0.410950 0.482330 -0.627018
O4    O     O_R   0.706530 0.589040 0.517700 -0.625355
O5    O     O_R   0.489230 0.455170 0.337480 -0.615291
O6    O     O_R   0.531880 0.633260 0.372840 -0.638247
O7    O     O_R   0.293470 0.410960 0.482300 -0.647189
O8    O     O_R   0.336120 0.589050 0.517670 -0.610290
Zn1   Zn    Zn3+2 0.471520 0.381090 0.476390 0.905320
Zn2   Zn    Zn3+2 0.528480 0.618910 0.523610 0.928991

loop_
_geom_bond_atom_site_label_1
_geom_bond_atom_site_label_2
_ccdc_geom_bond_type
C14   H6    S    
C30   H1    S    
C6    C45   A    
C12   C29   S    
C41   C42   S    
C35   C36   S    
C42   H32   S    
O8    Zn2   S    
C36   H17   S    
C16   O6    A    
C7    C8    A    
C7    H23   S    
C46   H39   S    
C48   H47   S    
C4    O4    A    
C12   C23   S    
C34   I2    S    
O2    Zn2   S    
C10   C37   S    
C40   H37   S    
O1    Zn1   S    
C28   C29   S    
N1    Zn1   S    
C38   C39   S    
C36   H16   S    
C20   C25   A    
C43   H44   S    
C15   C17   A    
C18   C19   A    
C39   H24   S    
O4    Zn2   S    
O3    Zn1   S    
C44   H43   S    
C2    C50   A    
C33   H22   S    
C23   H12   S    
C35   H20   S    
C1    C11   S    
C39   H25   S    
C9    H45   S    
C44   H42   S    
O5    Zn1   S    
C1    O2    A    
C28   H50   S    
C23   H13   S    
C27   O7    A    
C21   C22   A    
C29   C43   S    
C11   C48   A    
C42   H31   S    
C16   C47   S    
C4    O3    A    
C44   C46   S    
C16   O5    A    
C43   H46   S    
C37   H30   S    
C50   H48   S    
C34   I1    S    
C12   C27   S    
C23   C30   S    
C8    H2    S    
C28   C32   S    
C3    C8    A    
C25   N1    A    
C46   H41   S    
C38   H28   S    
C43   C44   S    
C5    C9    A    
C37   C38   S    
C41   H36   S    
C26   N1    A    
C49   H49   S    
C37   H29   S    
C19   N2    A    
C14   N2    A    
C31   C32   S    
C29   H10   S    
C22   C40   S    
C10   C45   A    
C17   C18   A    
C31   C34   S    
C13   C21   A    
O7    Zn1   S    
C39   H26   S    
C4    C32   S    
N2    Zn2   S    
C48   C49   A    
C27   O8    A    
C9    C47   A    
C15   H8    S    
C22   C24   A    
C13   C26   A    
C45   H34   S    
C12   C34   S    
C26   H3    S    
C13   H4    S    
C31   H15   S    
O6    Zn2   S    
C40   C41   S    
C31   H14   S    
C42   H33   S    
C25   H5    S    
C28   C33   S    
C36   H18   S    
C6    C7    A    
C46   H40   S    
C38   H27   S    
C41   H35   S    
C40   H38   S    
C2    C3    A    
C30   C32   S    
C5    C6    A    
C24   H9    S    
C33   C35   S    
C19   C24   A    
C18   C20   A    
C3    C11   A    
C33   H21   S    
C2    C5    A    
C20   C21   A    
C35   H19   S    
C49   C50   A    
C30   H11   S    
C1    O1    A    
C10   C47   A    
C14   C15   A    
C17   H7    S    
