data_mof_unit_816.cif
_audit_creation_date              2012-12-11T15:13:42-0500
_audit_creation_method            fapswitch 2.2
_symmetry_space_group_name_H-M    P1
_symmetry_Int_Tables_number       1
_space_group_crystal_system       triclinic
_cell_length_a                    6.933277
_cell_length_b                    13.946686
_cell_length_c                    19.980205
_cell_angle_alpha                 103.53956
_cell_angle_beta                  90.78812
_cell_angle_gamma                 89.798531
_cell_volume                      1878.13940013

loop_
_atom_site_label
_atom_site_type_symbol
_atom_type_description
_atom_site_fract_x
_atom_site_fract_y
_atom_site_fract_z
_atom_type_partial_charge
O1    O     O_R   0.506780 0.600060 0.449950 -0.540841
O2    O     O_R   0.179840 0.597110 0.589410 -0.544438
O3    O     O_R   0.004570 0.399940 0.550050 -0.541045
C1    C     C_R   0.348949 0.621507 0.616032 0.678812
O4    O     O_R   0.177380 0.612160 0.452890 -0.545172
O5    O     O_R   0.002100 0.415100 0.412560 -0.547153
C2    C     C_R   0.346020 0.634274 0.432898 0.707842
O6    O     O_R   0.509250 0.584900 0.587440 -0.538803
O7    O     O_3   0.337570 0.435330 0.486930 -0.377585
V1    V     V_3+5 0.064650 0.512000 0.502430 1.394437
O8    O     O_R   0.672090 0.402890 0.410590 -0.542149
C3    C     C_R   0.839625 0.385681 0.381491 0.680065
O9    O     O_R   0.674540 0.387840 0.547110 -0.545800
C4    C     C_R   0.845209 0.361732 0.564807 0.697148
V2    V     V_3+5 0.564040 0.488000 0.497570 1.392460
O10   O     O_3   0.840990 0.564670 0.513070 -0.370225
C5    C     C_R   0.980310 0.121601 0.614622 -0.183734
H1    H     H_    0.968080 0.991413 0.692435 0.115388
H2    H     H_    0.053237 0.052568 0.592877 0.115505
C6    C     C_R   0.862695 0.282040 0.603144 -0.094124
C7    C     C_R   0.805855 0.307501 0.931079 -0.194926
C8    C     C_R   0.804225 0.381788 0.895856 -0.157584
C9    C     C_R   0.842542 0.360203 0.825052 0.090010
C10   C     C_R   0.834046 0.260725 0.786372 0.056654
C11   C     C_R   0.852700 0.185574 0.823539 0.033645
C12   C     C_R   0.842088 0.233772 0.713128 0.089266
C13   C     C_R   0.911404 0.139163 0.681295 0.103956
C14   C     C_R   0.925254 0.065646 0.717863 -0.211611
C15   C     C_R   0.888894 0.087620 0.787831 -0.189522
C16   C     C_R   0.789937 0.297667 0.670173 -0.241317
C17   C     C_R   0.976765 0.196709 0.578939 0.118873
C18   C     C_R   0.846307 0.211171 0.896134 -0.069373
H3    H     H_    0.702325 0.361871 0.689450 0.107654
H4    H     H_    0.790036 0.326255 0.986532 0.108719
H5    H     H_    0.796988 0.457223 0.925726 0.113956
H6    H     H_    0.902492 0.028470 0.814341 0.115611
C19   C     C_3   0.778279 0.172326 0.249524 0.123449
C20   C     C_3   0.956675 0.221823 0.290920 0.161631
C21   C     C_3   0.847644 0.320382 0.309125 -0.063234
C22   C     C_3   0.669270 0.271918 0.267711 -0.155252
C23   C     C_3   0.748195 0.297089 0.201458 -0.156871
C24   C     C_3   0.925207 0.347731 0.243800 -0.151454
C25   C     C_3   0.035244 0.248323 0.225342 -0.184223
C26   C     C_3   0.858306 0.197617 0.184252 -0.051837
H7    H     H_    0.517839 0.282745 0.285293 0.111693
H8    H     H_    0.661423 0.328214 0.164495 0.111100
H9    H     H_    0.986318 0.420295 0.241386 0.106182
H10   H     H_    0.186337 0.241114 0.207483 0.109077
C27   C     C_3   0.467166 0.792525 0.705564 -0.129353
C28   C     C_3   0.288012 0.844462 0.743952 -0.172812
H11   H     H_    0.233548 0.918130 0.740880 0.111275
H12   H     H_    0.560490 0.823137 0.670921 0.104945
C29   C     C_3   0.356389 0.815963 0.810724 -0.014214
C30   C     C_3   0.535923 0.765157 0.772770 -0.137854
C31   C     C_3   0.423279 0.666714 0.752048 -0.180511
C32   C     C_3   0.244183 0.718950 0.789457 0.139074
C33   C     C_3   0.174590 0.746017 0.722466 -0.142125
C34   C     C_3   0.354997 0.694486 0.685552 -0.022627
H13   H     H_    0.687216 0.773221 0.790620 0.122098
H14   H     H_    0.483718 0.594793 0.756685 0.105642
H15   H     H_    0.024198 0.738725 0.702045 0.109280
C35   C     C_R   0.585414 0.834316 0.372177 0.120705
H16   H     H_    0.553647 0.793435 0.468280 0.128748
H17   H     H_    0.797300 0.871071 0.265703 0.116944
C36   C     C_R   0.368538 0.707443 0.391538 -0.091526
C37   C     C_R   0.196613 0.705764 0.069470 -0.153261
C38   C     C_R   0.121585 0.644636 0.108449 -0.125878
C39   C     C_R   0.185560 0.652471 0.175772 -0.160088
C40   C     C_R   0.338030 0.716972 0.203939 0.086262
C41   C     C_R   0.432076 0.768965 0.159723 0.055681
C42   C     C_R   0.394150 0.735441 0.275231 0.048128
C43   C     C_R   0.545847 0.804038 0.300052 0.085953
C44   C     C_R   0.660114 0.835452 0.251681 -0.191676
C45   C     C_R   0.602375 0.820054 0.183086 -0.193688
C46   C     C_R   0.307563 0.687186 0.322552 -0.234891
C47   C     C_R   0.502330 0.781830 0.415612 -0.156374
C48   C     C_R   0.346328 0.772282 0.094991 -0.108860
H18   H     H_    0.205931 0.627729 0.306314 0.106596
H19   H     H_    0.130544 0.704123 0.020088 0.113420
H20   H     H_    0.111003 0.607971 0.204519 0.104501
H21   H     H_    0.004180 0.595040 0.087747 0.117037
H22   H     H_    0.690828 0.850064 0.148820 0.145535
O11   O     O_R   0.203580 0.914920 0.912610 -0.555286
O12   O     O_R   0.535710 0.887810 0.047120 -0.556450
O13   O     O_R   0.710730 0.084950 0.087430 -0.550804
C49   C     C_R   0.366630 0.857983 0.061894 0.666464
O14   O     O_R   0.533010 0.902850 0.910600 -0.544323
O15   O     O_R   0.708010 0.100090 0.949930 -0.539911
C50   C     C_R   0.364166 0.883277 0.882229 0.674881
O16   O     O_R   0.206300 0.899780 0.050100 -0.535765
O17   O     O_3   0.375170 0.064580 0.013100 -0.367070
V3    V     V_3+5 0.648200 0.988020 0.997570 1.376823
O18   O     O_R   0.038030 0.112330 0.952840 -0.541990
C51   C     C_R   0.866664 0.137398 0.936208 0.702347
O19   O     O_R   0.040730 0.097300 0.089360 -0.539930
C52   C     C_R   0.871183 0.122912 0.115404 0.681497
V4    V     V_3+5 0.148780 0.012220 0.002360 1.395308
O20   O     O_3   0.871930 0.935430 0.986900 -0.380144
C53   C     C_3   0.106151 0.184920 0.518581 -0.390885
C54   C     C_3   0.308977 0.223100 0.540549 -0.667145
H23   H     H_    0.307792 0.303605 0.562741 0.246778
H24   H     H_    0.368702 0.186481 0.579938 0.211487
H25   H     H_    0.404626 0.207779 0.495161 0.203640
H26   H     H_    0.116523 0.105429 0.493566 0.182668
H27   H     H_    0.043786 0.224527 0.482049 0.189308
C55   C     C_3   0.669884 0.077913 0.252612 -0.403709
C56   C     C_3   0.490316 0.060861 0.204632 -0.252686
C57   C     C_3   0.320462 0.011543 0.230714 -0.767521
H28   H     H_    0.342225 0.005771 0.284625 0.244583
H29   H     H_    0.186757 0.051489 0.223324 0.223139
H30   H     H_    0.292947 0.937328 0.199308 0.216317
H31   H     H_    0.440250 0.130688 0.192758 0.183691
H32   H     H_    0.530848 0.011271 0.155851 0.219757
H33   H     H_    0.769808 0.015597 0.235259 0.150734
H34   H     H_    0.629837 0.083040 0.306944 0.184639
C58   C     C_3   0.109505 0.668220 0.829981 -0.456975
C59   C     C_3   0.986008 0.738006 0.882970 -0.250181
C60   C     C_3   0.814230 0.686032 0.906053 -0.803582
H35   H     H_    0.725613 0.647373 0.861237 0.218628
H36   H     H_    0.865244 0.632246 0.935415 0.208222
H37   H     H_    0.721935 0.741011 0.940411 0.245925
H38   H     H_    0.075832 0.767335 0.929194 0.209455
H39   H     H_    0.933514 0.800161 0.861853 0.205732
H40   H     H_    0.012666 0.622630 0.790815 0.191851
H41   H     H_    0.197204 0.621477 0.856697 0.176369
C61   C     C_3   0.717439 0.919456 0.405622 -0.374827
C62   C     C_3   0.612401 0.002914 0.456985 -0.295513
C63   C     C_3   0.588856 0.983689 0.528861 -0.732765
H42   H     H_    0.714913 0.943350 0.543564 0.216500
H43   H     H_    0.577739 0.054737 0.567570 0.217148
H44   H     H_    0.454260 0.941946 0.531368 0.210736
H45   H     H_    0.697978 0.071628 0.463622 0.174272
H46   H     H_    0.469308 0.017624 0.435691 0.188687
H47   H     H_    0.841793 0.891421 0.431171 0.176307
H48   H     H_    0.778188 0.954069 0.366758 0.146431
C64   C     C_3   0.953844 0.437528 0.800081 -0.375935
C65   C     C_3   0.167059 0.407252 0.785139 -0.269382
C66   C     C_3   0.233131 0.424274 0.716379 -0.751564
H49   H     H_    0.174355 0.366098 0.673842 0.244047
H50   H     H_    0.185216 0.497126 0.709230 0.219925
H51   H     H_    0.392473 0.420515 0.713960 0.194692
H52   H     H_    0.261148 0.450603 0.826762 0.173734
H53   H     H_    0.193212 0.328503 0.784938 0.203882
H54   H     H_    0.881226 0.461182 0.757218 0.163917
H55   H     H_    0.955760 0.504360 0.842074 0.166644
C67   C     C_3   0.102348 0.188147 0.338747 -0.371270
C68   C     C_3   0.039837 0.094008 0.357752 -0.847703
H56   H     H_    0.911172 0.109552 0.390462 0.221402
H57   H     H_    0.004980 0.035001 0.312089 0.231310
H58   H     H_    0.159964 0.065573 0.384535 0.223621
H59   H     H_    0.246208 0.178522 0.314963 0.195797
H60   H     H_    0.126128 0.247242 0.385242 0.193082

loop_
_geom_bond_atom_site_label_1
_geom_bond_atom_site_label_2
_ccdc_geom_bond_type
C39   H20   S    
C18   C51   S    
C31   C32   S    
O18   C51   A    
C23   C24   S    
O11   V4    S    
O19   C52   A    
C1    O6    A    
C63   H42   S    
V4    O20   S    
V3    O20   S    
C6    C16   A    
C29   C30   S    
C57   H28   S    
C8    H5    S    
C15   H6    S    
C12   C13   A    
C61   C62   S    
C36   C47   A    
C9    C64   S    
C55   H33   S    
C26   C52   S    
C7    C8    A    
C14   C15   A    
C68   H57   S    
O12   C49   A    
C19   C22   S    
O5    C3    A    
C20   C21   S    
O13   C52   A    
H16   C47   S    
V2    O10   S    
C32   C33   S    
C56   H31   S    
C40   C42   A    
C60   H35   S    
C20   C67   S    
C62   H45   S    
O8    V2    S    
C56   H32   S    
C68   H56   S    
C39   C40   A    
C41   C45   A    
C23   H8    S    
O1    V2    S    
C17   C53   S    
O7    V1    S    
O16   V4    S    
C64   H55   S    
C11   C18   A    
C53   H26   S    
C65   H53   S    
C31   H14   S    
C41   C48   A    
C35   C47   A    
C45   H22   S    
O11   C50   A    
O13   V3    S    
C21   C24   S    
C30   H13   S    
C44   C45   A    
C11   C15   A    
C22   H7    S    
C53   H27   S    
C7    C18   A    
O15   C51   A    
C65   H52   S    
C38   C39   A    
C28   C29   S    
C4    C6    S    
C68   H58   S    
H1    C14   S    
C10   C11   A    
C49   O16   A    
C21   C22   S    
C35   C61   S    
C64   C65   S    
C7    H4    S    
C54   H25   S    
C27   C34   S    
C60   H37   S    
C5    C13   A    
O2    C1    A    
C59   H38   S    
O5    V1    S    
C19   C20   S    
C37   H19   S    
C2    C36   S    
C53   C54   S    
H17   C44   S    
C27   H12   S    
C54   H24   S    
C28   H11   S    
C32   C58   S    
C35   C43   A    
O15   V3    S    
O17   V4    S    
C33   H15   S    
O3    C4    A    
C66   H50   S    
C67   H60   S    
C22   C23   S    
C61   H48   S    
C12   C16   A    
O6    V2    S    
C58   H41   S    
O14   C50   A    
C25   C26   S    
C29   C50   S    
C5    C17   A    
C23   C26   S    
C20   C25   S    
C24   C25   S    
C56   C57   S    
C62   C63   S    
O2    V1    S    
C63   H44   S    
O18   V4    S    
O17   V3    S    
O14   V3    S    
O4    C2    A    
C67   C68   S    
C25   H10   S    
C29   C32   S    
C37   C48   A    
C30   C31   S    
C58   H40   S    
C16   H3    S    
O1    C2    A    
C28   C33   S    
C62   H46   S    
C10   C12   A    
C43   C44   A    
C66   H51   S    
C63   H43   S    
C48   C49   S    
O8    C3    A    
O19   V4    S    
C38   H21   S    
C65   C66   S    
C36   C46   A    
C57   H30   S    
C55   H34   S    
C19   C26   S    
O9    V2    S    
O7    V2    S    
O4    V1    S    
C64   H54   S    
O3    V1    S    
V1    O10   S    
C59   C60   S    
C42   C46   A    
C33   C34   S    
C3    C21   S    
C54   H23   S    
C5    H2    S    
C57   H29   S    
C58   C59   S    
C37   C38   A    
C24   H9    S    
C59   H39   S    
C40   C41   A    
C46   H18   S    
C60   H36   S    
C66   H49   S    
C9    C10   A    
C67   H59   S    
C19   C55   S    
C42   C43   A    
C61   H47   S    
C27   C28   S    
C55   C56   S    
C31   C34   S    
C1    C34   S    
C13   C14   A    
C8    C9    A    
O12   V3    S    
O9    C4    A    
C27   C30   S    
C6    C17   A    
