data_mof_unit_3640.cif
_audit_creation_date              2012-12-10T19:09:36-0500
_audit_creation_method            fapswitch 2.2
_symmetry_space_group_name_H-M    P1
_symmetry_Int_Tables_number       1
_space_group_crystal_system       triclinic
_cell_length_a                    9.531046
_cell_length_b                    10.823503
_cell_length_c                    17.116213
_cell_angle_alpha                 89.823054
_cell_angle_beta                  93.766969
_cell_angle_gamma                 89.968941
_cell_volume                      1761.87297278

loop_
_atom_site_label
_atom_site_type_symbol
_atom_type_description
_atom_site_fract_x
_atom_site_fract_y
_atom_site_fract_z
_atom_type_partial_charge
C1    C     C_R   0.499845 0.262354 0.498117 0.823588
C2    C     C_R   0.657682 0.500056 0.779060 -0.224631
C3    C     C_R   0.588943 0.510840 0.141381 -0.158310
C4    C     C_R   0.596535 0.509357 0.222690 -0.235787
C5    C     C_R   0.457043 0.509280 0.098871 0.385058
C6    C     C_R   0.473353 0.505958 0.263199 -0.027911
C7    C     C_R   0.342063 0.506295 0.220908 -0.225758
C8    C     C_R   0.334386 0.507832 0.139353 -0.195739
C9    C     C_R   0.624329 0.063476 0.491003 0.119729
C10   C     C_R   0.498838 0.129702 0.488410 -0.135447
C11   C     C_R   0.372064 0.066615 0.470952 -0.287610
C12   C     C_R   0.517283 0.498823 0.650891 0.795020
C13   C     C_R   0.369833 0.937313 0.467550 0.242340
C14   C     C_R   0.496886 0.870971 0.484969 -0.143853
C15   C     C_R   0.623356 0.936561 0.489718 0.088471
C16   C     C_3   0.748248 0.927876 0.547022 -0.469504
C17   C     C_3   0.748894 0.068190 0.548538 -0.454235
C18   C     C_R   0.070515 0.401795 0.472984 0.255858
C19   C     C_R   0.078429 0.594687 0.534175 -0.069219
C20   C     C_R   0.929473 0.594478 0.534341 -0.092183
C21   C     C_R   0.923144 0.401722 0.473101 0.256992
C22   C     C_3   0.907258 0.348262 0.392917 -0.501997
C23   C     C_R   0.499201 0.737775 0.496481 0.814649
C24   C     C_3   0.066426 0.348952 0.392506 -0.506892
C25   C     C_R   0.482683 0.502560 0.349086 0.785344
C26   C     C_R   0.526425 0.499681 0.736743 -0.028392
C27   C     C_R   0.403032 0.501058 0.777129 -0.238104
C28   C     C_R   0.410497 0.503006 0.858437 -0.160197
C29   C     C_R   0.542385 0.503629 0.901003 0.386566
C30   C     C_R   0.665158 0.501957 0.860607 -0.198815
Cu1   Cu    Cu3+1 0.640670 0.499980 0.500000 0.937442
Cu2   Cu    Cu3+1 0.359330 0.500020 0.500000 0.945135
H1    H     H_    0.699172 0.510967 0.253639 0.151829
H2    H     H_    0.722951 0.885270 0.603611 0.193890
H3    H     H_    0.841429 0.888557 0.520167 0.192467
H4    H     H_    0.842402 0.109159 0.522780 0.190457
H5    H     H_    0.137173 0.670680 0.560931 0.153618
H6    H     H_    0.876931 0.669868 0.561585 0.139352
H7    H     H_    0.861774 0.253710 0.392968 0.194287
H8    H     H_    0.855973 0.412767 0.349351 0.211639
H9    H     H_    0.112412 0.254744 0.391613 0.187703
H10   H     H_    0.686339 0.512969 0.112228 0.150154
H11   H     H_    0.767071 0.502250 0.892589 0.137542
H12   H     H_    0.754496 0.499069 0.749291 0.159387
H13   H     H_    0.245344 0.505224 0.250623 0.150383
H14   H     H_    0.313038 0.504001 0.887546 0.150492
H15   H     H_    0.232414 0.507290 0.107437 0.137187
H16   H     H_    0.300347 0.500852 0.745997 0.161268
H17   H     H_    0.274041 0.116871 0.462379 0.156813
N1    N     N_2   0.556571 0.505325 0.983959 -0.268992
N2    N     N_2   0.442783 0.508555 0.015905 -0.269132
N3    N     N_R   0.147870 0.500930 0.499500 -0.183939
N4    N     N_R   0.851960 0.500890 0.499500 -0.183123
O1    O     O_R   0.618810 0.319640 0.500000 -0.579160
O2    O     O_R   0.381230 0.319680 0.499990 -0.584311
O3    O     O_R   0.631790 0.498830 0.613930 -0.586098
O4    O     O_R   0.394210 0.498870 0.613920 -0.585651
O5    O     O_R   0.618770 0.680320 0.500010 -0.587593
O6    O     O_R   0.381190 0.680360 0.500000 -0.550365
O7    O     O_R   0.605790 0.501130 0.386080 -0.584664
O8    O     O_R   0.368210 0.501170 0.386070 -0.587802
N5    N     N_2   0.239150 0.876006 0.450798 -0.414177
H18   H     H_    0.153015 0.923608 0.468554 0.234911
C31   C     C_3   0.217791 0.832856 0.370985 -0.640412
H19   H     H_    0.209410 0.912682 0.329931 0.208859
H20   H     H_    0.118985 0.778438 0.364537 0.220348
H21   H     H_    0.305945 0.772341 0.355530 0.232381
H22   H     H_    0.723417 0.107345 0.605920 0.197506
H23   H     H_    0.106013 0.414258 0.348930 0.211337

loop_
_geom_bond_atom_site_label_1
_geom_bond_atom_site_label_2
_ccdc_geom_bond_type
Cu1   O7    S    
C14   C23   S    
C23   O5    A    
C21   N4    A    
C1    O1    A    
C3    H10   S    
C29   C30   A    
C11   H17   S    
C17   H4    S    
C13   C14   A    
Cu1   O3    S    
C5    C8    A    
C18   C21   A    
C20   H6    S    
C9    C10   A    
Cu2   O2    S    
Cu1   Cu2   S    
C2    C30   A    
C22   H8    S    
C31   H19   S    
C19   C20   A    
N1    N2    D    
C1    O2    A    
C8    H15   S    
C18   N3    A    
C7    C8    A    
C2    C26   A    
C25   O8    A    
C21   C22   S    
Cu1   N4    S    
C23   O6    A    
C24   H9    S    
C11   C13   A    
C28   H14   S    
C26   C27   A    
N5    H18   S    
Cu2   O4    S    
C18   C24   S    
C12   O4    A    
C7    H13   S    
Cu1   O5    S    
C9    C17   S    
C28   C29   A    
C12   O3    A    
Cu2   O8    S    
C6    C7    A    
C29   N1    S    
C16   H3    S    
C9    C15   A    
C22   C24   S    
C30   H11   S    
C6    C25   S    
C19   H5    S    
C10   C11   A    
C22   H7    S    
C15   C16   S    
C31   H21   S    
Cu1   O1    S    
C24   H23   S    
C4    C6    A    
C1    C10   S    
C2    H12   S    
C27   C28   A    
C4    H1    S    
Cu2   N3    S    
C17   H22   S    
N5    C31   S    
C27   H16   S    
Cu2   O6    S    
C16   H2    S    
C14   C15   A    
C19   N3    A    
C25   O7    A    
C5    N2    S    
C13   N5    S    
C3    C4    A    
C16   C17   S    
C12   C26   S    
C20   N4    A    
C3    C5    A    
C31   H20   S    
