data_mof_unit_4617.cif
_audit_creation_date              2012-12-10T19:46:24-0500
_audit_creation_method            fapswitch 2.2
_symmetry_space_group_name_H-M    P1
_symmetry_Int_Tables_number       1
_space_group_crystal_system       triclinic
_cell_length_a                    10.847949
_cell_length_b                    10.887448
_cell_length_c                    10.443864
_cell_angle_alpha                 89.862326
_cell_angle_beta                  90.677326
_cell_angle_gamma                 91.308036
_cell_volume                      1233.0776228

loop_
_atom_site_label
_atom_site_type_symbol
_atom_type_description
_atom_site_fract_x
_atom_site_fract_y
_atom_site_fract_z
_atom_type_partial_charge
C1    C     C_R   0.498976 0.261230 0.499972 0.853000
C2    C     C_R   0.489540 0.737893 0.500077 0.836834
C3    C     C_R   0.872132 0.507307 0.502482 -0.082980
C4    C     C_R   0.127989 0.498494 0.496786 -0.069339
C5    C     C_R   0.941898 0.539960 0.612941 -0.011668
C6    C     C_R   0.058199 0.464524 0.386982 -0.003884
C7    C     C_R   0.576803 0.180399 0.049979 -0.165540
C8    C     C_R   0.462474 0.824284 0.956265 -0.149625
C9    C     C_R   0.514646 0.128429 0.154135 -0.074987
C10   C     C_R   0.491793 0.886499 0.843216 -0.114302
C11   C     C_R   0.574882 0.115742 0.273207 0.201314
C12   C     C_R   0.415237 0.873290 0.734838 0.199994
C13   C     C_R   0.698473 0.156267 0.285901 -0.135226
C14   C     C_R   0.306019 0.801668 0.742526 -0.131548
C15   C     C_R   0.760389 0.208165 0.181464 -0.145202
C16   C     C_R   0.275232 0.742621 0.856922 -0.146558
C17   C     C_R   0.699567 0.220249 0.063599 -0.126501
C18   C     C_R   0.354290 0.752338 0.962911 -0.131744
C19   C     C_R   0.480807 0.935520 0.384295 0.431426
C20   C     C_R   0.444192 0.064993 0.608639 0.407768
C21   C     C_R   0.473331 0.871197 0.500462 -0.256241
C22   C     C_R   0.489392 0.127185 0.499373 -0.251966
C23   C     C_R   0.261501 0.497892 0.498895 0.764773
C24   C     C_R   0.738495 0.504187 0.501008 0.796761
C25   C     C_R   0.448383 0.936359 0.613733 -0.182466
C26   C     C_R   0.511258 0.060624 0.385931 -0.180051
C27   C     C_1   0.500321 0.499438 0.072007 0.081996
C28   C     C_1   0.500318 0.499348 0.928006 0.098157
C29   C     C_R   0.170796 0.431219 0.047587 -0.147126
C30   C     C_R   0.847146 0.542539 0.960427 -0.148932
C31   C     C_R   0.123678 0.482938 0.158646 -0.158402
C32   C     C_R   0.893524 0.503192 0.843479 -0.156792
C33   C     C_R   0.112186 0.412046 0.270577 0.143300
C34   C     C_R   0.887350 0.579455 0.734920 0.136800
C35   C     C_R   0.144170 0.287942 0.268769 -0.145694
C36   C     C_R   0.835842 0.696025 0.745250 -0.113841
C37   C     C_R   0.188558 0.236056 0.156641 -0.138393
C38   C     C_R   0.790931 0.735506 0.862817 -0.125247
C39   C     C_R   0.203826 0.308051 0.046914 -0.113791
C40   C     C_R   0.795989 0.658710 0.970127 -0.117330
C41   C     C_R   0.931150 0.471551 0.390627 -0.257539
C42   C     C_R   0.069192 0.535789 0.608011 -0.257491
Cu1   Cu    Cu3+1 0.500000 0.500000 0.625300 0.988242
Cu2   Cu    Cu3+1 0.500000 0.500000 0.374700 0.985201
H1    H     H_    0.240221 0.268076 0.961194 0.127868
H2    H     H_    0.760871 0.689472 0.060895 0.135284
H3    H     H_    0.746783 0.147519 0.376724 0.108057
H4    H     H_    0.244899 0.792192 0.660220 0.096603
H5    H     H_    0.855615 0.238770 0.191818 0.131034
H6    H     H_    0.190376 0.689131 0.863511 0.119186
H7    H     H_    0.180574 0.486011 0.961655 0.124737
H8    H     H_    0.851747 0.483407 0.043742 0.133707
H9    H     H_    0.095692 0.577552 0.157048 0.135325
H10   H     H_    0.934448 0.413651 0.837581 0.131074
H11   H     H_    0.132244 0.231013 0.353072 0.109459
H12   H     H_    0.832141 0.756622 0.662955 0.106031
H13   H     H_    0.209634 0.139722 0.154142 0.102642
H14   H     H_    0.753540 0.826186 0.871144 0.119644
H15   H     H_    0.877937 0.444182 0.306457 0.159703
H16   H     H_    0.122596 0.561566 0.692353 0.155637
H17   H     H_    0.747492 0.260511 0.982860 0.133073
H18   H     H_    0.331499 0.703990 0.050212 0.143953
H19   H     H_    0.529558 0.190143 0.958755 0.168563
H20   H     H_    0.523611 0.831969 0.038554 0.180394
H21   H     H_    0.419705 0.099702 0.141525 0.112663
H22   H     H_    0.574541 0.943783 0.839360 0.121393
N1    N     N_1   0.500010 0.499990 0.186410 -0.137919
N2    N     N_1   0.499990 0.500010 0.813590 -0.133131
O1    O     O_R   0.499990 0.319650 0.605810 -0.534939
O2    O     O_R   0.500010 0.680350 0.394190 -0.540435
O3    O     O_R   0.499990 0.319640 0.394190 -0.574998
O4    O     O_R   0.500010 0.680360 0.605810 -0.572518
O5    O     O_R   0.319640 0.500010 0.605810 -0.596617
O6    O     O_R   0.680360 0.499990 0.394190 -0.584054
O7    O     O_R   0.319650 0.500010 0.394190 -0.580982
O8    O     O_R   0.680350 0.499990 0.605810 -0.570206
O9    O     O_3   0.442418 0.879902 0.271314 -0.604694
C43   C     C_3   0.314042 0.900710 0.254237 0.021388
H23   H     H_    0.294691 0.909219 0.150255 0.162359
H24   H     H_    0.283527 0.988797 0.297004 0.118534
C44   C     C_3   0.234982 0.794503 0.307984 -0.320345
H25   H     H_    0.263684 0.706565 0.265489 0.238938
H26   H     H_    0.247547 0.788762 0.413338 0.193707
C45   C     C_3   0.098358 0.813139 0.279380 -0.961037
H27   H     H_    0.068164 0.901105 0.321138 0.257063
H28   H     H_    0.042957 0.736965 0.322384 0.267486
H29   H     H_    0.081062 0.814225 0.174324 0.255896
O10   O     O_3   0.398231 0.130298 0.711035 -0.601973
C46   C     C_3   0.268568 0.110887 0.719391 0.042357
H30   H     H_    0.246165 0.092391 0.821217 0.155028
H31   H     H_    0.231515 0.030715 0.663478 0.126585
C47   C     C_3   0.200854 0.224675 0.674082 -0.315197
H32   H     H_    0.230712 0.305277 0.732528 0.235015
H33   H     H_    0.224004 0.243182 0.572497 0.198167
C48   C     C_3   0.061470 0.205390 0.684983 -0.965833
H34   H     H_    0.035648 0.192067 0.786774 0.254600
H35   H     H_    0.030000 0.123953 0.628544 0.253640
H36   H     H_    0.013526 0.286607 0.646821 0.272925

loop_
_geom_bond_atom_site_label_1
_geom_bond_atom_site_label_2
_ccdc_geom_bond_type
Cu1   O5    S    
C38   C40   A    
C5    C42   A    
Cu1   O4    S    
C48   H34   S    
C45   H29   S    
C44   H25   S    
C48   H36   S    
O9    C43   S    
C40   H2    S    
C1    O3    A    
C28   N2    T    
C45   H28   S    
C43   H24   S    
C20   C25   A    
Cu2   O3    S    
C7    C9    A    
C19   O9    S    
C19   C26   A    
C30   H8    S    
C17   H17   S    
C38   H14   S    
Cu1   N2    S    
C7    C17   A    
C6    C41   A    
C31   C33   A    
Cu2   O2    S    
C46   H31   S    
C39   H1    S    
C1    O1    A    
C1    C22   S    
Cu1   O1    S    
C3    C24   S    
C23   O5    A    
C2    O4    A    
C32   H10   S    
C44   H26   S    
C10   H22   S    
C37   C39   A    
C35   H11   S    
C45   H27   S    
C41   H15   S    
C4    C6    A    
C23   O7    A    
C13   H3    S    
C4    C23   S    
C43   H23   S    
C24   O8    A    
C14   H4    S    
C11   C26   S    
C47   C48   S    
C8    C18   A    
C32   C34   A    
Cu2   O7    S    
Cu1   Cu2   S    
C36   H12   S    
C5    C34   S    
C29   C39   A    
C2    C21   S    
C47   H33   S    
C30   C40   A    
C31   H9    S    
C46   C47   S    
Cu2   O6    S    
C9    C11   A    
C7    H19   S    
C10   C12   A    
C8    H20   S    
C8    C10   A    
C20   C22   A    
C13   C15   A    
C14   C16   A    
C42   H16   S    
C44   C45   S    
C29   H7    S    
Cu1   O8    S    
C15   C17   A    
C21   C25   A    
C3    C41   A    
C35   C37   A    
C18   H18   S    
C16   H6    S    
C3    C5    A    
C48   H35   S    
C6    C33   S    
C12   C25   S    
C36   C38   A    
C12   C14   A    
C29   C31   A    
C30   C32   A    
C11   C13   A    
C43   C44   S    
C24   O6    A    
C4    C42   A    
C20   O10   S    
C47   H32   S    
C33   C35   A    
C34   C36   A    
C15   H5    S    
C9    H21   S    
C27   N1    T    
O10   C46   S    
C16   C18   A    
C22   C26   A    
C27   C28   S    
Cu2   N1    S    
C46   H30   S    
C2    O2    A    
C37   H13   S    
C19   C21   A    
