data_mof_unit_2805.cif
_audit_creation_date              2012-10-26T19:58:18-0400
_audit_creation_method            fapswitch 2.2
_symmetry_space_group_name_H-M    P1
_symmetry_Int_Tables_number       1
_space_group_crystal_system       triclinic
_cell_length_a                    7.452563
_cell_length_b                    8.691233
_cell_length_c                    13.403367
_cell_angle_alpha                 94.410179
_cell_angle_beta                  77.575254
_cell_angle_gamma                 103.284798
_cell_volume                      824.797173511

loop_
_atom_site_label
_atom_site_type_symbol
_atom_type_description
_atom_site_fract_x
_atom_site_fract_y
_atom_site_fract_z
_atom_type_partial_charge
C1    C     C_R   0.545412 0.800207 0.503083 0.534299
C2    C     C_R   0.338293 0.495610 0.806499 -0.006169
C3    C     C_2   0.570858 0.968260 0.504527 -0.151222
C4    C     C_R   0.399988 0.498163 0.694380 0.522923
C5    C     C_2   0.429148 0.031752 0.495514 -0.157616
C6    C     C_R   0.454572 0.199802 0.496957 0.549537
C7    C     C_R   0.601249 0.511065 0.306045 0.544354
C8    C     C_R   0.879092 0.675962 0.054385 -0.129756
C9    C     C_R   0.661630 0.536803 0.196167 -0.004627
C10   C     C_R   0.153646 0.417063 0.847935 -0.135782
C11   C     C_R   0.099310 0.387090 0.951475 -0.137309
C12   C     C_R   0.417988 0.507913 0.975603 0.030729
C13   C     C_R   0.229714 0.428732 0.014551 -0.124434
C14   C     C_R   0.466844 0.553892 0.872238 0.026456
C15   C     C_R   0.558929 0.544555 0.035956 0.027441
C16   C     C_R   0.739295 0.638413 0.995496 0.047904
C17   C     C_R   0.776734 0.697296 0.897756 -0.142395
C18   C     C_R   0.641848 0.658015 0.837686 -0.125469
C19   C     C_R   0.526515 0.490371 0.135455 -0.131367
C20   C     C_R   0.840132 0.626076 0.154610 -0.137692
Cu1   Cu    Cu3+1 0.321300 0.483160 0.488710 0.978407
Cu2   Cu    Cu3+1 0.678700 0.516840 0.511290 1.019418
H1    H     H_    0.946203 0.663033 0.200731 0.139212
H2    H     H_    0.675655 0.713925 0.764726 0.136661
H3    H     H_    0.707273 0.040045 0.512994 0.149213
H4    H     H_    0.075206 0.308405 0.365591 0.326873
H5    H     H_    0.292739 0.959963 0.487043 0.131637
H6    H     H_    0.009679 0.616179 0.580841 0.191289
H7    H     H_    0.911066 0.774489 0.867503 0.107075
H8    H     H_    0.017024 0.747383 0.023714 0.118561
H9    H     H_    0.395189 0.413795 0.168892 0.116226
H10   H     H_    0.052097 0.374366 0.799680 0.138659
H11   H     H_    0.176936 0.400568 0.093836 0.112375
H12   H     H_    0.956008 0.327157 0.982743 0.131584
N1    N     N_2   0.947230 0.542220 0.528320 -0.171717
N2    N     N_2   0.052770 0.457780 0.471680 0.024291
O1    O     O_R   0.383920 0.714220 0.492660 -0.517906
O2    O     O_R   0.685730 0.742660 0.511730 -0.514303
O3    O     O_R   0.275440 0.478800 0.636790 -0.522781
O4    O     O_R   0.577250 0.507240 0.655860 -0.514549
O5    O     O_R   0.314270 0.257340 0.488270 -0.513630
O6    O     O_R   0.616080 0.285780 0.507340 -0.442508
O7    O     O_R   0.422750 0.492760 0.344140 -0.519038
O8    O     O_R   0.724560 0.521200 0.363210 -0.444959
O9    O     O_3   0.975226 0.362188 0.401920 -0.559893

loop_
_geom_bond_atom_site_label_1
_geom_bond_atom_site_label_2
_ccdc_geom_bond_type
C2    C4    S    
C4    O3    A    
C13   H11   S    
Cu1   O7    S    
C7    O7    A    
C17   H7    S    
C14   C18   A    
C9    C20   A    
N1    N2    D    
Cu1   O3    S    
C12   C15   A    
C1    O1    A    
Cu2   O4    S    
C8    H8    S    
C17   C18   A    
C19   H9    S    
N2    O9    S    
C8    C16   A    
Cu1   N2    S    
C8    C20   A    
C7    O8    A    
C15   C19   A    
Cu2   N1    S    
C11   C13   A    
Cu2   O6    S    
C1    O2    A    
Cu1   O5    S    
Cu1   Cu2   S    
C12   C14   A    
C5    C6    S    
C2    C14   A    
C18   H2    S    
C10   C11   A    
C15   C16   A    
C2    C10   A    
C10   H10   S    
C3    H3    S    
Cu1   O1    S    
C12   C13   A    
C6    O6    A    
C7    C9    S    
H4    O9    S    
C3    C5    D    
C5    H5    S    
C20   H1    S    
C9    C19   A    
C11   H12   S    
Cu2   O8    S    
C4    O4    A    
H6    N1    S    
C16   C17   A    
C1    C3    S    
C6    O5    A    
Cu2   O2    S    
