data_mof_unit_1903.cif
_audit_creation_date              2013-03-05T16:08:21-0500
_audit_creation_method            fapswitch 2.2
_symmetry_space_group_name_H-M    P1
_symmetry_Int_Tables_number       1
_space_group_crystal_system       triclinic
_cell_length_a                    6.960139
_cell_length_b                    14.51025
_cell_length_c                    16.159975
_cell_angle_alpha                 89.995955
_cell_angle_beta                  90.107053
_cell_angle_gamma                 90.253544
_cell_volume                      1632.03129163

loop_
_atom_site_label
_atom_site_type_symbol
_atom_site_description
_atom_site_fract_x
_atom_site_fract_y
_atom_site_fract_z
_atom_type_partial_charge
O1    O     O_R   0.505700 0.583890 0.413310 -0.607493
O2    O     O_R   0.175960 0.594920 0.586080 -0.577356
O3    O     O_R   0.005660 0.416110 0.586690 -0.621161
C1    C     C_R   0.345148 0.616604 0.615184 1.081457
O4    O     O_R   0.175980 0.594920 0.413930 -0.559739
O5    O     O_R   0.005680 0.416110 0.413310 -0.564265
C2    C     C_R   0.345015 0.616877 0.385019 1.064953
O6    O     O_R   0.505680 0.583890 0.586690 -0.599779
O7    O     O_3   0.339200 0.441330 0.500000 -0.269341
V1    V     V_3+5 0.064350 0.510880 0.500000 1.283254
O8    O     O_R   0.675960 0.405080 0.413920 -0.560667
C3    C     C_R   0.844580 0.386685 0.382418 0.979419
O9    O     O_R   0.675940 0.405080 0.586070 -0.578202
C4    C     C_R   0.844530 0.383763 0.615400 0.954808
V2    V     V_3+5 0.564340 0.489120 0.500000 1.269349
O10   O     O_3   0.839360 0.558670 0.500000 -0.260960
C5    C     C_R   0.998591 0.322725 0.746105 0.112286
C6    C     C_R   0.851479 0.319137 0.686673 -0.238471
C7    C     C_R   0.701860 0.255163 0.700833 -0.077131
H1    H     H_    0.581235 0.251301 0.658698 0.128945
C8    C     C_R   0.712201 0.191302 0.766609 -0.078644
H2    H     H_    0.597774 0.141307 0.773465 0.162787
C9    C     C_R   0.874294 0.187998 0.819224 -0.204055
C10   C     C_R   0.011071 0.257967 0.809427 0.143469
C11   C     C_3   0.224681 0.255041 0.806255 -0.575270
C12   C     C_3   0.212306 0.327739 0.738104 0.181664
H3    H     H_    0.276759 0.187373 0.783644 0.185985
H4    H     H_    0.291983 0.279556 0.864743 0.234251
H5    H     H_    0.265832 0.304772 0.676751 0.076537
C13   C     C_R   0.755703 0.174829 0.249559 0.218639
C14   C     C_R   0.881138 0.185715 0.182553 -0.238324
C15   C     C_R   0.002156 0.263555 0.182915 -0.253702
H6    H     H_    0.099821 0.274369 0.131635 0.172295
C16   C     C_R   0.988039 0.332186 0.245030 0.462250
C17   C     C_R   0.858533 0.319898 0.312732 -0.313125
C18   C     C_R   0.747517 0.239018 0.313601 -0.097172
C19   C     C_3   0.534796 0.227829 0.321171 0.668770
C20   C     C_3   0.543249 0.159109 0.250650 -0.539565
H7    H     H_    0.489297 0.197882 0.381369 0.030304
H8    H     H_    0.471383 0.183295 0.193105 0.217436
H9    H     H_    0.501612 0.088668 0.270629 0.212711
C21   C     C_R   0.498842 0.751822 0.689205 0.065675
C22   C     C_R   0.353981 0.684499 0.684079 -0.259289
C23   C     C_R   0.210332 0.686386 0.745751 -0.185433
H10   H     H_    0.094104 0.636610 0.744119 0.162012
C24   C     C_R   0.221794 0.748619 0.813074 0.805326
C25   C     C_R   0.375360 0.812257 0.819403 -0.408667
C26   C     C_R   0.508533 0.813308 0.755251 0.033212
C27   C     C_3   0.722223 0.810851 0.759548 0.082853
C28   C     C_3   0.713749 0.744813 0.685592 0.009938
H11   H     H_    0.774857 0.779167 0.817729 0.141694
H12   H     H_    0.767984 0.674300 0.698559 0.086027
C29   C     C_R   0.501217 0.750961 0.310768 0.006243
C30   C     C_R   0.353821 0.684932 0.316248 -0.201613
C31   C     C_R   0.211098 0.686762 0.253970 0.002236
H13   H     H_    0.093060 0.638028 0.255655 0.158052
C32   C     C_R   0.225130 0.748193 0.186212 -0.014788
H14   H     H_    0.119109 0.745043 0.137403 0.201829
C33   C     C_R   0.378665 0.811321 0.179975 -0.172784
C34   C     C_R   0.513800 0.811350 0.243698 0.000215
C35   C     C_3   0.726924 0.802203 0.238482 0.790908
C36   C     C_3   0.714944 0.740332 0.314950 -0.112156
H15   H     H_    0.764805 0.668456 0.305016 0.126078
O11   O     O_R   0.229000 0.916070 0.913330 -0.547222
O12   O     O_R   0.558770 0.905070 0.086080 -0.553875
O13   O     O_R   0.729000 0.083900 0.086690 -0.589304
C37   C     C_R   0.389480 0.880448 0.112529 0.985599
O14   O     O_R   0.558720 0.905070 0.913930 -0.600740
O15   O     O_R   0.728960 0.083900 0.913310 -0.604597
C38   C     C_R   0.388817 0.880642 0.887372 1.054319
O16   O     O_R   0.229050 0.916070 0.086710 -0.577125
O17   O     O_3   0.395460 0.058650 0.000020 -0.305804
V3    V     V_3+5 0.670340 0.989120 0.000000 1.276757
O18   O     O_R   0.058670 0.094960 0.913900 -0.603210
C39   C     C_R   0.889449 0.117206 0.885326 0.998455
O19   O     O_R   0.058720 0.094960 0.086050 -0.608631
C40   C     C_R   0.889881 0.117490 0.114307 1.038931
V4    V     V_3+5 0.170330 0.010930 0.999970 1.253566
O20   O     O_3   0.895340 0.941350 0.999980 -0.232029
F1    F     F_    0.090352 0.742380 0.874676 -0.695578
N1    N     N_R   0.811243 0.900555 0.741982 0.289838
O21   O     O_R   0.707400 0.974367 0.733744 -0.387716
O22   O     O_R   0.997135 0.907437 0.736951 -0.362567
N2    N     N_R   0.791964 0.785207 0.610007 0.292483
O23   O     O_R   0.706326 0.854985 0.575615 -0.258188
O24   O     O_R   0.968774 0.767565 0.590072 -0.312107
N3    N     N_R   0.830334 0.889477 0.249888 0.246963
O25   O     O_R   0.011680 0.890000 0.269150 -0.369077
O26   O     O_R   0.742650 0.967479 0.240262 -0.447323
F2    F     F_    0.782900 0.755709 0.167882 -0.716545
N4    N     N_R   0.794550 0.783504 0.389211 0.275481
O27   O     O_R   0.952858 0.751810 0.420603 -0.311644
O28   O     O_R   0.730151 0.862789 0.414377 -0.277952
N5    N     N_R   0.289568 0.416997 0.764596 0.246092
O29   O     O_R   0.215767 0.460776 0.827211 -0.369134
O30   O     O_R   0.444451 0.449200 0.730154 -0.421642
N6    N     N_R   0.084261 0.418534 0.230906 0.227488
O31   O     O_R   0.072873 0.457257 0.158443 -0.377074
O32   O     O_R   0.208722 0.450269 0.283752 -0.358080
F3    F     F_    0.437649 0.306820 0.299158 -0.643520

loop_
_geom_bond_atom_site_label_1
_geom_bond_atom_site_label_2
_geom_bond_distance
_ccdc_geom_bond_type
C12   N5    1.463884 S    
C24   F1    1.356032 S    
N3    O25   1.299431 A    
C4    C6    1.486036 S    
C7    H1    1.081247 S    
C1    O6    1.300930 A    
N1    O21   1.301423 A    
C28   N2    1.459925 S    
C29   C30   1.403521 A    
C35   F2    1.382984 S    
C11   H4    1.111852 S    
C36   H15   1.112379 S    
C5    C12   1.494780 S    
C18   C19   1.493969 S    
C7    C8    1.412037 A    
O19   V4    2.009431 S    
C6    C7    1.410966 A    
O5    C3    1.297103 A    
C13   C14   1.400695 A    
C32   C33   1.408156 A    
V2    O10   2.159963 S    
C16   N6    1.436509 S    
O12   V3    2.005203 S    
C13   C20   1.495333 S    
C16   C17   1.429499 A    
C27   N1    1.467024 S    
O17   V4    1.710305 S    
C35   N3    1.465332 S    
N6    O32   1.298284 A    
C30   C31   1.413093 A    
O8    V2    2.009549 S    
C14   C15   1.405985 A    
C27   H11   1.108916 S    
C28   H12   1.111923 S    
C9    C10   1.397885 A    
O15   V3    2.004323 S    
O1    V2    2.005663 S    
O11   C38   1.297840 A    
O7    V1    2.166817 S    
C33   C37   1.482959 S    
C33   C34   1.393361 A    
O9    C4    1.303200 A    
C35   C36   1.529543 S    
N1    O22   1.299933 A    
C29   C34   1.396337 A    
C23   C24   1.415839 A    
N6    O31   1.301218 A    
O19   C40   1.304518 A    
C8    C9    1.412426 A    
C5    C10   1.392070 A    
O18   C39   1.306118 A    
C10   C11   1.488526 S    
C20   H9    1.109338 S    
N4    O27   1.298184 A    
O4    C2    1.304859 A    
V4    O20   2.159980 S    
O12   C37   1.302619 A    
C11   C12   1.527530 S    
O13   V3    2.003446 S    
C34   C35   1.492423 S    
C17   C18   1.402336 A    
C15   C16   1.417859 A    
O2    C1    1.304431 A    
C22   C23   1.413356 A    
C25   C38   1.482832 S    
C19   C20   1.515727 S    
N4    O28   1.301970 A    
C29   C36   1.497622 S    
C25   C26   1.391970 A    
C36   N4    1.460849 S    
C31   H13   1.081989 S    
C5    C6    1.403351 A    
V3    O20   1.715378 S    
C21   C26   1.392473 A    
N2    O23   1.301281 A    
C3    C17   1.489347 S    
N5    O30   1.299223 A    
O3    C4    1.300209 A    
C21   C28   1.500930 S    
C26   C27   1.489383 S    
O6    V2    2.006890 S    
C31   C32   1.415118 A    
C21   C22   1.403105 A    
O2    V1    2.003328 S    
C23   H10   1.082375 S    
O13   C40   1.297659 A    
C24   C25   1.412946 A    
C14   C40   1.483560 S    
O1    C2    1.300657 A    
O11   V4    2.007239 S    
C9    C39   1.485844 S    
O17   V3    2.166866 S    
O5    V1    2.003363 S    
O8    C3    1.308739 A    
C1    C22   1.487700 S    
C11   H3    1.110258 S    
C13   C18   1.393780 A    
C15   H6    1.083769 S    
O9    V2    2.007251 S    
O14   V3    2.003333 S    
O4    V1    2.005166 S    
C19   H7    1.111451 S    
O3    V1    2.004321 S    
V1    O10   1.715433 S    
C20   H8    1.112607 S    
C32   H14   1.079943 S    
O15   C39   1.297261 A    
C37   O16   1.300551 A    
C19   F3    1.379617 S    
O7    V2    1.710776 S    
N5    O29   1.302361 A    
C12   H5    1.111472 S    
O14   C38   1.304861 A    
C27   C28   1.532772 S    
O18   V4    2.007327 S    
N3    O26   1.297473 A    
N2    O24   1.299240 A    
C2    C30   1.487804 S    
C8    H2    1.080758 S    
O16   V4    2.007238 S    
