data_mof_unit_1289.cif
_audit_creation_date              2012-12-10T16:49:30-0500
_audit_creation_method            fapswitch 2.2
_symmetry_space_group_name_H-M    P1
_symmetry_Int_Tables_number       1
_space_group_crystal_system       triclinic
_cell_length_a                    7.942099
_cell_length_b                    8.563895
_cell_length_c                    12.701918
_cell_angle_alpha                 87.704213
_cell_angle_beta                  86.923891
_cell_angle_gamma                 92.146697
_cell_volume                      861.308107703

loop_
_atom_site_label
_atom_site_type_symbol
_atom_type_description
_atom_site_fract_x
_atom_site_fract_y
_atom_site_fract_z
_atom_type_partial_charge
C1    C     C_R   0.455991 0.206277 0.498982 0.932344
C2    C     C_R   0.582964 0.321925 0.150005 0.152335
C3    C     C_R   0.495017 0.405870 0.873352 -0.319391
C4    C     C_R   0.507784 0.595364 0.126250 -0.328709
C5    C     C_R   0.515765 0.426941 0.978854 0.155707
C6    C     C_R   0.484742 0.573743 0.020985 0.154475
C7    C     C_2   0.432082 0.042988 0.499693 -0.405023
C8    C     C_2   0.566805 0.956595 0.492719 -0.394739
C9    C     C_3   0.612518 0.178343 0.219373 -0.416787
C10   C     C_3   0.788019 0.113299 0.199501 -0.368651
C11   C     C_3   0.928617 0.225412 0.231000 -0.786031
C12   C     C_R   0.543930 0.793520 0.499154 0.928867
C13   C     C_3   0.359588 0.815696 0.783380 -0.419833
C14   C     C_3   0.174928 0.857089 0.805670 -0.368286
C15   C     C_3   0.051218 0.735897 0.764656 -0.761176
C16   C     C_3   0.999593 0.611740 0.373906 -0.144202
C17   C     C_3   0.106750 0.756818 0.332767 -0.378588
C18   C     C_3   0.082629 0.790104 0.215505 -0.971497
C19   C     C_3   0.995488 0.356677 0.614412 -0.159616
C20   C     C_3   0.943716 0.184606 0.599518 -0.346159
C21   C     C_3   0.817198 0.118629 0.686609 -0.872457
C22   C     C_R   0.466103 0.509083 0.698784 0.855549
C23   C     C_R   0.533915 0.492005 0.301133 0.854122
C24   C     C_R   0.553331 0.470612 0.190509 -0.059530
C25   C     C_R   0.445962 0.529543 0.809487 -0.067709
C26   C     C_R   0.428197 0.696071 0.957859 -0.250198
C27   C     C_R   0.567057 0.303009 0.042580 -0.243925
C28   C     C_R   0.408231 0.675990 0.850833 0.149088
H1    H     H_    0.481466 0.707120 0.159952 0.140694
H2    H     H_    0.792946 0.003290 0.248261 0.211622
H3    H     H_    0.809358 0.084955 0.115354 0.217722
H4    H     H_    0.515871 0.085850 0.204096 0.158701
H5    H     H_    0.595195 0.201182 0.303930 0.211931
H6    H     H_    0.919854 0.771041 0.782244 0.230842
H7    H     H_    0.071780 0.727940 0.677840 0.267099
H8    H     H_    0.066879 0.619314 0.803620 0.255214
H9    H     H_    0.147840 0.868972 0.891686 0.219822
H10   H     H_    0.154507 0.972184 0.765880 0.207634
H11   H     H_    0.442635 0.918083 0.800306 0.158522
H12   H     H_    0.523477 0.294746 0.839503 0.132392
H13   H     H_    0.381155 0.797909 0.698121 0.216925
H14   H     H_    0.138724 0.696684 0.168295 0.279622
H15   H     H_    0.946687 0.793949 0.200097 0.263104
H16   H     H_    0.146813 0.903477 0.189329 0.257019
H17   H     H_    0.069704 0.859838 0.378088 0.201591
H18   H     H_    0.242023 0.743604 0.340328 0.286611
H19   H     H_    0.000738 0.521873 0.313563 0.182993
H20   H     H_    0.874297 0.657173 0.384735 0.223215
H21   H     H_    0.873769 0.123620 0.764564 0.237594
H22   H     H_    0.700651 0.185790 0.689078 0.285105
H23   H     H_    0.403906 0.808263 0.991215 0.135802
H24   H     H_    0.783464 0.994612 0.672334 0.250037
H25   H     H_    0.895826 0.170471 0.520277 0.232658
H26   H     H_    0.056680 0.111828 0.601724 0.183507
H27   H     H_    0.128874 0.355529 0.620376 0.212311
H28   H     H_    0.940957 0.399172 0.689867 0.173635
H29   H     H_    0.586783 0.189708 0.009706 0.133359
H30   H     H_    0.303472 0.994004 0.507972 0.174944
H31   H     H_    0.694511 0.004817 0.481358 0.180783
H32   H     H_    0.929348 0.336419 0.182697 0.259492
H33   H     H_    0.911116 0.249723 0.316031 0.256707
H34   H     H_    0.052643 0.171922 0.217575 0.232952
N1    N     N_2   0.054030 0.541640 0.471970 -0.073315
N2    N     N_2   0.945970 0.458360 0.528030 -0.065145
O1    O     O_R   0.609680 0.261530 0.506880 -0.607035
O2    O     O_R   0.390320 0.738470 0.493120 -0.633505
O3    O     O_R   0.323330 0.288220 0.488910 -0.643389
O4    O     O_R   0.676670 0.711780 0.511090 -0.644238
O5    O     O_R   0.619510 0.488830 0.661140 -0.606745
O6    O     O_R   0.380490 0.511170 0.338860 -0.616128
O7    O     O_R   0.333160 0.515520 0.643180 -0.652625
O8    O     O_R   0.666840 0.484480 0.356820 -0.655035
Zn1   Zn    Zn3+2 0.691200 0.482180 0.511990 0.906205
Zn2   Zn    Zn3+2 0.308800 0.517820 0.488010 0.898813

loop_
_geom_bond_atom_site_label_1
_geom_bond_atom_site_label_2
_ccdc_geom_bond_type
C19   H28   S    
O6    Zn2   S    
O7    Zn2   S    
C1    O1    A    
C23   C24   S    
C13   C28   S    
O5    Zn1   S    
C2    C27   A    
C16   N1    S    
C18   H16   S    
C14   H10   S    
C9    C10   S    
C10   H2    S    
C7    H30   S    
C26   C28   A    
C19   C20   S    
C9    H4    S    
C19   N2    S    
C8    C12   S    
C11   H34   S    
C16   H20   S    
C21   H21   S    
C17   C18   S    
C7    C8    D    
O3    Zn2   S    
C5    C27   A    
C18   H15   S    
C20   C21   S    
C14   H9    S    
C9    H5    S    
C12   O4    A    
C23   O6    A    
C6    C26   A    
C10   H3    S    
C16   H19   S    
C13   H13   S    
C21   H22   S    
C1    O3    A    
N2    Zn1   S    
C3    H12   S    
C18   H14   S    
C8    H31   S    
C2    C24   A    
C5    C6    A    
C4    C24   A    
C13   H11   S    
C26   H23   S    
C11   H32   S    
C10   C11   S    
N1    N2    D    
O2    Zn2   S    
C3    C5    A    
C15   H8    S    
C3    C25   A    
O1    Zn1   S    
C17   H18   S    
C4    C6    A    
C27   H29   S    
C19   H27   S    
C22   O7    A    
C15   H7    S    
C22   O5    A    
C14   C15   S    
C20   H25   S    
C15   H6    S    
C13   C14   S    
C11   H33   S    
O4    Zn1   S    
C1    C7    S    
C2    C9    S    
C12   O2    A    
C23   O8    A    
C22   C25   S    
C21   H24   S    
C20   H26   S    
C4    H1    S    
C16   C17   S    
C17   H17   S    
O8    Zn1   S    
C25   C28   A    
N1    Zn2   S    
