data_mof_unit_3739.cif
_audit_creation_date              2012-12-11T14:22:59-0500
_audit_creation_method            fapswitch 2.2
_symmetry_space_group_name_H-M    P1
_symmetry_Int_Tables_number       1
_space_group_crystal_system       triclinic
_cell_length_a                    11.308444
_cell_length_b                    11.091775
_cell_length_c                    18.749957
_cell_angle_alpha                 90.500323
_cell_angle_beta                  89.757008
_cell_angle_gamma                 60.228485
_cell_volume                      2041.23194435

loop_
_atom_site_label
_atom_site_type_symbol
_atom_type_description
_atom_site_fract_x
_atom_site_fract_y
_atom_site_fract_z
_atom_type_partial_charge
C1    C     C_R   0.220666 0.654289 0.602854 0.538003
C2    C     C_3   0.668465 0.550703 0.803136 -0.250597
C3    C     C_3   0.697024 0.671201 0.814400 -0.024720
C4    C     C_3   0.660609 0.647759 0.678801 0.019436
C5    C     C_3   0.792710 0.651655 0.688546 -0.303706
C6    C     C_3   0.675993 0.520383 0.722961 -0.202477
C7    C     C_R   0.695056 0.129084 0.816327 -0.006769
C8    C     C_R   0.788783 0.157186 0.781428 -0.018731
C9    C     C_R   0.793325 0.157128 0.705415 0.010165
C10   C     C_R   0.625178 0.088185 0.699364 -0.144544
C11   C     C_R   0.607778 0.101733 0.772928 0.210347
C12   C     C_R   0.648665 0.619194 0.602721 0.529165
C13   C     C_R   0.881412 0.180803 0.819673 -0.140968
C14   C     C_R   0.997271 0.162770 0.786150 -0.139508
C15   C     C_R   0.010301 0.148514 0.712349 -0.138257
C16   C     C_R   0.905081 0.155412 0.671504 -0.123908
C17   C     C_R   0.693890 0.143966 0.666021 -0.046054
C18   C     C_R   0.097439 0.710024 0.818611 0.000321
C19   C     C_R   0.118033 0.588682 0.780568 0.042803
C20   C     C_R   0.125132 0.585906 0.704620 0.035418
C21   C     C_R   0.096096 0.813774 0.704565 -0.074696
C22   C     C_R   0.081236 0.822438 0.778571 -0.087443
C23   C     C_R   0.631792 0.224146 0.600480 0.542630
C24   C     C_R   0.127519 0.470724 0.813595 -0.041019
C25   C     C_R   0.128578 0.365540 0.773385 -0.041210
C26   C     C_R   0.120997 0.372022 0.699643 -0.071005
C27   C     C_R   0.120877 0.480148 0.665552 -0.085913
C28   C     C_R   0.135319 0.689204 0.668555 -0.002458
C29   C     C_R   0.662009 0.675400 0.170532 0.004550
C30   C     C_R   0.724217 0.541129 0.199275 0.026513
C31   C     C_R   0.755151 0.526541 0.272194 0.042405
C32   C     C_R   0.612089 0.775794 0.290353 -0.164427
C33   C     C_R   0.614777 0.791331 0.216789 -0.138872
C34   C     C_R   0.283474 0.623351 0.392368 0.552281
C35   C     C_R   0.776693 0.421446 0.154961 -0.078584
C36   C     C_R   0.886091 0.297283 0.177243 -0.115581
C37   C     C_R   0.934336 0.286813 0.246103 -0.149699
C38   C     C_R   0.869284 0.398949 0.293568 -0.082641
C39   C     C_R   0.675776 0.643280 0.318871 0.004355
C40   C     C_R   0.654985 0.156770 0.176646 -0.003962
C41   C     C_R   0.526676 0.206869 0.209147 0.019204
C42   C     C_R   0.522867 0.186939 0.282535 0.035604
C43   C     C_R   0.761767 0.125174 0.291949 -0.152595
C44   C     C_R   0.772216 0.110415 0.219010 -0.138987
C45   C     C_R   0.645219 0.620566 0.392553 0.534528
C46   C     C_R   0.404655 0.262770 0.169643 -0.080026
C47   C     C_R   0.287409 0.272593 0.199367 -0.124479
C48   C     C_R   0.287512 0.235946 0.269846 -0.155121
C49   C     C_R   0.404700 0.189259 0.310457 -0.093525
C50   C     C_R   0.637121 0.167358 0.324533 0.004207
C51   C     C_R   0.176019 0.654058 0.174269 -0.003174
C52   C     C_R   0.256575 0.710847 0.196777 0.025756
C53   C     C_R   0.273271 0.721835 0.270338 0.019733
C54   C     C_R   0.177903 0.569962 0.292077 -0.134072
C55   C     C_R   0.136651 0.584719 0.222087 -0.153652
C56   C     C_R   0.614670 0.228264 0.395839 0.534701
C57   C     C_R   0.302514 0.775608 0.147980 -0.082440
C58   C     C_R   0.323360 0.882297 0.171072 -0.109827
C59   C     C_R   0.318842 0.909872 0.243470 -0.147628
C60   C     C_R   0.306901 0.823432 0.292675 -0.104518
C61   C     C_R   0.245073 0.638752 0.317512 0.010324
C62   C     C_R   0.705008 0.093434 0.893661 0.504256
C63   C     C_R   0.724171 0.686640 0.889435 0.527163
C64   C     C_R   0.064063 0.736478 0.896324 0.539903
C65   C     C_R   0.676410 0.105626 0.103676 0.525851
C66   C     C_R   0.697654 0.691109 0.097617 0.529464
C67   C     C_3   0.576382 0.804525 0.788449 -0.136088
C68   C     C_R   0.097301 0.706452 0.110046 0.546714
C69   C     C_3   0.547065 0.792909 0.710148 0.153133
C70   C     C_3   0.819601 0.649374 0.768829 -0.258629
Cr1   Cr    Cr6+3 0.392940 0.397950 0.502230 1.015886
Cr2   Cr    Cr6+3 0.398400 0.708500 0.501260 1.047548
Cr3   Cr    Cr6+3 0.708640 0.393530 0.496460 0.989171
Cr4   Cr    Cr6+3 0.937880 0.938320 0.007620 0.994536
Cr5   Cr    Cr6+3 0.625560 0.937220 0.994510 1.048658
Cr6   Cr    Cr6+3 0.938080 0.625010 0.001190 0.992059
H1    H     H_    0.603712 0.885845 0.793488 0.146298
H2    H     H_    0.778269 0.429903 0.711377 0.157797
H3    H     H_    0.896480 0.544842 0.781546 0.165789
H4    H     H_    0.875986 0.560295 0.661680 0.151805
H5    H     H_    0.559090 0.067700 0.666429 0.174892
H6    H     H_    0.873050 0.201522 0.876239 0.146436
H7    H     H_    0.082130 0.139965 0.819852 0.170072
H8    H     H_    0.106377 0.117926 0.686901 0.202782
H9    H     H_    0.922254 0.138069 0.614633 0.142014
H10   H     H_    0.096642 0.896887 0.676246 0.192919
H11   H     H_    0.490100 0.830023 0.825496 0.229469
H12   H     H_    0.143479 0.447619 0.869174 0.173996
H13   H     H_    0.062793 0.915304 0.805754 0.178563
H14   H     H_    0.146350 0.275280 0.800757 0.173940
H15   H     H_    0.123644 0.291255 0.667035 0.130903
H16   H     H_    0.107764 0.484547 0.608308 0.119737
H17   H     H_    0.561363 0.866583 0.324834 0.113256
H18   H     H_    0.742554 0.427304 0.100543 0.121141
H19   H     H_    0.576703 0.894833 0.195950 0.149334
H20   H     H_    0.935264 0.210055 0.140482 0.122352
H21   H     H_    0.021316 0.190749 0.263044 0.106790
H22   H     H_    0.918055 0.385981 0.344441 0.141749
H23   H     H_    0.850908 0.103013 0.322898 0.134111
H24   H     H_    0.400311 0.295411 0.115020 0.133726
H25   H     H_    0.873858 0.060290 0.196195 0.156925
H26   H     H_    0.196651 0.308005 0.167586 0.121997
H27   H     H_    0.197538 0.240986 0.293049 0.099069
H28   H     H_    0.402265 0.149729 0.362585 0.138365
H29   H     H_    0.147834 0.513043 0.327449 0.145615
H30   H     H_    0.308212 0.754200 0.091200 0.133807
H31   H     H_    0.068286 0.547425 0.206269 0.142651
H32   H     H_    0.552348 0.875265 0.679860 0.116493
H33   H     H_    0.345068 0.942018 0.133174 0.130909
H34   H     H_    0.338909 0.989357 0.262070 0.118228
H35   H     H_    0.319146 0.845306 0.346991 0.168078
H36   H     H_    0.850471 0.727465 0.782463 0.111214
H37   H     H_    0.787194 0.745288 0.663886 0.100911
H38   H     H_    0.744704 0.456922 0.831434 0.132212
H39   H     H_    0.566129 0.578372 0.824683 0.177098
H40   H     H_    0.606475 0.481371 0.708466 0.141660
O1    O     O_R   0.507340 0.255690 0.581430 -0.486031
O2    O     O_R   0.524510 0.695820 0.424050 -0.528691
O3    O     O_R   0.736370 0.504260 0.414810 -0.533108
O4    O     O_R   0.691220 0.277270 0.422180 -0.501308
O5    O     O_3   0.499990 0.499990 0.499980 -0.286571
O6    O     O_R   0.089570 0.825450 0.930590 -0.502609
O7    O     O_R   0.818700 0.054260 0.929860 -0.538675
O8    O     O_R   0.606310 0.077010 0.915520 -0.456455
O9    O     O_R   0.646730 0.806540 0.917560 -0.494735
O10   O     O_R   0.837290 0.593240 0.915240 -0.541986
O11   O     O_R   0.065320 0.635310 0.931580 -0.530643
O12   O     O_R   0.280360 0.527380 0.578910 -0.502556
O13   O     O_R   0.068470 0.828620 0.091850 -0.524092
O14   O     O_R   0.799150 0.057200 0.079350 -0.515809
O15   O     O_R   0.585220 0.080180 0.076770 -0.525836
O16   O     O_R   0.627170 0.809480 0.067050 -0.506561
O17   O     O_R   0.816200 0.596410 0.076500 -0.521844
O18   O     O_R   0.045770 0.638240 0.081070 -0.505079
O19   O     O_3   0.833840 0.833520 0.001110 -0.278927
O20   O     O_R   0.260600 0.739610 0.584580 -0.457784
O21   O     O_R   0.532370 0.695050 0.573830 -0.460770
O22   O     O_R   0.744850 0.503430 0.576380 -0.536030
O23   O     O_R   0.699080 0.276500 0.571950 -0.519353
O24   O     O_R   0.498860 0.256520 0.419860 -0.543147
O25   O     O_R   0.272490 0.528150 0.429140 -0.513722
O26   O     O_R   0.252110 0.740440 0.423010 -0.545286
S1    S     S_3+6 0.438686 0.161755 0.798247 -0.020491
O27   O     O_2   0.364898 0.155081 0.733524 -0.288169
O28   O     O_2   0.411535 0.086529 0.856761 -0.290433
O29   O     O_3   0.390463 0.324746 0.824479 -0.534185
H41   H     H_    0.408469 0.319940 0.876310 0.347659
S2    S     S_3+6 0.374678 0.836546 0.706159 -0.015055
O30   O     O_2   0.291814 0.939053 0.763811 -0.291908
O31   O     O_2   0.318420 0.904955 0.636116 -0.287909
O32   O     O_3   0.370238 0.690148 0.720354 -0.532029
H42   H     H_    0.414579 0.631433 0.678148 0.350743

loop_
_geom_bond_atom_site_label_1
_geom_bond_atom_site_label_2
_ccdc_geom_bond_type
C45   O2    A    
S1    O29   S    
C34   O25   A    
C8    C13   A    
Cr3   O3    S    
Cr2   O5    S    
C58   H33   S    
Cr6   O10   S    
C41   C42   A    
C54   C55   A    
Cr1   O24   S    
C35   C36   A    
C67   H1    S    
S2    O32   S    
C38   H22   S    
C49   H28   S    
C37   H21   S    
C65   O14   A    
C7    C8    A    
C52   C53   A    
Cr2   O26   S    
C26   C27   A    
C17   C23   S    
C30   C35   A    
C64   O6    A    
C23   O23   A    
C36   C37   A    
C9    C16   A    
C43   H23   S    
C30   C31   A    
C56   O24   A    
Cr5   O19   S    
C6    H2    S    
Cr3   O22   S    
C10   C17   A    
C15   C16   A    
C29   C33   A    
C59   H34   S    
C18   C19   A    
C32   C39   A    
C4    C69   S    
C21   H10   S    
C53   C61   A    
C69   H32   S    
C19   C20   A    
C8    C9    A    
C1    C28   S    
O32   H42   S    
C1    O12   A    
C4    C12   S    
C1    O20   A    
Cr1   O25   S    
C45   O3    A    
Cr4   O7    S    
C59   C60   A    
Cr3   O4    S    
C21   C22   A    
C69   S2    S    
C56   O4    A    
C2    C6    S    
C14   H7    S    
C33   H19   S    
C62   O8    A    
C62   O7    A    
C65   O15   A    
Cr6   O19   S    
Cr5   O15   S    
C54   C61   A    
C66   O16   A    
Cr2   O21   S    
Cr1   O1    S    
C51   C52   A    
C3    C70   S    
C24   C25   A    
C4    C6    S    
C10   C11   A    
Cr6   O18   S    
Cr3   O23   S    
C25   C26   A    
C48   H27   S    
C13   H6    S    
C34   C61   S    
C50   C56   S    
Cr5   O8    S    
C55   H31   S    
C67   C69   S    
C7    C11   A    
C43   C44   A    
C7    C62   S    
C37   C38   A    
C66   O17   A    
C2    H39   S    
C36   H20   S    
C47   C48   A    
C26   H15   S    
C41   C46   A    
C64   O11   A    
C32   H17   S    
Cr4   O19   S    
C53   C60   A    
C25   H14   S    
C27   H16   S    
S2    O30   D    
C5    H4    S    
C24   H12   S    
C6    H40   S    
C63   O9    A    
C70   H36   S    
C42   C50   A    
C9    C17   A    
C40   C41   A    
Cr4   O6    S    
C21   C28   A    
Cr3   O5    S    
C40   C65   S    
Cr4   O14   S    
C16   H9    S    
Cr6   O17   S    
C12   O22   A    
Cr1   O12   S    
Cr5   O16   S    
O29   H41   S    
C35   H18   S    
S1    O28   D    
C46   H24   S    
C46   C47   A    
C34   O26   A    
C54   H29   S    
C5    H37   S    
C70   H3    S    
C18   C22   A    
C19   C24   A    
Cr1   O5    S    
C3    C67   S    
C14   C15   A    
S2    O31   D    
C4    C5    S    
C5    C70   S    
C23   O1    A    
C44   H25   S    
C43   C50   A    
C15   H8    S    
C20   C27   A    
C3    C63   S    
C20   C28   A    
C10   H5    S    
C67   H11   S    
C31   C38   A    
C39   C45   S    
C32   C33   A    
C68   O18   A    
C2    C3    S    
C58   C59   A    
C60   H35   S    
C2    H38   S    
C18   C64   S    
C57   C58   A    
C48   C49   A    
C22   H13   S    
C31   C39   A    
C57   H30   S    
C51   C55   A    
C51   C68   S    
C68   O13   A    
C63   O10   A    
Cr2   O20   S    
C52   C57   A    
C42   C49   A    
C29   C30   A    
C29   C66   S    
C40   C44   A    
Cr4   O13   S    
Cr2   O2    S    
C47   H26   S    
Cr6   O11   S    
C12   O21   A    
Cr5   O9    S    
C13   C14   A    
C11   S1    S    
S1    O27   D    
