data_mof_unit_1235.cif
_audit_creation_date              2013-03-05T15:43:50-0500
_audit_creation_method            fapswitch 2.2
_symmetry_space_group_name_H-M    P1
_symmetry_Int_Tables_number       1
_space_group_crystal_system       triclinic
_cell_length_a                    10.045596
_cell_length_b                    10.699743
_cell_length_c                    15.481346
_cell_angle_alpha                 90.223931
_cell_angle_beta                  66.814231
_cell_angle_gamma                 90.405212
_cell_volume                      1529.58024926

loop_
_atom_site_label
_atom_site_type_symbol
_atom_site_description
_atom_site_fract_x
_atom_site_fract_y
_atom_site_fract_z
_atom_type_partial_charge
O1    O     O_R   0.386950 0.680940 0.500010 -0.598928
O2    O     O_R   0.613110 0.680900 0.499990 -0.612921
C1    C     C_R   0.501918 0.737539 0.498020 0.937642
O3    O     O_R   0.322330 0.500030 0.632270 -0.582038
O4    O     O_R   0.548480 0.499990 0.632240 -0.617424
C2    C     C_R   0.408668 0.498534 0.676154 0.863183
Zn1   Zn    Zn3+2 0.349000 0.500030 0.500020 0.970551
Zn2   Zn    Zn3+2 0.651000 0.499970 0.499980 0.938630
O5    O     O_R   0.386890 0.319100 0.500010 -0.606284
O6    O     O_R   0.613050 0.319060 0.499990 -0.621275
O7    O     O_R   0.451520 0.500010 0.367760 -0.612100
O8    O     O_R   0.677670 0.499970 0.367730 -0.608646
C3    C     C_R   0.495177 0.262838 0.507299 0.898223
C4    C     C_R   0.591997 0.503723 0.323482 0.888271
C5    C     C_R   0.351286 0.481126 0.777396 -0.026437
C6    C     C_R   0.653766 0.516361 0.220537 -0.118621
C7    C     C_R   0.210721 0.358465 0.913838 -0.141621
C8    C     C_R   0.236762 0.398395 0.822916 -0.099051
C9    C     C_R   0.434399 0.527417 0.823863 -0.198391
C10   C     C_R   0.423190 0.476039 0.909378 0.123296
C11   C     C_R   0.305814 0.393930 0.956283 0.180838
C12   C     C_R   0.528047 0.501275 0.947501 0.017350
C13   C     C_R   0.505392 0.456248 0.037937 0.112578
C14   C     C_R   0.385823 0.374775 0.083284 -0.203391
C15   C     C_R   0.288428 0.344437 0.042914 -0.215342
C16   C     C_R   0.658791 0.563834 0.895266 -0.289881
C17   C     C_R   0.759819 0.593222 0.932789 0.325718
C18   C     C_R   0.730714 0.564334 0.027729 -0.135394
C19   C     C_R   0.602875 0.494077 0.079800 0.032149
C20   C     C_R   0.821987 0.606333 0.073205 0.331081
C21   C     C_R   0.782777 0.583507 0.170075 0.053248
C22   C     C_R   0.569733 0.470369 0.174667 -0.267139
H1    H     H_    0.200141 0.280280 0.079219 0.151185
H2    H     H_    0.471610 0.422477 0.217482 0.158755
H3    H     H_    0.121913 0.294209 0.948603 0.145124
H4    H     H_    0.172127 0.360763 0.786937 0.157601
H5    H     H_    0.512847 0.599003 0.788462 0.146049
H6    H     H_    0.366962 0.327779 0.148441 0.139100
H7    H     H_    0.690398 0.586305 0.822056 0.169556
C23   C     C_2   0.597992 0.067248 0.518868 -0.157487
C24   C     C_2   0.477612 0.134342 0.536204 0.015274
H8    H     H_    0.705115 0.109801 0.489566 0.156549
C25   C     C_2   0.594579 0.933013 0.524079 -0.157514
C26   C     C_2   0.507941 0.869981 0.492499 -0.337293
H9    H     H_    0.669365 0.886525 0.548309 0.182967
H10   H     H_    0.438983 0.916347 0.463464 0.171846
C27   C     C_2   0.109985 0.435230 0.441216 -0.113524
N1    N     N_2   0.148330 0.498670 0.499030 -0.182936
H11   H     H_    0.189745 0.375520 0.390340 0.155347
H12   H     H_    0.075658 0.559683 0.544454 0.178109
C28   C     C_2   0.961989 0.440449 0.438156 -0.138714
N2    N     N_2   0.852680 0.498640 0.499000 -0.186467
H13   H     H_    0.946318 0.390289 0.381808 0.154966
H14   H     H_    0.864726 0.541535 0.554908 0.174995
N3    N     N_R   0.948410 0.680522 0.023871 0.225448
O9    O     O_R   0.935856 0.800534 0.016483 -0.353604
O10   O     O_R   0.076348 0.632631 0.001674 -0.367323
C29   C     C_3   0.325070 0.088059 0.594039 -0.822739
H15   H     H_    0.267477 0.158489 0.648714 0.230798
H16   H     H_    0.264476 0.075012 0.548174 0.237399
H17   H     H_    0.323285 0.999953 0.632028 0.268802
C30   C     C_3   0.872613 0.637849 0.220484 -0.762974
H18   H     H_    0.803623 0.697239 0.280077 0.230025
H19   H     H_    0.920400 0.561034 0.246695 0.239906
H20   H     H_    0.963414 0.698105 0.175833 0.268936
N4    N     N_R   0.891071 0.652779 0.871664 0.237593
O11   O     O_R   0.884763 0.758496 0.832234 -0.359419
O12   O     O_R   0.009515 0.588031 0.837581 -0.374211

loop_
_geom_bond_atom_site_label_1
_geom_bond_atom_site_label_2
_geom_bond_distance
_ccdc_geom_bond_type
C7    C8    1.394802 A    
O4    Zn2   1.895437 S    
N4    O12   1.299436 A    
C13   C14   1.421799 A    
Zn2   O6    1.970216 S    
C14   C15   1.388747 A    
C30   H18   1.110601 S    
C6    C22   1.386537 A    
C9    H5    1.078295 S    
C20   N3    1.432845 S    
Zn2   N2    2.020222 S    
C5    C8    1.398514 A    
C14   H6    1.076280 S    
C9    C10   1.398207 A    
C30   H19   1.110047 S    
Zn2   O8    1.957479 S    
Zn1   N1    2.021883 S    
N3    O9    1.301032 A    
C18   C20   1.427692 A    
N4    O11   1.301156 A    
C29   H15   1.111141 S    
C27   H11   1.084848 S    
C17   N4    1.431908 S    
C26   H10   1.086214 S    
C6    C21   1.414233 A    
C5    C9    1.387166 A    
N1    H12   1.025941 S    
C25   H9    1.086818 S    
C21   C30   1.518251 S    
C16   C17   1.387311 A    
O4    C2    1.297284 A    
C29   H17   1.109370 S    
O3    Zn1   1.957482 S    
C13   C19   1.426524 A    
C3    C24   1.435572 S    
C23   C24   1.343490 D    
O8    C4    1.294789 A    
C24   C29   1.519025 S    
Zn1   O7    1.895436 S    
C19   C22   1.396011 A    
O2    C1    1.285464 A    
N3    O10   1.301004 A    
C25   C26   1.332487 D    
C20   C21   1.414289 A    
C16   H7    1.077435 S    
O7    C4    1.304071 A    
C4    C6    1.471425 S    
C1    C26   1.419434 S    
C15   H1    1.084243 S    
C10   C12   1.419526 A    
C29   H16   1.110205 S    
C28   N2    1.292799 D    
O5    C3    1.290308 A    
C10   C11   1.416177 A    
O3    C2    1.295494 A    
C12   C16   1.408009 A    
O2    Zn2   1.975594 S    
C17   C18   1.416053 A    
Zn1   O5    1.975596 S    
C11   C15   1.389062 A    
C12   C13   1.413117 A    
C18   C19   1.428311 A    
C27   C28   1.507415 S    
C7    H3    1.083691 S    
C30   H20   1.106437 S    
C28   H13   1.084946 S    
C2    C5    1.453597 S    
O1    Zn1   1.970216 S    
C8    H4    1.083189 S    
C23   C25   1.438272 S    
C7    C11   1.405522 A    
C27   N1    1.293543 D    
N2    H14   1.026172 S    
C23   H8    1.086925 S    
O1    C1    1.289868 A    
O6    C3    1.289088 A    
C22   H2    1.074521 S    
