data_mof_unit_3468.cif
_audit_creation_date              2012-12-10T17:22:11-0500
_audit_creation_method            fapswitch 2.2
_symmetry_space_group_name_H-M    P1
_symmetry_Int_Tables_number       1
_space_group_crystal_system       triclinic
_cell_length_a                    15.887651
_cell_length_b                    10.832734
_cell_length_c                    9.622678
_cell_angle_alpha                 89.284749
_cell_angle_beta                  89.393722
_cell_angle_gamma                 93.06012
_cell_volume                      1653.53202716

loop_
_atom_site_label
_atom_site_type_symbol
_atom_type_description
_atom_site_fract_x
_atom_site_fract_y
_atom_site_fract_z
_atom_type_partial_charge
C1    C     C_R   0.504626 0.262426 0.501440 0.791680
C2    C     C_3   0.946537 0.402230 0.601046 -0.403356
C3    C     C_3   0.917108 0.504288 0.500618 0.175924
C4    C     C_3   0.955247 0.634137 0.543496 0.230973
C5    C     C_3   0.053712 0.633817 0.545081 0.225876
C6    C     C_1   0.824882 0.502968 0.498787 -0.021075
C7    C     C_1   0.175239 0.502279 0.502602 -0.015941
C8    C     C_1   0.250739 0.500958 0.502064 -0.143355
C9    C     C_R   0.529459 0.108183 0.761789 -0.229492
C10   C     C_R   0.510716 0.043570 0.886699 0.404047
C11   C     C_R   0.463418 0.931795 0.882698 -0.118300
C12   C     C_R   0.340375 0.499729 0.500693 0.812379
C13   C     C_R   0.441977 0.878259 0.755807 0.352114
C14   C     C_R   0.474521 0.933885 0.629621 -0.025852
C15   C     C_R   0.503973 0.058605 0.632564 0.023650
C16   C     C_R   0.507475 0.127254 0.505492 -0.086978
C17   C     C_R   0.502386 0.064570 0.379168 -0.178097
C18   C     C_R   0.494489 0.937000 0.377662 -0.176455
C19   C     C_R   0.482450 0.870063 0.502182 -0.114837
C20   C     C_R   0.609551 0.668368 0.139742 -0.180263
C21   C     C_R   0.661852 0.753206 0.066269 -0.310555
C22   C     C_R   0.662425 0.754044 0.921805 0.414114
C23   C     C_R   0.492675 0.736580 0.500052 0.785682
C24   C     C_R   0.610116 0.668823 0.852366 -0.109916
C25   C     C_R   0.553806 0.583293 0.923219 0.073356
C26   C     C_R   0.553659 0.583171 0.072552 0.173655
C27   C     C_R   0.449785 0.420268 0.077678 -0.024303
C28   C     C_R   0.448987 0.419271 0.931056 0.477782
C29   C     C_R   0.659621 0.500635 0.499347 0.806176
C30   C     C_3   0.043952 0.401859 0.602010 -0.395759
C31   C     C_3   0.049475 0.476464 0.354568 -0.458426
C32   C     C_3   0.951752 0.476428 0.353441 -0.461378
C33   C     C_1   0.749313 0.501823 0.498312 -0.149561
C34   C     C_3   0.083084 0.503937 0.502634 0.173594
Cu1   Cu    Cu3+1 0.499990 0.499990 0.640660 0.959949
Cu2   Cu    Cu3+1 0.500010 0.500010 0.359340 0.939081
H1    H     H_    0.920515 0.310216 0.566853 0.189625
H2    H     H_    0.938021 0.701573 0.461617 0.112276
H3    H     H_    0.506426 0.114089 0.280829 0.212166
H4    H     H_    0.567228 0.193793 0.767183 0.166915
H5    H     H_    0.498160 0.890951 0.278626 0.184306
H6    H     H_    0.408660 0.355071 0.135807 0.167945
H7    H     H_    0.616120 0.672962 0.249213 0.217835
H8    H     H_    0.702881 0.817498 0.122745 0.156011
H9    H     H_    0.076219 0.547106 0.279047 0.174922
H10   H     H_    0.931699 0.546832 0.277140 0.171777
N1    N     N_R   0.500800 0.501210 0.147910 -0.232000
N2    N     N_R   0.500820 0.501290 0.852040 -0.235242
O1    O     O_R   0.499990 0.319640 0.618810 -0.607821
O2    O     O_R   0.500000 0.319660 0.381240 -0.582130
O3    O     O_R   0.379430 0.499990 0.618840 -0.570418
O4    O     O_R   0.379440 0.500020 0.381260 -0.573110
O5    O     O_R   0.500000 0.680340 0.618760 -0.565866
O6    O     O_R   0.500010 0.680360 0.381190 -0.602642
O7    O     O_R   0.620560 0.499980 0.618740 -0.596365
O8    O     O_R   0.620570 0.500010 0.381160 -0.591408
H11   H     H_    0.067300 0.413413 0.709687 0.168545
H12   H     H_    0.921971 0.414262 0.708222 0.163490
O9    O     O_3   0.534545 0.089752 0.014052 -0.752507
H13   H     H_    0.565981 0.170552 0.999698 0.319971
H14   H     H_    0.442468 0.886546 0.978970 0.168432
O10   O     O_3   0.384091 0.778593 0.759171 -0.686449
H15   H     H_    0.357575 0.771742 0.666581 0.327786
H16   H     H_    0.063656 0.309793 0.567894 0.190281
O11   O     O_3   0.714107 0.836053 0.844813 -0.713080
H17   H     H_    0.746786 0.890540 0.909103 0.332471
H18   H     H_    0.616992 0.673561 0.742648 0.214660
O12   O     O_3   0.394313 0.331687 0.873943 -0.744596
H19   H     H_    0.393027 0.343719 0.773438 0.379824
H20   H     H_    0.069839 0.385024 0.319588 0.202004
H21   H     H_    0.925494 0.384861 0.318309 0.200403
O13   O     O_3   0.088350 0.675161 0.671606 -0.682558
H22   H     H_    0.071794 0.614255 0.745678 0.331371
H23   H     H_    0.078060 0.701489 0.464271 0.113293
O14   O     O_3   0.920675 0.676402 0.668621 -0.675185
H24   H     H_    0.929943 0.615145 0.743229 0.328939

loop_
_geom_bond_atom_site_label_1
_geom_bond_atom_site_label_2
_ccdc_geom_bond_type
C30   H16   S    
Cu1   O5    S    
Cu1   Cu2   S    
C27   H6    S    
C3    C6    S    
C12   O3    A    
C7    C8    T    
C28   O12   S    
C5    O13   S    
C15   C16   A    
C30   H11   S    
C29   C33   S    
Cu2   N1    S    
C18   C19   A    
C17   H3    S    
C5    H23   S    
C4    O14   S    
C24   H18   S    
O12   H19   S    
C31   H20   S    
C13   O10   S    
C16   C17   A    
Cu1   O1    S    
C1    O2    A    
Cu2   O4    S    
O9    H13   S    
C21   C22   A    
Cu1   N2    S    
C12   O4    A    
C23   O5    A    
C32   H21   S    
C30   C34   S    
Cu1   O7    S    
C24   C25   A    
C18   H5    S    
C4    C5    S    
C29   O7    A    
C25   C26   A    
C9    H4    S    
C19   C23   S    
O14   H24   S    
C22   O11   S    
O10   H15   S    
Cu2   O8    S    
C21   H8    S    
C31   C32   S    
C8    C12   S    
C5    C34   S    
C17   C18   A    
C31   C34   S    
C1    C16   S    
C25   N2    A    
C26   N1    A    
C4    H2    S    
Cu1   O3    S    
C7    C34   S    
C22   C24   A    
C3    C4    S    
C20   H7    S    
Cu2   O2    S    
C23   O6    A    
C9    C10   A    
C27   N1    A    
C28   N2    A    
C32   H10   S    
C14   C19   A    
O13   H22   S    
C11   H14   S    
C2    H12   S    
C29   O8    A    
C6    C33   T    
C2    C30   S    
C10   O9    S    
C9    C15   A    
C11   C13   A    
C2    H1    S    
C20   C26   A    
C2    C3    S    
C3    C32   S    
Cu2   O6    S    
C10   C11   A    
C20   C21   A    
O11   H17   S    
C31   H9    S    
C27   C28   A    
C14   C15   A    
C13   C14   A    
C1    O1    A    
