data_mof_unit_107.cif
_audit_creation_date              2012-12-10T17:18:56-0500
_audit_creation_method            fapswitch 2.2
_symmetry_space_group_name_H-M    P1
_symmetry_Int_Tables_number       1
_space_group_crystal_system       triclinic
_cell_length_a                    10.18375
_cell_length_b                    10.808959
_cell_length_c                    13.646988
_cell_angle_alpha                 91.954573
_cell_angle_beta                  100.515539
_cell_angle_gamma                 96.039568
_cell_volume                      1466.59072465

loop_
_atom_site_label
_atom_site_type_symbol
_atom_type_description
_atom_site_fract_x
_atom_site_fract_y
_atom_site_fract_z
_atom_type_partial_charge
C1    C     C_R   0.054810 0.732774 0.496701 0.813365
C2    C     C_R   0.948054 0.267771 0.509556 0.816851
C3    C     C_R   0.489623 0.652834 0.107729 -0.219681
C4    C     C_R   0.577774 0.537109 0.871206 -0.216450
C5    C     C_R   0.356887 0.675373 0.076382 -0.222261
C6    C     C_R   0.709194 0.511513 0.902366 -0.233509
C7    C     C_2   0.090944 0.865987 0.504894 0.437964
C8    C     C_2   0.922819 0.136649 0.525160 0.435454
C9    C     C_2   0.006779 0.936813 0.538391 -0.236924
C10   C     C_2   0.027217 0.069742 0.535896 -0.238961
C11   C     C_2   0.430963 0.511278 0.508507 -0.116855
C12   C     C_2   0.569046 0.488486 0.491760 -0.110722
C13   C     C_R   0.094927 0.515970 0.685726 0.859280
C14   C     C_R   0.906609 0.489022 0.314182 0.883907
C15   C     C_R   0.152918 0.546413 0.790712 -0.059768
C16   C     C_R   0.861135 0.497583 0.207180 -0.064045
C17   C     C_R   0.152564 0.649580 0.950765 -0.199037
C18   C     C_R   0.888905 0.471847 0.035828 -0.206840
C19   C     C_R   0.084981 0.607208 0.855192 -0.213163
C20   C     C_R   0.938201 0.464346 0.137356 -0.187713
C21   C     C_R   0.287110 0.528620 0.822091 -0.252515
C22   C     C_R   0.738730 0.543868 0.175501 -0.254163
C23   C     C_R   0.359515 0.579600 0.913458 0.095970
C24   C     C_R   0.688425 0.554546 0.074494 0.096676
C25   C     C_R   0.289415 0.635472 0.980574 0.166980
C26   C     C_R   0.763152 0.513807 0.003816 0.170477
C27   C     C_R   0.498561 0.570131 0.941140 0.070572
C28   C     C_R   0.560031 0.593839 0.042257 0.063418
H1    H     H_    0.305752 0.720437 0.128303 0.164235
H2    H     H_    0.766155 0.483868 0.847115 0.153688
H3    H     H_    0.680280 0.565585 0.230805 0.163456
H4    H     H_    0.334172 0.473574 0.773929 0.161879
H5    H     H_    0.034507 0.430010 0.160980 0.165307
H6    H     H_    0.981143 0.623457 0.831448 0.160474
H7    H     H_    0.098524 0.694366 0.000816 0.154170
H8    H     H_    0.947027 0.441314 0.982379 0.155634
H9    H     H_    0.536087 0.685488 0.182929 0.161364
H10   H     H_    0.540890 0.532479 0.791632 0.147359
H11   H     H_    0.128753 0.112210 0.535343 0.210089
H12   H     H_    0.915397 0.896316 0.561149 0.206772
H13   H     H_    0.578108 0.414829 0.438174 0.176951
H14   H     H_    0.421905 0.584763 0.562255 0.172074
H15   H     H_    0.665233 0.622824 0.589516 0.170704
H16   H     H_    0.334795 0.377231 0.410454 0.176999
N1    N     N_2   0.322180 0.446120 0.460900 -0.185610
N2    N     N_2   0.677820 0.553880 0.539100 -0.188978
O1    O     O_R   0.935190 0.693030 0.507870 -0.641534
O2    O     O_R   0.064810 0.306970 0.492130 -0.640229
O3    O     O_R   0.142080 0.658430 0.482770 -0.561199
O4    O     O_R   0.857920 0.341570 0.517230 -0.560329
O5    O     O_R   0.969700 0.527180 0.651960 -0.615271
O6    O     O_R   0.030300 0.472820 0.348040 -0.604979
O7    O     O_R   0.176600 0.492580 0.626860 -0.613910
O8    O     O_R   0.823400 0.507420 0.373140 -0.609022
Zn1   Zn    Zn3+2 0.861850 0.523100 0.516760 0.964561
Zn2   Zn    Zn3+2 0.138150 0.476900 0.483240 0.969374
F1    F     F_    0.795517 0.084078 0.525993 -0.645751
F2    F     F_    0.205645 0.916104 0.476497 -0.646587

loop_
_geom_bond_atom_site_label_1
_geom_bond_atom_site_label_2
_ccdc_geom_bond_type
N2    Zn1   S    
C18   C20   A    
C11   C12   S    
C12   H13   S    
C14   C16   S    
C23   C27   A    
C8    F1    S    
C12   N2    D    
O3    Zn2   S    
C2    O4    A    
C9    C10   S    
C7    F2    S    
C5    H1    S    
O4    Zn1   S    
C18   C26   A    
C16   C20   A    
C17   C25   A    
C13   C15   S    
C13   O5    A    
C23   C25   A    
C15   C19   A    
C24   C26   A    
H15   N2    S    
C6    C26   A    
C1    O3    A    
C5    C25   A    
C20   H5    S    
O1    Zn1   S    
C3    C28   A    
C14   O8    A    
C4    H10   S    
C13   O7    A    
C21   C23   A    
C8    C10   D    
C21   H4    S    
C22   C24   A    
C11   N1    D    
C22   H3    S    
C17   C19   A    
C7    C9    D    
C15   C21   A    
C4    C27   A    
H16   N1    S    
C3    H9    S    
C11   H14   S    
C4    C6    A    
O7    Zn2   S    
C2    C8    S    
C27   C28   A    
O2    Zn2   S    
O8    Zn1   S    
C1    O1    A    
C16   C22   A    
C17   H7    S    
O5    Zn1   S    
C2    O2    A    
C1    C7    S    
C18   H8    S    
C6    H2    S    
C9    H12   S    
C14   O6    A    
O6    Zn2   S    
N1    Zn2   S    
C24   C28   A    
C10   H11   S    
C3    C5    A    
C19   H6    S    
