data_mof_unit_3577.cif
_audit_creation_date              2012-12-10T17:55:51-0500
_audit_creation_method            fapswitch 2.2
_symmetry_space_group_name_H-M    P1
_symmetry_Int_Tables_number       1
_space_group_crystal_system       triclinic
_cell_length_a                    11.121721
_cell_length_b                    10.78232
_cell_length_c                    9.574579
_cell_angle_alpha                 90.773681
_cell_angle_beta                  102.87945
_cell_angle_gamma                 91.291134
_cell_volume                      1118.79115939

loop_
_atom_site_label
_atom_site_type_symbol
_atom_type_description
_atom_site_fract_x
_atom_site_fract_y
_atom_site_fract_z
_atom_type_partial_charge
C1    C     C_R   0.495887 0.262440 0.498206 0.753355
C2    C     C_R   0.504113 0.737560 0.501794 0.753354
C3    C     C_R   0.263150 0.499615 0.442134 0.852796
C4    C     C_R   0.736850 0.500385 0.557866 0.852796
C5    C     C_R   0.430148 0.413550 0.052624 0.068111
C6    C     C_R   0.569852 0.586450 0.947376 0.068110
C7    C     C_R   0.431182 0.414930 0.904578 0.080109
C8    C     C_R   0.568818 0.585070 0.095422 0.080109
C9    C     C_2   0.128819 0.500270 0.410778 -0.393850
C10   C     C_2   0.871181 0.499729 0.589222 -0.393850
C11   C     C_2   0.067135 0.498293 0.516727 0.518643
C12   C     C_2   0.932865 0.501707 0.483273 0.518643
C13   C     C_R   0.577581 0.068483 0.431855 -0.094368
C14   C     C_R   0.422418 0.931517 0.568145 -0.094368
C15   C     C_R   0.586826 0.939902 0.436032 -0.027722
C16   C     C_R   0.413174 0.060097 0.563968 -0.027723
C17   C     C_R   0.506891 0.871687 0.503720 -0.136089
C18   C     C_R   0.493109 0.128313 0.496280 -0.136089
Cu1   Cu    Cu3+1 0.500000 0.500020 0.640660 0.984300
Cu2   Cu    Cu3+1 0.500000 0.499980 0.359340 0.984300
H1    H     H_    0.920084 0.496606 0.700782 0.184820
H2    H     H_    0.079916 0.503394 0.299218 0.184820
H3    H     H_    0.375633 0.348403 0.830501 0.180645
H4    H     H_    0.624367 0.651597 0.169499 0.180645
H5    H     H_    0.639565 0.123257 0.382916 0.192822
H6    H     H_    0.360436 0.876743 0.617084 0.192822
N1    N     N_R   0.500030 0.500030 0.852080 -0.232241
N2    N     N_R   0.499970 0.499970 0.147920 -0.232242
O1    O     O_R   0.499990 0.319660 0.618740 -0.587099
O2    O     O_R   0.500010 0.680340 0.381260 -0.587100
O3    O     O_R   0.499990 0.319630 0.381170 -0.599195
O4    O     O_R   0.500010 0.680370 0.618830 -0.599195
O5    O     O_R   0.320690 0.500020 0.575130 -0.502954
O6    O     O_R   0.679310 0.499980 0.424870 -0.502954
O7    O     O_R   0.320680 0.499990 0.337560 -0.614357
O8    O     O_R   0.679320 0.500010 0.662440 -0.614357
F1    F     F_    0.872751 0.507024 0.342842 -0.660459
F2    F     F_    0.127249 0.492975 0.657158 -0.660459
C19   C     C_2   0.351032 0.316698 0.098569 0.411805
H7    H     H_    0.319494 0.325078 0.196206 0.122019
O9    O     O_2   0.317634 0.223793 0.024360 -0.514346
C20   C     C_2   0.648968 0.683302 0.901431 0.411805
H8    H     H_    0.680506 0.674922 0.803794 0.122019
O10   O     O_2   0.682366 0.776208 0.975640 -0.514346
C21   C     C_2   0.684118 0.879654 0.376568 0.423092
H9    H     H_    0.707850 0.784120 0.400639 0.070161
O11   O     O_2   0.740386 0.936747 0.300933 -0.479997
C22   C     C_2   0.315882 0.120345 0.623432 0.423093
H10   H     H_    0.292150 0.215880 0.599360 0.070161
O12   O     O_2   0.259614 0.063253 0.699067 -0.479997

loop_
_geom_bond_atom_site_label_1
_geom_bond_atom_site_label_2
_ccdc_geom_bond_type
C11   F2    S    
C11   C12   S    
C4    O8    A    
C3    C9    S    
C5    N2    A    
Cu1   N1    S    
C6    N1    A    
C3    O7    A    
C2    O2    A    
Cu2   O6    S    
C16   C22   S    
C22   O12   D    
C5    C7    A    
C19   O9    D    
C16   C18   A    
Cu2   O2    S    
C21   H9    S    
C14   H6    S    
C2    C17   S    
C9    C11   D    
C14   C17   A    
C13   H5    S    
C1    C18   S    
C20   O10   D    
C13   C18   A    
C7    H3    S    
Cu1   O4    S    
C10   C12   D    
C1    O1    A    
C22   H10   S    
C8    H4    S    
C4    O6    A    
Cu1   O8    S    
C13   C15   A    
C10   H1    S    
Cu1   O5    S    
C8    N2    A    
C14   C16   A    
C9    H2    S    
C20   H8    S    
C3    O5    A    
C19   H7    S    
C4    C10   S    
Cu1   O1    S    
C1    O3    A    
C7    N1    A    
C2    O4    A    
C6    C20   S    
C21   O11   D    
C12   F1    S    
C15   C17   A    
C5    C19   S    
C15   C21   S    
C6    C8    A    
Cu2   N2    S    
Cu2   O7    S    
Cu1   Cu2   S    
Cu2   O3    S    
