data_mof_unit_945.cif
_audit_creation_date              2013-03-05T15:49:31-0500
_audit_creation_method            fapswitch 2.2
_symmetry_space_group_name_H-M    P1
_symmetry_Int_Tables_number       1
_space_group_crystal_system       triclinic
_cell_length_a                    10.82673
_cell_length_b                    12.073084
_cell_length_c                    12.831222
_cell_angle_alpha                 95.637749
_cell_angle_beta                  90.719726
_cell_angle_gamma                 84.551477
_cell_volume                      1661.53226728

loop_
_atom_site_label
_atom_site_type_symbol
_atom_site_description
_atom_site_fract_x
_atom_site_fract_y
_atom_site_fract_z
_atom_type_partial_charge
O1    O     O_R   0.506170 0.421700 0.658830 -0.585231
O2    O     O_R   0.493830 0.578300 0.341170 -0.574790
O3    O     O_R   0.491330 0.609310 0.646410 -0.576019
O4    O     O_R   0.508670 0.390690 0.353590 -0.589216
C1    C     C_R   0.493752 0.525176 0.701200 1.012598
C2    C     C_R   0.506675 0.475271 0.299193 0.942588
O5    O     O_R   0.690650 0.406190 0.506220 -0.578761
O6    O     O_R   0.309350 0.593810 0.493780 -0.581345
O7    O     O_R   0.675800 0.593810 0.493800 -0.640142
O8    O     O_R   0.324200 0.406190 0.506200 -0.645402
C3    C     C_R   0.740611 0.500652 0.501950 0.923969
C4    C     C_R   0.260126 0.502446 0.509169 0.949903
Zn1   Zn    Zn3+2 0.509910 0.374730 0.508290 1.083040
Zn2   Zn    Zn3+2 0.490090 0.625270 0.491710 1.103419
C5    C     C_R   0.900353 0.417605 0.684260 0.259820
C6    C     C_R   0.089586 0.719812 0.547098 0.230777
C7    C     C_R   0.972946 0.337228 0.739030 0.252384
C8    C     C_R   0.020699 0.812412 0.507682 0.214006
C9    C     C_R   0.079886 0.278675 0.690361 0.259924
C10   C     C_R   0.918955 0.793794 0.440213 0.242517
C11   C     C_R   0.127765 0.321343 0.602706 -0.130557
C12   C     C_R   0.874802 0.687660 0.429740 -0.179864
C13   C     C_R   0.067758 0.418503 0.564880 0.001213
C14   C     C_R   0.932360 0.600454 0.484207 0.007399
C15   C     C_R   0.941359 0.439600 0.584211 -0.064553
C16   C     C_R   0.053349 0.610558 0.518871 -0.061817
C17   C     C_R   0.127391 0.508846 0.530137 -0.050964
C18   C     C_R   0.873336 0.508741 0.516760 -0.038676
H1    H     H_    0.215129 0.282804 0.572473 0.222945
H2    H     H_    0.792190 0.677354 0.383565 0.246447
C19   C     C_R   0.515171 0.454788 0.186125 -0.268075
C20   C     C_R   0.481790 0.547714 0.814812 -0.205362
C21   C     C_R   0.569875 0.629153 0.974586 -0.073436
C22   C     C_R   0.437957 0.367503 0.024772 -0.072854
C23   C     C_R   0.541582 0.634735 0.869630 0.294251
C24   C     C_R   0.458918 0.366185 0.131277 0.252450
C25   C     C_R   0.424799 0.471669 0.870329 0.287326
C26   C     C_R   0.567202 0.533711 0.131667 0.315356
C27   C     C_R   0.463990 0.459922 0.973794 -0.037874
C28   C     C_R   0.535647 0.540703 0.026527 -0.035548
H3    H     H_    0.618848 0.694890 0.014554 0.236066
H4    H     H_    0.402232 0.295032 0.983116 0.235856
N1    N     N_R   0.523130 0.207800 0.519340 -0.199656
N2    N     N_R   0.476870 0.792200 0.480660 -0.186541
C29   C     C_R   0.385564 0.953412 0.397152 0.301834
C30   C     C_R   0.612926 0.045889 0.602036 0.318701
C31   C     C_R   0.402388 0.836304 0.404470 0.359719
C32   C     C_R   0.604178 0.161591 0.588638 0.375078
C33   C     C_R   0.539293 0.859876 0.548516 0.067800
C34   C     C_R   0.452835 0.141584 0.456278 0.028187
C35   C     C_R   0.536595 0.976411 0.539437 -0.124432
C36   C     C_R   0.456863 0.024360 0.463701 -0.111835
H5    H     H_    0.397089 0.182139 0.398881 0.228891
H6    H     H_    0.590781 0.820153 0.608619 0.233728
N3    N     N_R   0.851344 0.883157 0.391081 0.239251
O9    O     O_R   0.801533 0.863107 0.299210 -0.270705
O10   O     O_R   0.826664 0.981188 0.441991 -0.305830
N4    N     N_R   0.149200 0.186923 0.735917 0.280174
O11   O     O_R   0.102785 0.138624 0.810702 -0.235186
O12   O     O_R   0.257796 0.147119 0.699382 -0.330056
S1    S     S_3+6 0.280245 0.006978 0.300970 0.150586
O13   O     O_2   0.212269 0.116745 0.341782 -0.250382
O14   O     O_2   0.354309 0.022616 0.206251 -0.163994
O15   O     O_3   0.172343 0.919436 0.264000 -0.433711
H7    H     H_    0.123883 0.955107 0.208224 0.419534
S2    S     S_3+6 0.716190 0.991333 0.699230 0.145633
O16   O     O_2   0.639473 0.982565 0.794192 -0.175282
O17   O     O_2   0.778438 0.878178 0.661444 -0.287685
O18   O     O_3   0.829812 0.072452 0.735331 -0.404217
H8    H     H_    0.872943 0.036756 0.793710 0.432862
N5    N     N_R   0.802781 0.490543 0.737018 0.198259
O19   O     O_R   0.786332 0.594627 0.717670 -0.361260
O20   O     O_R   0.747700 0.461081 0.817910 -0.337063
N6    N     N_R   0.182779 0.737761 0.626473 0.250203
O21   O     O_R   0.187925 0.681103 0.707805 -0.295005
O22   O     O_R   0.260977 0.812045 0.619402 -0.308212
N7    N     N_R   0.950026 0.328269 0.847546 0.281567
O23   O     O_R   0.983361 0.405025 0.917751 -0.228945
O24   O     O_R   0.880123 0.254438 0.875090 -0.224100
N8    N     N_R   0.050624 0.923919 0.539840 0.261349
O25   O     O_R   0.071909 0.991590 0.470855 -0.258738
O26   O     O_R   0.052936 0.959381 0.638782 -0.239731
N9    N     N_R   0.657607 0.600662 0.182206 0.207476
O27   O     O_R   0.761059 0.551871 0.215100 -0.362559
O28   O     O_R   0.632462 0.707778 0.204544 -0.313736
N10   N     N_R   0.316212 0.422245 0.826637 0.222921
O29   O     O_R   0.268029 0.455614 0.740733 -0.418629
O30   O     O_R   0.244836 0.373205 0.884618 -0.324411
N11   N     N_R   0.420556 0.275384 0.182362 0.225246
O31   O     O_R   0.306169 0.251142 0.173176 -0.271056
O32   O     O_R   0.504315 0.203578 0.217321 -0.303492
N12   N     N_R   0.572473 0.730194 0.821225 0.240038
O33   O     O_R   0.677246 0.771207 0.844843 -0.233379
O34   O     O_R   0.483798 0.793398 0.781285 -0.282133
N13   N     N_R   0.689740 0.229529 0.640043 0.236534
O35   O     O_R   0.672915 0.264392 0.738380 -0.299904
O36   O     O_R   0.799034 0.226280 0.598531 -0.355325
N14   N     N_R   0.344119 0.762924 0.328869 0.257739
O37   O     O_R   0.240177 0.725310 0.351275 -0.358413
O38   O     O_R   0.378470 0.754971 0.231423 -0.291475

loop_
_geom_bond_atom_site_label_1
_geom_bond_atom_site_label_2
_geom_bond_distance
_ccdc_geom_bond_type
C24   N11   1.427726 S    
N2    C33   1.353781 A    
S2    O17   1.502927 D    
N3    O9    1.300679 A    
C32   N13   1.410179 S    
C26   N9    1.436395 S    
N13   O35   1.299737 A    
C22   H4    1.080758 S    
N7    O23   1.300683 A    
C15   C18   1.413301 A    
O5    C3    1.313916 A    
C16   C17   1.420025 A    
C31   N14   1.430297 S    
N6    O22   1.300560 A    
C6    N6    1.440365 S    
C12   C14   1.412192 A    
C9    C11   1.406501 A    
C14   C16   1.390557 A    
C30   S2    1.796001 S    
O18   H8    0.990623 S    
N10   O30   1.299640 A    
C5    C15   1.421028 A    
S2    O18   1.677000 S    
N4    O12   1.302058 A    
C33   H6    1.070784 S    
O4    Zn1   2.012830 S    
S1    O14   1.501348 D    
C21   C23   1.384041 A    
C33   C35   1.420640 A    
C34   C36   1.424282 A    
C13   C17   1.428883 A    
N11   O32   1.300772 A    
N1    C32   1.362623 A    
C8    C10   1.413591 A    
N2    C31   1.374931 A    
C1    C20   1.461521 S    
C23   N12   1.429998 S    
C29   C31   1.420468 A    
C2    C19   1.450168 S    
O2    C2    1.301563 A    
C10   N3    1.438514 S    
C7    N7    1.433672 S    
N7    O24   1.299598 A    
C9    N4    1.445775 S    
C6    C16   1.423302 A    
C30   C32   1.418254 A    
C34   H5    1.072355 S    
N6    O21   1.300623 A    
C4    C17   1.458809 S    
C22   C27   1.400000 A    
C21   C28   1.393922 A    
C20   C23   1.410719 A    
C25   N10   1.450315 S    
N8    O26   1.300055 A    
C27   C28   1.418354 A    
N5    O20   1.299170 A    
N10   O29   1.297044 A    
C29   C36   1.422687 A    
N4    O11   1.300398 A    
C11   H1    1.073233 S    
C30   C35   1.419272 A    
C35   C36   1.420994 A    
S1    O15   1.681927 S    
O7    Zn2   2.010782 S    
N9    O27   1.300504 A    
O6    C4    1.302611 A    
N12   O34   1.300757 A    
C6    C8    1.416031 A    
C20   C25   1.406487 A    
O7    C3    1.280493 A    
O3    Zn2   2.012830 S    
O8    C4    1.293076 A    
O4    C2    1.290686 A    
N9    O28   1.300366 A    
C10   C12   1.403330 A    
N14   O38   1.300855 A    
C11   C13   1.411682 A    
O1    C1    1.307986 A    
O1    Zn1   1.958757 S    
Zn1   N1    2.025615 S    
Zn2   N2    2.025616 S    
C5    C7    1.424263 A    
O6    Zn2   2.029423 S    
C12   H2    1.076960 S    
C14   C18   1.428565 A    
N8    O25   1.298872 A    
O3    C1    1.288979 A    
O8    Zn1   2.010781 S    
N13   O36   1.299364 A    
N1    C34   1.358688 A    
C5    N5    1.440086 S    
C19   C26   1.398630 A    
C21   H3    1.080337 S    
O15   H7    0.990518 S    
N3    O10   1.300506 A    
N5    O19   1.300046 A    
C25   C27   1.405001 A    
C26   C28   1.396122 A    
C3    C18   1.458327 S    
C29   S1    1.795251 S    
N12   O33   1.300889 A    
C7    C9    1.416415 A    
S2    O16   1.501084 D    
C22   C24   1.383878 A    
C13   C15   1.388919 A    
S1    O13   1.503395 D    
O2    Zn2   1.958756 S    
O5    Zn1   2.029424 S    
C8    N8    1.434536 S    
N14   O37   1.298513 A    
C19   C24   1.405529 A    
N11   O31   1.300639 A    
