data_mof_unit_2149.cif
_audit_creation_date              2012-12-10T17:32:17-0500
_audit_creation_method            fapswitch 2.2
_symmetry_space_group_name_H-M    P1
_symmetry_Int_Tables_number       1
_space_group_crystal_system       triclinic
_cell_length_a                    12.315775
_cell_length_b                    13.135166
_cell_length_c                    15.057587
_cell_angle_alpha                 77.646915
_cell_angle_beta                  101.193645
_cell_angle_gamma                 116.594493
_cell_volume                      2114.18187074

loop_
_atom_site_label
_atom_site_type_symbol
_atom_type_description
_atom_site_fract_x
_atom_site_fract_y
_atom_site_fract_z
_atom_type_partial_charge
C1    C     C_R   0.854943 0.286380 0.507713 0.797318
C2    C     C_R   0.998496 0.605967 0.074834 -0.097730
C3    C     C_R   0.065565 0.353094 0.082212 -0.246985
C4    C     C_R   0.066766 0.354098 0.989746 0.483814
C5    C     C_R   0.045785 0.439565 0.924701 0.065738
C6    C     C_R   0.024764 0.524848 0.952548 -0.089445
C7    C     C_R   0.005020 0.611393 0.886707 -0.136209
C8    C     C_R   0.997954 0.702870 0.917001 0.437461
C9    C     C_R   0.986997 0.696868 0.009305 0.428075
C10   C     C_R   0.042709 0.439110 0.832014 -0.278678
C11   C     C_R   0.010791 0.516362 0.766157 -0.198905
C12   C     C_R   0.002426 0.504587 0.670508 0.816772
C13   C     C_R   0.991487 0.603893 0.792414 0.488067
C14   C     C_R   0.276300 0.022072 0.376054 -0.189771
C15   C     C_R   0.228063 0.835045 0.466914 -0.054419
C16   C     C_R   0.815759 0.083665 0.565149 -0.312575
C17   C     C_R   0.736761 0.966954 0.581957 0.463720
C18   C     C_R   0.613310 0.930680 0.549560 -0.185819
C19   C     C_R   0.566971 0.008779 0.496715 -0.006351
C20   C     C_R   0.650700 0.123527 0.470194 0.075162
C21   C     C_R   0.440305 0.976184 0.468057 0.101765
C22   C     C_R   0.401031 0.053815 0.405428 0.169694
C23   C     C_R   0.145099 0.713595 0.486199 0.757794
C24   C     C_R   0.486802 0.161140 0.371180 -0.236665
C25   C     C_R   0.609865 0.195071 0.402134 -0.186771
C26   C     C_R   0.351083 0.868945 0.500641 -0.248580
C27   C     C_R   0.190117 0.912611 0.406050 -0.211686
C28   C     C_R   0.773316 0.162887 0.511679 -0.149878
C29   C     C_R   0.344915 0.326688 0.645664 -0.229948
C30   C     C_R   0.759655 0.646200 0.376465 0.099417
C31   C     C_R   0.663277 0.678276 0.350344 -0.241216
C32   C     C_R   0.559880 0.622982 0.397012 -0.157283
C33   C     C_R   0.551557 0.534356 0.471078 -0.000641
C34   C     C_R   0.001855 0.502042 0.329043 0.831731
C35   C     C_R   0.652991 0.504952 0.495581 0.255122
C36   C     C_R   0.447191 0.474417 0.521734 -0.109622
C37   C     C_R   0.446324 0.386260 0.595586 0.126518
C38   C     C_R   0.546281 0.358355 0.619211 0.351744
C39   C     C_R   0.647438 0.417965 0.569900 -0.255401
C40   C     C_R   0.342509 0.497843 0.502473 0.077560
C41   C     C_R   0.245695 0.354198 0.623239 0.045897
C42   C     C_R   0.993486 0.600037 0.168757 0.352655
C43   C     C_R   0.008138 0.509476 0.232067 -0.282050
C44   C     C_R   0.029051 0.425652 0.203272 0.422996
C45   C     C_R   0.039412 0.433683 0.110865 -0.018320
C46   C     C_R   0.021745 0.522174 0.046209 -0.127875
Cu1   Cu    Cu3+1 0.098270 0.475420 0.521130 0.955336
Cu2   Cu    Cu3+1 0.901730 0.524580 0.478870 0.931014
H1    H     H_    0.458678 0.219409 0.320359 0.153331
H2    H     H_    0.245875 0.080766 0.327883 0.142934
H3    H     H_    0.374761 0.808986 0.551959 0.151613
H4    H     H_    0.909998 0.112805 0.595557 0.151812
H5    H     H_    0.556772 0.839871 0.564799 0.157297
H6    H     H_    0.672412 0.276916 0.369812 0.173121
H7    H     H_    0.167583 0.308364 0.661639 0.127425
H8    H     H_    0.341745 0.259017 0.702139 0.189844
H9    H     H_    0.335105 0.562868 0.447614 0.120405
H10   H     H_    0.839661 0.689785 0.340056 0.148619
H11   H     H_    0.488272 0.651545 0.373727 0.132054
H12   H     H_    0.668752 0.746318 0.293750 0.149337
H13   H     H_    0.720493 0.393438 0.592595 0.202628
H14   H     H_    0.083712 0.287519 0.131275 0.192409
H15   H     H_    0.058483 0.373803 0.810168 0.204636
H16   H     H_    0.094971 0.887194 0.378958 0.150855
N1    N     N_R   0.246280 0.438190 0.553160 -0.178980
N2    N     N_R   0.754320 0.561190 0.447410 -0.203146
O1    O     O_R   0.972510 0.318130 0.526570 -0.572697
O2    O     O_R   0.806530 0.359650 0.490890 -0.608969
O3    O     O_R   0.082980 0.479210 0.647590 -0.584122
O4    O     O_R   0.917000 0.520730 0.611900 -0.571432
O5    O     O_R   0.193470 0.640350 0.509110 -0.586739
O6    O     O_R   0.027490 0.681870 0.473430 -0.613126
O7    O     O_R   0.083000 0.479270 0.388100 -0.539705
O8    O     O_R   0.917020 0.520790 0.352410 -0.580556
O9    O     O_3   0.976724 0.684304 0.197915 -0.688652
H17   H     H_    0.029122 0.703053 0.256369 0.302042
O10   O     O_3   0.776508 0.886610 0.632365 -0.696531
H18   H     H_    0.865818 0.925519 0.650202 0.327800
O11   O     O_3   0.543676 0.272263 0.691442 -0.736816
H19   H     H_    0.620226 0.262135 0.699126 0.322475
O12   O     O_3   0.042586 0.337093 0.266387 -0.564873
C47   C     C_3   0.926058 0.245235 0.276132 -0.306675
H20   H     H_    0.936879 0.174771 0.327124 0.192500
H21   H     H_    0.882699 0.210422 0.210571 0.150300
H22   H     H_    0.864831 0.271216 0.302004 0.142391
O13   O     O_3   0.093925 0.274249 0.963255 -0.585693
C48   C     C_3   0.989055 0.168506 0.965116 -0.345234
H23   H     H_    0.007664 0.107650 0.936360 0.201412
H24   H     H_    0.908767 0.178078 0.922060 0.166849
H25   H     H_    0.967324 0.130041 0.036395 0.162892
O14   O     O_3   0.938085 0.667449 0.729678 -0.521350
C49   C     C_3   0.019500 0.748687 0.667446 -0.168706
H26   H     H_    0.972318 0.739336 0.597275 0.205419
H27   H     H_    0.107796 0.742309 0.672136 0.077300
H28   H     H_    0.039039 0.836725 0.677093 0.172272
O15   O     O_3   0.005451 0.801292 0.857609 -0.510454
C50   C     C_3   0.130675 0.874378 0.850334 -0.342958
H29   H     H_    0.138285 0.956668 0.807264 0.186602
H30   H     H_    0.174022 0.835836 0.817618 0.155879
H31   H     H_    0.183991 0.894823 0.917736 0.136478
O16   O     O_3   0.951275 0.773128 0.032628 -0.502188
C51   C     C_3   0.054393 0.874911 0.052955 -0.185305
H32   H     H_    0.139479 0.862466 0.079124 0.115237
H33   H     H_    0.034767 0.907935 0.107034 0.183031
H34   H     H_    0.069378 0.942061 0.991985 0.163164

loop_
_geom_bond_atom_site_label_1
_geom_bond_atom_site_label_2
_ccdc_geom_bond_type
C16   C28   A    
C48   H23   S    
O16   C51   S    
C19   C20   A    
C8    O15   S    
C12   O3    A    
C1    O2    A    
C10   H15   S    
O12   C47   S    
C7    C8    A    
C14   H2    S    
O10   H18   S    
C2    C46   A    
C42   O9    S    
C5    C6    A    
C36   C37   A    
C19   C21   A    
C30   C31   A    
C4    O13   S    
C20   C25   A    
C33   C36   A    
C51   H34   S    
C18   C19   A    
Cu1   O1    S    
Cu1   O3    S    
C18   H5    S    
C33   C35   A    
C41   H7    S    
Cu1   Cu2   S    
C8    C9    A    
C1    C28   S    
C14   C27   A    
C15   C23   S    
C21   C22   A    
C13   O14   S    
Cu2   O6    S    
C49   H27   S    
C50   H30   S    
C21   C26   A    
C50   H29   S    
C39   H13   S    
Cu2   O8    S    
C36   C40   A    
C25   H6    S    
Cu1   O7    S    
C44   O12   S    
C10   C11   A    
O14   C49   S    
O13   C48   S    
C16   C17   A    
C15   C26   A    
C41   N1    A    
C20   C28   A    
C35   N2    A    
C45   C46   A    
C3    C45   A    
C49   H28   S    
Cu2   O2    S    
C31   H12   S    
C35   C39   A    
O9    H17   S    
C37   C38   A    
C23   O5    A    
C15   C27   A    
C31   C32   A    
O15   C50   S    
C17   O10   S    
C17   C18   A    
C24   C25   A    
C51   H33   S    
Cu1   O5    S    
C30   N2    A    
C34   O8    A    
C47   H21   S    
C40   N1    A    
C48   H24   S    
C43   C44   A    
C22   C24   A    
C42   C43   A    
C3    C4    A    
C50   H31   S    
C44   C45   A    
C3    H14   S    
C24   H1    S    
C12   O4    A    
C40   H9    S    
C6    C46   A    
C29   C41   A    
C23   O6    A    
C34   C43   S    
C16   H4    S    
Cu2   O4    S    
C4    C5    A    
C11   C12   S    
C6    C7    A    
C29   H8    S    
C47   H22   S    
C32   C33   A    
C14   C22   A    
C5    C10   A    
C26   H3    S    
C11   C13   A    
C38   C39   A    
C2    C42   A    
C30   H10   S    
C49   H26   S    
C1    O1    A    
C51   H32   S    
C27   H16   S    
C34   O7    A    
O11   H19   S    
C7    C13   A    
C9    O16   S    
C47   H20   S    
C38   O11   S    
C48   H25   S    
C29   C37   A    
C32   H11   S    
Cu2   N2    S    
C2    C9    A    
Cu1   N1    S    
