data_mof_unit_4537.cif
_audit_creation_date              2012-10-26T21:25:51-0400
_audit_creation_method            fapswitch 2.2
_symmetry_space_group_name_H-M    P1
_symmetry_Int_Tables_number       1
_space_group_crystal_system       triclinic
_cell_length_a                    10.897141
_cell_length_b                    10.890703
_cell_length_c                    12.714808
_cell_angle_alpha                 91.380187
_cell_angle_beta                  91.618732
_cell_angle_gamma                 90.157794
_cell_volume                      1507.91326968

loop_
_atom_site_label
_atom_site_type_symbol
_atom_type_description
_atom_site_fract_x
_atom_site_fract_y
_atom_site_fract_z
_atom_type_partial_charge
C1    C     C_R   0.261907 0.501897 0.501679 0.559779
C2    C     C_R   0.882172 0.554145 0.221975 -0.078305
C3    C     C_R   0.121855 0.537721 0.702599 0.043779
C4    C     C_R   0.878144 0.462283 0.297401 0.043782
C5    C     C_R   0.172267 0.653151 0.730353 -0.051763
C6    C     C_R   0.827743 0.346851 0.269642 -0.051771
C7    C     C_R   0.218445 0.676137 0.832561 -0.086614
C8    C     C_R   0.781567 0.323867 0.167433 -0.086614
C9    C     C_R   0.213621 0.584433 0.907442 -0.087850
C10   C     C_R   0.786383 0.415576 0.092556 -0.087852
C11   C     C_R   0.936137 0.512182 0.592702 -0.112646
C12   C     C_R   0.738093 0.498103 0.498321 0.559780
C13   C     C_R   0.063863 0.487820 0.407298 -0.112644
C14   C     C_R   0.871727 0.496656 0.496302 0.008707
C15   C     C_R   0.128273 0.503346 0.503698 0.008707
C16   C     C_R   0.500776 0.261917 0.501908 0.565915
C17   C     C_R   0.499224 0.738082 0.498092 0.565913
C18   C     C_R   0.936777 0.483556 0.402311 -0.035438
C19   C     C_R   0.063223 0.516447 0.597689 -0.035437
C20   C     C_2   0.465751 0.465740 0.031786 -0.182899
C21   C     C_2   0.534248 0.534261 0.968214 -0.182900
C22   C     C_1   0.525043 0.525063 0.852594 0.154381
C23   C     C_R   0.498667 0.871662 0.495877 0.019637
C24   C     C_1   0.474957 0.474937 0.147406 0.154382
C25   C     C_R   0.673693 0.201001 0.838703 0.379289
C26   C     C_R   0.326306 0.799001 0.161297 0.379290
C27   C     C_R   0.648491 0.162713 0.734912 0.434201
C28   C     C_R   0.351509 0.837288 0.265088 0.434200
C29   C     C_R   0.530665 0.120239 0.704146 -0.006856
C30   C     C_R   0.469334 0.879761 0.295854 -0.006856
C31   C     C_R   0.436322 0.118189 0.779066 0.064946
C32   C     C_R   0.563678 0.881812 0.220934 0.064945
C33   C     C_R   0.464273 0.154828 0.884356 0.071606
C34   C     C_R   0.501333 0.128338 0.504123 0.019637
C35   C     C_R   0.535726 0.845175 0.115644 0.071606
C36   C     C_R   0.582337 0.196015 0.913134 -0.125817
C37   C     C_R   0.417662 0.803988 0.086865 -0.125817
C38   C     C_R   0.512134 0.935521 0.592547 -0.129957
C39   C     C_R   0.487867 0.064479 0.407453 -0.129956
C40   C     C_R   0.486647 0.937322 0.401909 0.009100
C41   C     C_R   0.513353 0.062677 0.598091 0.009100
C42   C     C_R   0.163953 0.469285 0.880136 -0.112752
C43   C     C_R   0.836041 0.530727 0.119867 -0.112752
C44   C     C_R   0.117820 0.445865 0.778029 -0.078314
Cu1   Cu    Cu3+1 0.492140 0.492110 0.395880 1.023686
Cu2   Cu    Cu3+1 0.507860 0.507890 0.604120 1.023685
F1    F     F_    0.788500 0.239004 0.867932 -0.622602
F2    F     F_    0.211499 0.760999 0.132068 -0.622598
F3    F     F_    0.740106 0.163259 0.664672 -0.597926
F4    F     F_    0.259895 0.836741 0.335329 -0.597926
H1    H     H_    0.603255 0.223091 0.994012 0.142386
H2    H     H_    0.399892 0.401000 0.996851 0.143965
H3    H     H_    0.522470 0.886538 0.665537 0.154072
H4    H     H_    0.477530 0.113462 0.334463 0.154073
H5    H     H_    0.248295 0.602219 0.986709 0.177321
H6    H     H_    0.751711 0.397791 0.013288 0.177322
H7    H     H_    0.160138 0.398639 0.938384 0.125633
H8    H     H_    0.839850 0.601376 0.061622 0.125628
H9    H     H_    0.077672 0.356949 0.757989 0.153063
H10   H     H_    0.922311 0.643063 0.242019 0.153056
H11   H     H_    0.304253 0.049084 0.672862 0.245185
H12   H     H_    0.396744 0.776914 0.005987 0.142384
H13   H     H_    0.255680 0.153904 0.759347 0.238967
H14   H     H_    0.695747 0.950914 0.327138 0.245186
H15   H     H_    0.744319 0.846097 0.240651 0.238964
H16   H     H_    0.299510 0.201528 0.942684 0.235530
H17   H     H_    0.344486 0.055935 0.966656 0.273395
H18   H     H_    0.700488 0.798476 0.057314 0.235529
H19   H     H_    0.655511 0.944069 0.033344 0.273394
H20   H     H_    0.174353 0.725347 0.673282 0.131801
H21   H     H_    0.825663 0.274651 0.326710 0.131801
H22   H     H_    0.256642 0.765419 0.853812 0.134191
H23   H     H_    0.743378 0.234582 0.146178 0.134196
H24   H     H_    0.887526 0.523277 0.665589 0.165784
H25   H     H_    0.112474 0.476726 0.334411 0.165785
H26   H     H_    0.600107 0.599001 0.003148 0.143963
N1    N     N_1   0.480320 0.480250 0.239400 -0.188039
N2    N     N_1   0.519680 0.519750 0.760600 -0.188040
N3    N     N_3   0.313269 0.077807 0.751537 -0.619004
N4    N     N_3   0.686730 0.922194 0.248463 -0.619004
N5    N     N_3   0.374516 0.147061 0.964094 -0.619454
N6    N     N_3   0.625482 0.852943 0.035905 -0.619454
O1    O     O_R   0.313000 0.493330 0.412070 -0.490328
O2    O     O_R   0.687000 0.506670 0.587930 -0.490328
O3    O     O_R   0.326280 0.506660 0.587930 -0.501974
O4    O     O_R   0.673720 0.493340 0.412070 -0.501973
O5    O     O_R   0.493370 0.312980 0.412070 -0.515016
O6    O     O_R   0.506630 0.687020 0.587930 -0.515017
O7    O     O_R   0.506650 0.326310 0.587930 -0.491065
O8    O     O_R   0.493350 0.673690 0.412070 -0.491065

loop_
_geom_bond_atom_site_label_1
_geom_bond_atom_site_label_2
_ccdc_geom_bond_type
C27   C29   A    
C17   O6    A    
C14   C18   A    
C37   H12   S    
C29   C41   S    
Cu2   O7    S    
H13   N3    S    
Cu1   Cu2   S    
C15   C19   A    
C21   H26   S    
C11   C19   A    
C9    C42   A    
C17   C23   S    
C13   C18   A    
Cu1   O5    S    
C11   C14   A    
C2    H10   S    
C39   H4    S    
C44   H9    S    
C23   C40   A    
C33   C36   A    
C12   O2    A    
H19   N6    S    
C43   H8    S    
C16   C34   S    
C28   F4    S    
C20   C24   S    
C16   O5    A    
C31   C33   A    
C3    C19   S    
C9    H5    S    
C10   H6    S    
C25   F1    S    
C26   F2    S    
Cu2   O3    S    
C4    C18   S    
C16   O7    A    
H15   N4    S    
C21   C22   S    
H14   N4    S    
Cu1   O1    S    
C34   C41   A    
C42   C44   A    
C42   H7    S    
C35   N6    S    
Cu2   O6    S    
C1    O3    A    
C6    H21   S    
C3    C44   A    
C34   C39   A    
C32   C35   A    
C13   H25   S    
C22   N2    T    
C38   C41   A    
C4    C6    A    
C39   C40   A    
Cu2   N2    S    
C6    C8    A    
C2    C4    A    
C5    H20   S    
C32   N4    S    
C2    C43   A    
C30   C40   S    
Cu1   O8    S    
C36   H1    S    
C1    C15   S    
C12   C14   S    
H17   N5    S    
C13   C15   A    
Cu2   O2    S    
C25   C27   A    
C7    H22   S    
C5    C7    A    
C7    C9    A    
C35   C37   A    
C10   C43   A    
C17   O8    A    
C3    C5    A    
C11   H24   S    
C26   C37   A    
C31   N3    S    
C1    O1    A    
C23   C38   A    
C26   C28   A    
C12   O4    A    
C20   H2    S    
H18   N6    S    
C28   C30   A    
Cu1   O4    S    
C29   C31   A    
H16   N5    S    
C30   C32   A    
C38   H3    S    
H11   N3    S    
C8    H23   S    
C25   C36   A    
C24   N1    T    
C20   C21   D    
C8    C10   A    
Cu1   N1    S    
C33   N5    S    
C27   F3    S    
