data_mof_unit_3103.cif
_audit_creation_date              2012-10-26T18:27:29-0400
_audit_creation_method            fapswitch 2.2
_symmetry_space_group_name_H-M    P1
_symmetry_Int_Tables_number       1
_space_group_crystal_system       triclinic
_cell_length_a                    10.809459
_cell_length_b                    11.11816
_cell_length_c                    9.905936
_cell_angle_alpha                 111.6682
_cell_angle_beta                  97.090749
_cell_angle_gamma                 92.068531
_cell_volume                      1093.60838115

loop_
_atom_site_label
_atom_site_type_symbol
_atom_type_description
_atom_site_fract_x
_atom_site_fract_y
_atom_site_fract_z
_atom_type_partial_charge
C1    C     C_R   0.490697 0.255226 0.440607 0.567392
C2    C     C_2   0.490029 0.928214 0.473471 -0.012008
C3    C     C_2   0.504644 0.511442 0.077827 0.029680
C4    C     C_R   0.263307 0.502665 0.504076 0.559211
C5    C     C_2   0.485824 0.490713 0.916756 0.118818
C6    C     C_R   0.502439 0.745990 0.559281 0.539423
C7    C     C_R   0.737573 0.509039 0.499017 0.533321
C8    C     C_R   0.149287 0.750727 0.636108 0.005019
C9    C     C_R   0.102212 0.865206 0.629469 -0.008317
C10   C     C_R   0.982516 0.857925 0.554808 -0.085578
C11   C     C_R   0.904111 0.742020 0.500372 -0.015903
C12   C     C_R   0.077802 0.629193 0.558541 -0.019521
C13   C     C_R   0.947925 0.628487 0.517412 0.015120
C14   C     C_1   0.104874 0.266590 0.429246 0.208195
C15   C     C_1   0.387979 0.397869 0.815673 0.276018
C16   C     C_3   0.652770 0.653766 0.954697 -0.226795
C17   C     C_3   0.350067 0.338927 0.057549 -0.195753
C18   C     C_1   0.251386 0.762525 0.750528 0.211287
C19   C     C_3   0.176538 0.996282 0.698016 -0.391091
C20   C     C_3   0.783848 0.738726 0.406331 -0.385611
C21   C     C_1   0.419515 0.845770 0.331418 0.216757
C22   C     C_3   0.667413 0.116387 0.564506 -0.378664
C23   C     C_R   0.130722 0.508154 0.515917 -0.003059
C24   C     C_3   0.550610 0.979465 0.745108 -0.410791
C25   C     C_R   0.053819 0.391382 0.469681 -0.034365
C26   C     C_R   0.925499 0.395522 0.467067 -0.147664
C27   C     C_R   0.871407 0.512314 0.490462 -0.001324
C28   C     C_2   0.467862 0.118547 0.410245 -0.081429
C29   C     C_2   0.536770 0.059146 0.485708 -0.041282
C30   C     C_2   0.510906 0.886596 0.587877 -0.037624
Cu1   Cu    Cu3+1 0.521920 0.521810 0.644910 0.978333
Cu2   Cu    Cu3+1 0.478080 0.478190 0.355090 0.942489
H1    H     H_    0.382516 0.070600 0.336643 0.125252
H2    H     H_    0.389521 0.258597 0.973910 0.092624
H3    H     H_    0.272609 0.991691 0.748693 0.135497
H4    H     H_    0.185060 0.037056 0.612410 0.175532
H5    H     H_    0.127625 0.063541 0.783956 0.134070
H6    H     H_    0.774625 0.653296 0.301490 0.141475
H7    H     H_    0.708297 0.735170 0.468212 0.160910
H8    H     H_    0.777150 0.826831 0.378939 0.112291
H9    H     H_    0.721903 0.042615 0.589603 0.121871
H10   H     H_    0.719511 0.149784 0.493075 0.122838
H11   H     H_    0.663202 0.199642 0.668520 0.159927
H12   H     H_    0.573356 0.587521 0.151980 0.125700
H13   H     H_    0.498050 0.950834 0.819413 0.161732
H14   H     H_    0.652008 0.976433 0.778210 0.130594
H15   H     H_    0.529683 0.080456 0.761688 0.139285
H16   H     H_    0.949032 0.944652 0.542511 0.119878
H17   H     H_    0.866700 0.306672 0.442434 0.110151
H18   H     H_    0.698488 0.695858 0.885979 0.169841
H19   H     H_    0.612508 0.733785 0.037920 0.113726
H20   H     H_    0.725360 0.611069 0.008430 0.086634
H21   H     H_    0.316405 0.297797 0.133746 0.175742
H22   H     H_    0.266616 0.374365 0.011668 0.122887
N1    N     N_2   0.445130 0.445430 0.137370 -0.253643
N2    N     N_2   0.554930 0.554500 0.862630 -0.254705
N3    N     N_1   0.145444 0.166536 0.396704 -0.323864
N4    N     N_1   0.309379 0.322784 0.735402 -0.320336
N5    N     N_1   0.330888 0.773310 0.845003 -0.264413
N6    N     N_1   0.363235 0.781254 0.218726 -0.275318
O1    O     O_R   0.511700 0.332330 0.577400 -0.486714
O2    O     O_R   0.474680 0.295500 0.332650 -0.509559
O3    O     O_R   0.338160 0.518420 0.622400 -0.473325
O4    O     O_R   0.301140 0.481590 0.377650 -0.497267
O5    O     O_R   0.525320 0.704500 0.667350 -0.487025
O6    O     O_R   0.488300 0.667670 0.422600 -0.503316
O7    O     O_R   0.698860 0.518410 0.622350 -0.502583
O8    O     O_R   0.661840 0.481580 0.377600 -0.510671

loop_
_geom_bond_atom_site_label_1
_geom_bond_atom_site_label_2
_ccdc_geom_bond_type
C1    C28   S    
C16   N2    S    
C22   C29   S    
Cu1   O3    S    
Cu1   N2    S    
C20   H6    S    
C9    C10   A    
C4    O4    A    
Cu2   N1    S    
Cu1   Cu2   S    
C12   C23   A    
C16   H19   S    
C8    C12   A    
Cu2   O8    S    
C24   H14   S    
C1    O2    A    
C2    C21   S    
C7    O8    A    
Cu2   O2    S    
Cu1   O1    S    
C19   H3    S    
Cu1   O7    S    
C11   C13   A    
C4    O3    A    
C26   C27   A    
C22   H10   S    
C2    C29   S    
C24   H13   S    
C28   C29   D    
C6    C30   S    
C16   H18   S    
C28   H1    S    
C19   H4    S    
C23   C25   A    
C14   C25   S    
C10   H16   S    
C20   H8    S    
C15   N4    T    
C24   C30   S    
C11   C20   S    
C5    C15   S    
C22   H9    S    
C19   H5    S    
C10   C11   A    
C14   N3    T    
C7    O7    A    
C17   H21   S    
C18   N5    T    
C6    O6    A    
C7    C27   S    
C12   C13   A    
Cu2   O4    S    
C21   N6    T    
Cu2   O6    S    
C17   H2    S    
C26   H17   S    
C16   H20   S    
C4    C23   S    
C20   H7    S    
C17   N1    S    
C13   C27   A    
C2    C30   D    
Cu1   O5    S    
C5    N2    D    
C3    H12   S    
C25   C26   A    
C24   H15   S    
C3    N1    D    
C17   H22   S    
C9    C19   S    
C6    O5    A    
C8    C18   S    
C22   H11   S    
C8    C9    A    
C3    C5    S    
C1    O1    A    
