data_mof_unit_169.cif
_audit_creation_date              2012-12-10T17:22:43-0500
_audit_creation_method            fapswitch 2.2
_symmetry_space_group_name_H-M    P1
_symmetry_Int_Tables_number       1
_space_group_crystal_system       triclinic
_cell_length_a                    10.621499
_cell_length_b                    10.743062
_cell_length_c                    9.637491
_cell_angle_alpha                 91.741465
_cell_angle_beta                  88.960729
_cell_angle_gamma                 91.048723
_cell_volume                      1098.84712177

loop_
_atom_site_label
_atom_site_type_symbol
_atom_type_description
_atom_site_fract_x
_atom_site_fract_y
_atom_site_fract_z
_atom_type_partial_charge
C1    C     C_R   0.496927 0.262855 0.498304 0.770036
C2    C     C_3   0.962216 0.503158 0.366502 -0.135187
C3    C     C_3   0.042200 0.399788 0.428366 -0.177936
C4    C     C_3   0.122534 0.500962 0.502325 -0.016575
C5    C     C_R   0.282321 0.130871 0.619581 -0.186995
C6    C     C_R   0.183870 0.067071 0.685202 -0.239877
C7    C     C_R   0.185717 0.937576 0.693290 0.045404
C8    C     C_R   0.285427 0.871694 0.630387 -0.112955
C9    C     C_R   0.387305 0.935031 0.565708 0.046492
C10   C     C_R   0.386082 0.066213 0.561170 0.099219
C11   C     C_R   0.487610 0.128947 0.495092 -0.083879
C12   C     C_R   0.259603 0.500341 0.501007 0.772434
C13   C     C_R   0.584942 0.063520 0.429237 -0.195890
C14   C     C_R   0.586017 0.935302 0.433148 -0.195022
C15   C     C_R   0.489969 0.871158 0.503186 -0.086495
C16   C     C_R   0.671907 0.658036 0.140548 -0.270360
C17   C     C_R   0.753193 0.734136 0.062679 -0.023306
C18   C     C_R   0.726016 0.752209 0.923412 -0.257275
C19   C     C_R   0.613394 0.702174 0.871924 -0.012550
C20   C     C_R   0.567429 0.590454 0.928925 0.230106
C21   C     C_R   0.579040 0.581346 0.075441 0.221192
C22   C     C_R   0.428242 0.418390 0.072455 -0.020897
C23   C     C_R   0.496849 0.737174 0.501498 0.759018
C24   C     C_R   0.431506 0.415753 0.924512 -0.038464
C25   C     C_R   0.740338 0.499773 0.498901 0.771687
C26   C     C_3   0.036833 0.497844 0.632278 -0.082662
C27   C     C_3   0.954672 0.396513 0.558415 -0.181922
C28   C     C_3   0.877200 0.499893 0.496950 -0.015843
C29   C     C_3   0.956812 0.601330 0.570811 -0.216298
C30   C     C_3   0.043911 0.602980 0.441514 0.006733
Cu1   Cu    Cu3+1 0.499990 0.499990 0.640660 0.967125
Cu2   Cu    Cu3+1 0.500010 0.500010 0.359340 0.973171
H1    H     H_    0.914793 0.311315 0.606102 0.132920
H2    H     H_    0.368868 0.351926 0.126221 0.137039
H3    H     H_    0.684828 0.662844 0.249500 0.186447
H4    H     H_    0.773541 0.827004 0.869104 0.161810
H5    H     H_    0.375019 0.346871 0.868494 0.137760
H6    H     H_    0.069658 0.495371 0.740850 0.181856
H7    H     H_    0.929361 0.506253 0.257948 0.154024
H8    H     H_    0.662008 0.112229 0.377743 0.147234
H9    H     H_    0.275710 0.230966 0.614503 0.139242
N1    N     N_R   0.501210 0.501210 0.147910 -0.184883
N2    N     N_R   0.501250 0.501290 0.852040 -0.190107
O1    O     O_R   0.499990 0.319640 0.618810 -0.587456
O2    O     O_R   0.500000 0.319660 0.381240 -0.580473
O3    O     O_R   0.316850 0.499960 0.618770 -0.583844
O4    O     O_R   0.316860 0.499980 0.381190 -0.540502
O5    O     O_R   0.500000 0.680340 0.618760 -0.588576
O6    O     O_R   0.500010 0.680360 0.381190 -0.558217
O7    O     O_R   0.683140 0.500020 0.618810 -0.570581
O8    O     O_R   0.683150 0.500040 0.381230 -0.613420
C31   C     C_2   0.083470 0.872644 0.769396 0.389423
H10   H     H_    0.998679 0.922064 0.799821 0.078892
O9    O     O_2   0.093811 0.764410 0.801909 -0.509685
H11   H     H_    0.282722 0.771115 0.632951 0.178428
H12   H     H_    0.663324 0.885759 0.383205 0.121487
C32   C     C_2   0.856098 0.804599 0.132691 0.443474
H13   H     H_    0.870247 0.794382 0.242981 0.015284
O10   O     O_2   0.926007 0.874752 0.068750 -0.527865
C33   C     C_2   0.520441 0.801591 0.853170 0.426347
H14   H     H_    0.551054 0.891387 0.814604 0.044932
O11   O     O_2   0.409457 0.785490 0.884433 -0.492880
H15   H     H_    0.916780 0.683685 0.626866 0.147931
C34   C     C_2   0.095265 0.719035 0.377813 0.329853
H16   H     H_    0.073476 0.809326 0.424640 0.052214
O12   O     O_2   0.161723 0.712614 0.273354 -0.466376
H17   H     H_    0.080061 0.317103 0.370886 0.143624
H18   H     H_    0.106466 0.119323 0.730969 0.132413

loop_
_geom_bond_atom_site_label_1
_geom_bond_atom_site_label_2
_ccdc_geom_bond_type
C4    C26   S    
C29   H15   S    
Cu2   O8    S    
C29   C30   S    
C26   H6    S    
C30   C34   S    
C19   C33   S    
C4    C12   S    
C25   O8    A    
C9    C10   A    
C19   C20   A    
C1    O1    A    
C14   H12   S    
Cu1   Cu2   S    
C1    C11   S    
C2    C30   S    
C10   C11   A    
C34   H16   S    
C18   H4    S    
C6    H18   S    
C24   H5    S    
C9    C15   A    
C4    C30   S    
C5    C10   A    
C13   C14   A    
C27   H1    S    
C25   C28   S    
C11   C13   A    
C1    O2    A    
C26   C27   S    
C22   N1    A    
Cu1   N2    S    
C12   O4    A    
C8    H11   S    
C3    C27   S    
C28   C29   S    
C31   O9    D    
C7    C31   S    
C17   C18   A    
C6    C7    A    
C2    C3    S    
Cu1   O5    S    
C16   H3    S    
Cu2   N1    S    
C5    C6    A    
C22   H2    S    
Cu2   O4    S    
C22   C24   A    
Cu2   O6    S    
C32   O10   D    
C23   O6    A    
Cu1   O1    S    
C15   C23   S    
Cu1   O7    S    
C21   N1    A    
C7    C8    A    
C20   N2    A    
C20   C21   A    
C26   C29   S    
C33   O11   D    
C18   C19   A    
Cu2   O2    S    
C17   C32   S    
C27   C28   S    
C24   N2    A    
C5    H9    S    
C14   C15   A    
C33   H14   S    
C13   H8    S    
C2    C28   S    
C23   O5    A    
C32   H13   S    
C25   O7    A    
C16   C21   A    
C2    H7    S    
Cu1   O3    S    
C3    H17   S    
C3    C4    S    
C16   C17   A    
C31   H10   S    
C8    C9    A    
C12   O3    A    
C34   O12   D    
