data_mof_unit_3887.cif
_audit_creation_date              2012-12-10T18:59:59-0500
_audit_creation_method            fapswitch 2.2
_symmetry_space_group_name_H-M    P1
_symmetry_Int_Tables_number       1
_space_group_crystal_system       triclinic
_cell_length_a                    10.619536
_cell_length_b                    10.665247
_cell_length_c                    9.844698
_cell_angle_alpha                 90.23611
_cell_angle_beta                  89.928332
_cell_angle_gamma                 90.046158
_cell_volume                      1114.9995472

loop_
_atom_site_label
_atom_site_type_symbol
_atom_type_description
_atom_site_fract_x
_atom_site_fract_y
_atom_site_fract_z
_atom_type_partial_charge
C1    C     C_R   0.499447 0.259970 0.499728 0.889043
C2    C     C_R   0.454578 0.064561 0.613970 -0.134655
C3    C     C_R   0.501214 0.872425 0.500622 -0.038957
C4    C     C_R   0.498781 0.127574 0.499376 -0.038947
C5    C     C_R   0.577217 0.578980 0.072156 -0.068201
C6    C     C_R   0.422782 0.421020 0.927844 -0.068211
C7    C     C_R   0.577239 0.578894 0.928281 -0.095559
C8    C     C_R   0.422761 0.421106 0.071719 -0.095552
C9    C     C_R   0.260371 0.502062 0.500005 0.983753
C10   C     C_R   0.739630 0.497938 0.499995 0.983754
C11   C     C_R   0.209149 0.916605 0.357257 -0.073144
C12   C     C_R   0.500552 0.740030 0.500271 0.889036
C13   C     C_R   0.790889 0.083378 0.642703 -0.073178
C14   C     C_R   0.148013 0.819670 0.428311 0.025668
C15   C     C_R   0.852027 0.180322 0.571666 0.025677
C16   C     C_R   0.128064 0.703051 0.362046 0.108564
C17   C     C_R   0.871940 0.296944 0.637935 0.108537
C18   C     C_R   0.168877 0.686557 0.227372 -0.049049
C19   C     C_R   0.831096 0.313434 0.772598 -0.049053
C20   C     C_R   0.230779 0.783207 0.159296 -0.131879
C21   C     C_R   0.769192 0.216774 0.840657 -0.131874
C22   C     C_R   0.250716 0.898030 0.224055 -0.158361
C23   C     C_R   0.871962 0.497228 0.500121 -0.312856
C24   C     C_R   0.749290 0.101948 0.775893 -0.158372
C25   C     C_R   0.933264 0.593583 0.430858 0.590996
C26   C     C_R   0.066738 0.406420 0.569141 0.590983
C27   C     C_2   0.106058 0.840975 0.570508 0.409464
C28   C     C_2   0.894017 0.159024 0.429481 0.409499
C29   C     C_R   0.128040 0.502774 0.499878 -0.312865
C30   C     C_R   0.937104 0.402613 0.569549 -0.235647
C31   C     C_R   0.062899 0.597391 0.430447 -0.235649
C32   C     C_R   0.543936 0.063780 0.385289 -0.207748
C33   C     C_R   0.456057 0.936220 0.614709 -0.207692
C34   C     C_R   0.545414 0.935440 0.386028 -0.134707
F1    F     F_    0.866620 0.685111 0.367193 -0.657141
F2    F     F_    0.133380 0.314888 0.632807 -0.657137
H1    H     H_    0.298648 0.972916 0.171018 0.142147
H2    H     H_    0.736826 0.230878 0.943905 0.139217
H3    H     H_    0.579512 0.112827 0.296992 0.167887
H4    H     H_    0.420480 0.887172 0.703005 0.167893
H5    H     H_    0.581441 0.885769 0.297940 0.176371
H6    H     H_    0.418551 0.114231 0.702057 0.176370
H7    H     H_    0.638938 0.642148 0.126836 0.163568
H8    H     H_    0.361061 0.357853 0.873164 0.163571
H9    H     H_    0.061346 0.766419 0.627602 0.062102
H10   H     H_    0.938718 0.233592 0.372397 0.062087
H11   H     H_    0.701358 0.027053 0.828919 0.142150
H12   H     H_    0.639031 0.641945 0.873949 0.136940
H13   H     H_    0.360968 0.358056 0.126051 0.136941
H14   H     H_    0.225840 0.006742 0.405040 0.187662
H15   H     H_    0.774223 0.993238 0.594915 0.187667
H16   H     H_    0.153570 0.598061 0.175502 0.132825
H17   H     H_    0.846378 0.401933 0.824470 0.132836
H18   H     H_    0.263120 0.769099 0.056037 0.139223
N1    N     N_R   0.499970 0.499970 0.857200 -0.085105
N2    N     N_R   0.500030 0.500030 0.142800 -0.085103
O1    O     O_R   0.499990 0.316750 0.614620 -0.616832
O2    O     O_2   0.879206 0.057461 0.373958 -0.550138
O3    O     O_R   0.500010 0.683250 0.385380 -0.616829
O4    O     O_R   0.499990 0.316780 0.385290 -0.639705
O5    O     O_R   0.500010 0.683220 0.614710 -0.639706
O6    O     O_R   0.316760 0.500000 0.614660 -0.589595
O7    O     O_R   0.683240 0.500000 0.385340 -0.589593
O8    O     O_R   0.316760 0.500020 0.385330 -0.632992
O9    O     O_R   0.683240 0.499980 0.614670 -0.632996
O10   O     O_2   0.120910 0.942529 0.626035 -0.550151
Zn1   Zn    Zn3+2 0.500000 0.499980 0.653120 0.961370
Zn2   Zn    Zn3+2 0.500000 0.500020 0.346880 0.961375

loop_
_geom_bond_atom_site_label_1
_geom_bond_atom_site_label_2
_ccdc_geom_bond_type
C25   C31   A    
C18   C20   A    
N1    Zn1   S    
C15   C17   A    
C12   O5    A    
C7    N1    A    
C14   C27   S    
C9    O8    A    
C5    C7    A    
O5    Zn1   S    
C11   C22   A    
C2    C4    A    
C10   O7    A    
C9    C29   S    
C6    N1    A    
C1    C4    S    
C7    H12   S    
C19   H17   S    
C23   C25   A    
C5    H7    S    
C18   H16   S    
C29   C31   A    
C11   H14   S    
C6    H8    S    
C16   C31   S    
C28   O2    D    
C17   C30   S    
C12   O3    A    
C28   H10   S    
C15   C28   S    
C4    C32   A    
C34   H5    S    
O6    Zn1   S    
O1    Zn1   S    
O8    Zn2   S    
C2    C33   A    
C26   F2    S    
C17   C19   A    
C2    H6    S    
C26   C30   A    
C1    O1    A    
C13   C15   A    
C32   H3    S    
O3    Zn2   S    
C11   C14   A    
C14   C16   A    
C21   C24   A    
C33   H4    S    
C25   F1    S    
C27   H9    S    
C3    C33   A    
C9    O6    A    
C23   C30   A    
C22   H1    S    
C13   H15   S    
O4    Zn2   S    
C26   C29   A    
C20   H18   S    
C1    O4    A    
C27   O10   D    
C8    N2    A    
O7    Zn2   S    
C10   C23   S    
C6    C8    A    
C3    C12   S    
C5    N2    A    
C3    C34   A    
C19   C21   A    
N2    Zn2   S    
C24   H11   S    
C8    H13   S    
C16   C18   A    
C21   H2    S    
C13   C24   A    
C20   C22   A    
O9    Zn1   S    
C10   O9    A    
C32   C34   A    
