data_mof_unit_4984.cif
_audit_creation_date              2013-03-05T15:46:57-0500
_audit_creation_method            fapswitch 2.2
_symmetry_space_group_name_H-M    P1
_symmetry_Int_Tables_number       1
_space_group_crystal_system       triclinic
_cell_length_a                    10.171474
_cell_length_b                    10.869127
_cell_length_c                    14.984285
_cell_angle_alpha                 89.976206
_cell_angle_beta                  80.695204
_cell_angle_gamma                 95.933238
_cell_volume                      1625.78603929

loop_
_atom_site_label
_atom_site_type_symbol
_atom_site_description
_atom_site_fract_x
_atom_site_fract_y
_atom_site_fract_z
_atom_type_partial_charge
O1    O     O_R   0.431060 0.692470 0.507460 -0.584330
O2    O     O_R   0.568940 0.307530 0.492540 -0.584388
O3    O     O_R   0.651120 0.659650 0.483670 -0.595070
O4    O     O_R   0.348880 0.340350 0.516330 -0.595060
C1    C     C_R   0.557337 0.732460 0.493966 0.845011
C2    C     C_R   0.442663 0.267540 0.506036 0.844933
O5    O     O_R   0.389960 0.516440 0.644050 -0.588445
O6    O     O_R   0.610040 0.483560 0.355950 -0.588466
O7    O     O_R   0.610030 0.483620 0.620260 -0.595356
O8    O     O_R   0.389970 0.516380 0.379740 -0.595293
C3    C     C_R   0.499162 0.497268 0.673018 0.923597
C4    C     C_R   0.500842 0.502742 0.326981 0.923697
Zn1   Zn    Zn3+2 0.353060 0.521920 0.515880 1.122907
Zn2   Zn    Zn3+2 0.646940 0.478080 0.484120 1.122874
C5    C     C_R   0.572231 0.422009 0.178928 -0.186044
C6    C     C_R   0.427842 0.578086 0.821059 -0.186023
C7    C     C_R   0.502304 0.507142 0.231207 -0.206317
C8    C     C_R   0.497729 0.492919 0.768789 -0.206324
C9    C     C_R   0.431665 0.592107 0.192832 0.301914
C10   C     C_R   0.568393 0.407980 0.807164 0.301946
C11   C     C_R   0.430609 0.589628 0.099622 -0.019896
C12   C     C_R   0.569500 0.410498 0.900365 -0.019878
C13   C     C_R   0.500451 0.501702 0.046561 -0.028609
C14   C     C_R   0.499669 0.498433 0.953424 -0.028625
C15   C     C_R   0.571523 0.417357 0.086646 0.085922
C16   C     C_R   0.428592 0.582773 0.913338 0.085926
C17   C     C_R   0.362972 0.674254 0.058403 -0.235090
C18   C     C_R   0.637177 0.325900 0.941576 -0.235076
C19   C     C_R   0.360584 0.671100 0.965506 0.455988
C20   C     C_R   0.639563 0.329053 0.034473 0.455969
H1    H     H_    0.624649 0.357254 0.211370 0.239651
H2    H     H_    0.375413 0.642830 0.788615 0.239640
H3    H     H_    0.311842 0.743620 0.097844 0.201741
H4    H     H_    0.688332 0.256554 0.902129 0.201751
H5    H     H_    0.599750 0.104780 0.448910 0.233125
H6    H     H_    0.400252 0.895219 0.551096 0.233125
C21   C     C_2   0.593299 0.864801 0.486845 0.126360
C22   C     C_2   0.406702 0.135198 0.513159 0.126373
C23   C     C_2   0.494772 0.935744 0.513146 -0.161322
C24   C     C_2   0.505229 0.064256 0.486860 -0.161382
H7    H     H_    0.111318 0.424603 0.444713 0.169296
H8    H     H_    0.888681 0.575396 0.555288 0.169304
N1    N     N_2   0.842700 0.448880 0.462930 -0.017209
N2    N     N_2   0.157300 0.551120 0.537070 -0.017204
C25   C     C_2   0.927659 0.509951 0.505959 0.048807
C26   C     C_2   0.072340 0.490048 0.494042 0.048786
N3    N     N_R   0.364533 0.682062 0.248170 0.206622
O9    O     O_R   0.234357 0.675575 0.262149 -0.317202
O10   O     O_R   0.432778 0.763625 0.290820 -0.363371
N4    N     N_R   0.635456 0.317977 0.751835 0.206582
O11   O     O_R   0.567090 0.236196 0.709421 -0.363304
O12   O     O_R   0.765638 0.324511 0.737717 -0.317190
O13   O     O_3   0.293104 0.753490 0.924478 -0.721850
H9    H     H_    0.250937 0.808828 0.970722 0.360293
O14   O     O_3   0.707067 0.246679 0.075497 -0.721857
H10   H     H_    0.749255 0.191358 0.029249 0.360292
N5    N     N_R   0.273061 0.085416 0.552619 0.226221
O15   O     O_R   0.206714 0.141771 0.619157 -0.292920
O16   O     O_R   0.210533 0.995647 0.513439 -0.283504
N6    N     N_R   0.726939 0.914585 0.447386 0.226209
O17   O     O_R   0.793286 0.858231 0.380846 -0.292936
O18   O     O_R   0.789468 0.004351 0.486567 -0.283512
N7    N     N_R   0.109756 0.619164 0.612013 0.290848
O19   O     O_R   0.178010 0.722346 0.627881 -0.301102
O20   O     O_R   0.023653 0.565598 0.677961 -0.340655
N8    N     N_R   0.890245 0.380837 0.387986 0.290847
O21   O     O_R   0.821990 0.277656 0.372116 -0.301104
O22   O     O_R   0.976348 0.434405 0.322039 -0.340643

loop_
_geom_bond_atom_site_label_1
_geom_bond_atom_site_label_2
_geom_bond_distance
_ccdc_geom_bond_type
C4    C7    1.433510 S    
N4    O12   1.301197 A    
C13   C14   1.397351 A    
N7    O20   1.302589 A    
C3    C8    1.433489 S    
C5    H1    1.084924 S    
C21   C23   1.336607 D    
C1    C21   1.446634 S    
C17   C19   1.396506 A    
C22   N5    1.441493 S    
N1    C25   1.290364 D    
C20   O14   1.383500 S    
N8    O22   1.302590 A    
N3    O9    1.301161 A    
O6    C4    1.292004 A    
H7    C26   1.083290 S    
Zn2   N1    2.023013 S    
O14   H10   0.991699 S    
C18   C20   1.396498 A    
H5    C24   1.084958 S    
C11   C17   1.403060 A    
C18   H4    1.081773 S    
N3    O10   1.301117 A    
C12   C18   1.403040 A    
C25   C26   1.491718 S    
C17   H3    1.081767 S    
O5    C3    1.292009 A    
O7    C3    1.290365 A    
C14   C16   1.414493 A    
N5    O15   1.301186 A    
O2    C2    1.296177 A    
O3    Zn2   1.969551 S    
C19   O13   1.383503 S    
N1    N8    1.393168 S    
O1    C1    1.296178 A    
O8    C4    1.290380 A    
N6    O18   1.301569 A    
C22   C24   1.336607 D    
C10   C12   1.398678 A    
N4    O11   1.301225 A    
C8    C10   1.403551 A    
C11   C13   1.417206 A    
N2    N7    1.393166 S    
C6    C16   1.384906 A    
O2    Zn2   1.935217 S    
C12   C14   1.417204 A    
C5    C15   1.384885 A    
C21   N6    1.441494 S    
O1    Zn1   1.935215 S    
C7    C9    1.403593 A    
N7    O19   1.299581 A    
O5    Zn1   2.017549 S    
C13   C15   1.414490 A    
N8    O21   1.299582 A    
N5    O16   1.301569 A    
C16   C19   1.405093 A    
C6    C8    1.390066 A    
O4    C2    1.291753 A    
C9    N3    1.437154 S    
C23   C24   1.439727 S    
C5    C7    1.390056 A    
O7    Zn2   2.015722 S    
C6    H2    1.084925 S    
C15   C20   1.405096 A    
C10   N4    1.437143 S    
O6    Zn2   2.017546 S    
C9    C11   1.398717 A    
C2    C22   1.446635 S    
O13   H9    0.991699 S    
Zn1   N2    2.023013 S    
H8    C25   1.083289 S    
H6    C23   1.084959 S    
O4    Zn1   1.969553 S    
N2    C26   1.290364 D    
N6    O17   1.301187 A    
O3    C1    1.291751 A    
O8    Zn1   2.015719 S    
