data_mof_unit_3204.cif
_audit_creation_date              2013-03-05T15:45:11-0500
_audit_creation_method            fapswitch 2.2
_symmetry_space_group_name_H-M    P1
_symmetry_Int_Tables_number       1
_space_group_crystal_system       triclinic
_cell_length_a                    11.51233
_cell_length_b                    11.495128
_cell_length_c                    19.480176
_cell_angle_alpha                 90.634442
_cell_angle_beta                  90.118233
_cell_angle_gamma                 60.186203
_cell_volume                      2236.56910567

loop_
_atom_site_label
_atom_site_type_symbol
_atom_site_description
_atom_site_fract_x
_atom_site_fract_y
_atom_site_fract_z
_atom_type_partial_charge
O1    O     O_R   0.267740 0.231990 0.575440 -0.496343
O2    O     O_R   0.527280 0.186680 0.570530 -0.490624
C1    C     C_R   0.640758 0.117858 0.599027 0.551261
O3    O     O_R   0.728090 0.003480 0.576380 -0.499184
O4    O     O_R   0.682970 0.789220 0.570490 -0.485237
C2    C     C_R   0.612797 0.745336 0.598433 0.558621
O5    O     O_R   0.499290 0.771920 0.575530 -0.498682
O6    O     O_R   0.285330 0.030900 0.569730 -0.487137
C3    C     C_R   0.240101 0.145675 0.597954 0.559685
O7    O     O_R   0.270980 0.227040 0.423900 -0.497051
O8    O     O_R   0.530280 0.182090 0.430050 -0.518437
C4    C     C_R   0.644532 0.111508 0.401936 0.534518
O9    O     O_R   0.731330 0.998530 0.424830 -0.524162
O10   O     O_R   0.685970 0.784630 0.430010 -0.502415
C5    C     C_R   0.582190 0.802159 0.395425 0.541554
O11   O     O_R   0.502530 0.766960 0.423990 -0.509369
O12   O     O_R   0.288330 0.026310 0.429250 -0.515945
C6    C     C_R   0.300135 0.115338 0.393716 0.529921
Cr1   Cr    Cr6+3 0.404720 0.198220 0.499960 1.029082
Cr2   Cr    Cr6+3 0.698290 0.897110 0.500380 1.030434
Cr3   Cr    Cr6+3 0.396970 0.904720 0.499610 1.029843
O13   O     O_3   0.499990 0.000020 0.499980 -0.295421
C7    C     C_1   0.670241 0.647402 0.860298 0.009926
C8    C     C_1   0.655131 0.683482 0.728371 -0.030174
C9    C     C_1   0.663536 0.667214 0.799740 -0.028823
C10   C     C_1   0.641647 0.703286 0.667813 0.004674
C11   C     C_1   0.127503 0.198209 0.859456 0.007190
C12   C     C_1   0.170995 0.170302 0.727619 -0.029954
C13   C     C_1   0.150486 0.181818 0.798961 -0.028808
C14   C     C_1   0.194349 0.161287 0.667159 0.004009
C15   C     C_1   0.678147 0.190788 0.860986 0.008734
C16   C     C_1   0.658482 0.167734 0.728992 -0.029568
C17   C     C_1   0.665284 0.180794 0.800408 -0.028961
C18   C     C_1   0.653188 0.150401 0.668448 0.005644
C19   C     C_R   0.498444 0.793204 0.281253 -0.141927
H1    H     H_    0.399439 0.830689 0.302540 0.130784
C20   C     C_R   0.520323 0.757119 0.212751 -0.122767
H2    H     H_    0.437108 0.767644 0.182036 0.142847
C21   C     C_R   0.651012 0.694981 0.186367 0.047677
C22   C     C_R   0.756781 0.683346 0.226661 -0.079426
H3    H     H_    0.858549 0.634394 0.207282 0.178448
C23   C     C_R   0.734075 0.722698 0.294767 -0.130598
H4    H     H_    0.818610 0.706750 0.325966 0.146193
C24   C     C_R   0.605622 0.772597 0.322883 0.011108
C25   C     C_R   0.286685 0.212205 0.280025 -0.125722
H5    H     H_    0.344170 0.256716 0.299289 0.133644
C26   C     C_R   0.236327 0.240933 0.213757 -0.120155
H6    H     H_    0.254605 0.308037 0.182858 0.139264
C27   C     C_R   0.158217 0.187598 0.188945 0.024806
C28   C     C_R   0.136335 0.100275 0.229803 -0.135290
H7    H     H_    0.075316 0.058676 0.211814 0.155412
C29   C     C_R   0.184509 0.073730 0.296429 -0.141449
H8    H     H_    0.160862 0.011463 0.328176 0.139339
C30   C     C_R   0.257877 0.131621 0.322266 0.020943
C31   C     C_R   0.733364 0.032665 0.286904 -0.120923
C32   C     C_R   0.731368 0.051705 0.216859 0.202928
C33   C     C_R   0.665384 0.183749 0.191653 0.009733
C34   C     C_R   0.589009 0.292464 0.236227 -0.184314
H9    H     H_    0.538114 0.394586 0.217852 0.151297
C35   C     C_R   0.585454 0.270930 0.306019 -0.161195
H10   H     H_    0.525517 0.355162 0.339946 0.143740
C36   C     C_R   0.660667 0.141177 0.331676 -0.016425
O14   O     O_R   0.821500 0.119550 0.952820 -0.490229
O15   O     O_R   0.037130 0.162750 0.957360 -0.496317
C37   C     C_R   0.082598 0.230811 0.928786 0.543339
O16   O     O_R   0.056440 0.344950 0.951330 -0.503039
O17   O     O_R   0.797900 0.560570 0.957460 -0.486546
C38   C     C_R   0.683636 0.605347 0.929676 0.551361
O18   O     O_R   0.596140 0.579600 0.952720 -0.504664
O19   O     O_R   0.639070 0.321380 0.958660 -0.496060
C39   C     C_R   0.707980 0.206403 0.930351 0.553962
O20   O     O_R   0.821240 0.124490 0.104360 -0.456711
O21   O     O_R   0.036900 0.167320 0.097830 -0.505978
C40   C     C_R   0.085065 0.235017 0.124810 0.539110
O22   O     O_R   0.056190 0.349890 0.102870 -0.511951
O23   O     O_R   0.797670 0.565150 0.097930 -0.485258
C41   C     C_R   0.680543 0.617273 0.123688 0.556908
O24   O     O_R   0.595880 0.584540 0.104260 -0.526716
O25   O     O_R   0.638830 0.325960 0.099140 -0.513751
C42   C     C_R   0.705728 0.210102 0.125642 0.574637
Cr4   Cr    Cr6+3 0.926180 0.152240 0.028110 1.077897
Cr5   Cr    Cr6+3 0.921340 0.452070 0.027460 1.070862
Cr6   Cr    Cr6+3 0.626260 0.447120 0.028700 1.039159
O26   O     O_3   0.824590 0.350480 0.028090 -0.269799
N1    N     N_R   0.799398 0.936732 0.172154 0.083896
O27   O     O_R   0.744283 0.930227 0.114898 -0.334402
O28   O     O_R   0.913630 0.835313 0.190126 -0.374431
H11   H     H_    0.787106 0.931374 0.305973 0.157951

loop_
_geom_bond_atom_site_label_1
_geom_bond_atom_site_label_2
_geom_bond_distance
_ccdc_geom_bond_type
C31   C32   1.382663 A    
O11   Cr3   2.048572 S    
C11   C13   1.200445 T    
O21   C40   1.268101 A    
C19   H1    1.079988 S    
C32   N1    1.437551 S    
C26   C27   1.399274 A    
O4    Cr2   1.921071 S    
C25   H5    1.082594 S    
O8    Cr1   1.927303 S    
O14   Cr4   2.043381 S    
C11   C37   1.425035 S    
C21   C41   1.442202 S    
C12   C13   1.403895 S    
C19   C20   1.378927 A    
C8    C10   1.199002 T    
C5    C24   1.443945 S    
O4    C2    1.271425 A    
C34   C35   1.388926 A    
C5    O11   1.300172 A    
C31   C36   1.399227 A    
C32   C33   1.410845 A    
C35   C36   1.398106 A    
C31   H11   1.081103 S    
O24   Cr6   2.045844 S    
C26   H6    1.083417 S    
C38   O18   1.266878 A    
C28   C29   1.386625 A    
C15   C17   1.200365 T    
O19   C39   1.274108 A    
O20   Cr4   2.041735 S    
C41   O24   1.262844 A    
C15   C39   1.424790 S    
C19   C24   1.394875 A    
Cr3   O13   1.974450 S    
C33   C42   1.453273 S    
C23   C24   1.403119 A    
O21   Cr4   1.925281 S    
C29   C30   1.399753 A    
C28   H7    1.083609 S    
C25   C26   1.388359 A    
O1    Cr1   2.046382 S    
C40   O22   1.269745 A    
N1    O28   1.301448 A    
O17   C38   1.272095 A    
O10   Cr2   1.927003 S    
Cr1   O13   1.977118 S    
O1    C3    1.265776 A    
C8    C9    1.401583 S    
O23   Cr5   1.931183 S    
C21   C22   1.397538 A    
O6    C3    1.271262 A    
C1    C18   1.424943 S    
C34   H9    1.083513 S    
N1    O27   1.301773 A    
O12   Cr3   1.921852 S    
C35   H10   1.083420 S    
C16   C18   1.200410 T    
C7    C38   1.422496 S    
C20   H2    1.083701 S    
O18   Cr6   2.037841 S    
O16   Cr5   2.049227 S    
C4    C36   1.448611 S    
Cr6   O26   1.981183 S    
O7    Cr1   2.042029 S    
O12   C6    1.303583 A    
O23   C41   1.273478 A    
O19   Cr6   1.928130 S    
C3    C14   1.425021 S    
C22   H3    1.083197 S    
O14   C39   1.267353 A    
C25   C30   1.403104 A    
C37   O16   1.264873 A    
Cr5   O26   1.974392 S    
C23   H4    1.082914 S    
C1    O3    1.268333 A    
Cr4   O26   1.977528 S    
C29   H8    1.083119 S    
O9    Cr2   2.037423 S    
O2    Cr1   1.925653 S    
O10   C5    1.297010 A    
Cr2   O13   1.981373 S    
O6    Cr3   1.931624 S    
O8    C4    1.272890 A    
O22   Cr5   2.040407 S    
C2    O5    1.266300 A    
C16   C17   1.403823 S    
C12   C14   1.200436 T    
O2    C1    1.272696 A    
O20   C42   1.265186 A    
O5    Cr3   2.039586 S    
O15   C37   1.270426 A    
O25   Cr6   1.919551 S    
C33   C34   1.405456 A    
C2    C10   1.422537 S    
O7    C6    1.289446 A    
C22   C23   1.379755 A    
C7    C9    1.198990 T    
O15   Cr4   1.926128 S    
C6    C30   1.456496 S    
O25   C42   1.275560 A    
O3    Cr2   2.044400 S    
C4    O9    1.266725 A    
O17   Cr5   1.923987 S    
C20   C21   1.401579 A    
C27   C28   1.405171 A    
C27   C40   1.456546 S    
