data_mof_unit_1937.cif
_audit_creation_date              2012-12-10T19:15:17-0500
_audit_creation_method            fapswitch 2.2
_symmetry_space_group_name_H-M    P1
_symmetry_Int_Tables_number       1
_space_group_crystal_system       triclinic
_cell_length_a                    10.678784
_cell_length_b                    9.873266
_cell_length_c                    23.251059
_cell_angle_alpha                 87.968504
_cell_angle_beta                  89.759235
_cell_angle_gamma                 91.032795
_cell_volume                      2449.49567414

loop_
_atom_site_label
_atom_site_type_symbol
_atom_type_description
_atom_site_fract_x
_atom_site_fract_y
_atom_site_fract_z
_atom_type_partial_charge
C1    C     C_R   0.258485 0.498781 0.505746 0.916153
C2    C     C_R   0.383700 0.670373 0.966100 -0.152015
C3    C     C_R   0.383451 0.672206 0.025888 -0.156081
C4    C     C_R   0.477706 0.606649 0.057541 -0.014163
C5    C     C_R   0.574704 0.541526 0.028714 -0.020401
C6    C     C_R   0.670002 0.476027 0.060171 -0.014927
C7    C     C_R   0.766471 0.411909 0.030950 -0.155754
C8    C     C_R   0.766621 0.409847 0.971061 -0.151194
C9    C     C_R   0.475996 0.601643 0.117579 0.504202
C10   C     C_R   0.664648 0.474445 0.120281 0.503425
C11   C     C_R   0.529454 0.399926 0.235895 -0.107722
C12   C     C_R   0.503793 0.502374 0.389381 0.843772
C13   C     C_R   0.511385 0.391813 0.295133 -0.234847
C14   C     C_R   0.521171 0.509354 0.327109 -0.044421
C15   C     C_R   0.554104 0.633799 0.299483 -0.237319
C16   C     C_R   0.572689 0.641504 0.240417 -0.107910
C17   C     C_R   0.559053 0.524985 0.208538 0.324561
C18   C     C_R   0.468966 0.420193 0.768243 -0.101135
C19   C     C_R   0.451472 0.414186 0.709256 -0.119627
C20   C     C_R   0.524004 0.497411 0.671883 -0.022914
C21   C     C_R   0.615636 0.585169 0.693574 -0.162598
C22   C     C_R   0.633289 0.590975 0.752534 -0.053675
C23   C     C_R   0.741659 0.500997 0.501428 0.831389
C24   C     C_R   0.558983 0.509516 0.789790 0.290524
C25   C     C_3   0.070050 0.626135 0.541433 -0.182386
C26   C     C_3   0.062039 0.364624 0.538615 -0.193584
C27   C     C_3   0.927444 0.636244 0.530225 -0.445870
C28   C     C_3   0.919882 0.381043 0.543642 -0.421507
C29   C     C_3   0.073977 0.509260 0.446206 -0.473982
C30   C     C_3   0.120547 0.498648 0.509745 0.014544
C31   C     C_3   0.877434 0.502366 0.504686 0.135073
C32   C     C_3   0.931621 0.489916 0.443672 -0.393936
C33   C     C_3   0.381002 0.080557 0.474804 0.407931
C34   C     C_3   0.386751 0.919167 0.468896 0.392034
C35   C     C_3   0.601888 0.085533 0.461538 -0.279155
C36   C     C_3   0.609950 0.924180 0.466935 -0.280755
C37   C     C_3   0.526629 0.072534 0.557139 -0.267983
C38   C     C_3   0.507024 0.913282 0.558274 -0.300117
C39   C     C_R   0.503492 0.498328 0.610348 0.956829
C40   C     C_R   0.664944 0.465772 0.879495 0.516068
C41   C     C_R   0.476948 0.594079 0.877290 0.514559
C42   C     C_R   0.478097 0.602772 0.937031 -0.019704
C43   C     C_R   0.574878 0.539514 0.968321 -0.020211
C44   C     C_R   0.670349 0.471942 0.939421 -0.019771
H1    H     H_    0.308796 0.720226 0.942850 0.196114
H2    H     H_    0.379082 0.348390 0.693149 0.193867
H3    H     H_    0.672498 0.649867 0.664855 0.155555
H4    H     H_    0.702188 0.660760 0.769370 0.155461
H5    H     H_    0.114019 0.720117 0.522019 0.139321
H6    H     H_    0.076978 0.280294 0.509549 0.113003
H7    H     H_    0.872988 0.660301 0.569288 0.202502
H8    H     H_    0.890483 0.399080 0.588768 0.203555
H9    H     H_    0.911297 0.722041 0.498847 0.170114
H10   H     H_    0.874687 0.283716 0.531447 0.188753
H11   H     H_    0.099005 0.610608 0.426857 0.167176
H12   H     H_    0.118456 0.433821 0.419014 0.176060
H13   H     H_    0.891634 0.567581 0.413433 0.167474
H14   H     H_    0.907913 0.388278 0.426998 0.176442
H15   H     H_    0.308370 0.723477 0.047183 0.194033
H16   H     H_    0.303625 0.102746 0.505163 0.081288
H17   H     H_    0.302020 0.873911 0.489743 0.072594
H18   H     H_    0.588309 0.117729 0.415706 0.215095
H19   H     H_    0.618003 0.881741 0.423455 0.202332
H20   H     H_    0.628448 0.090108 0.565998 0.149590
H21   H     H_    0.592816 0.869800 0.578383 0.158313
H22   H     H_    0.693788 0.131060 0.473364 0.148349
H23   H     H_    0.698291 0.896134 0.489241 0.146482
H24   H     H_    0.841037 0.361563 0.054240 0.193498
H25   H     H_    0.841266 0.357938 0.949740 0.195242
H26   H     H_    0.518620 0.309739 0.211070 0.145281
H27   H     H_    0.489037 0.294238 0.315712 0.193330
H28   H     H_    0.565765 0.725267 0.323426 0.178631
H29   H     H_    0.596031 0.738147 0.219203 0.145670
H30   H     H_    0.410693 0.358259 0.797355 0.148683
N1    N     N_R   0.568206 0.524517 0.850200 -0.360273
N2    N     N_R   0.567815 0.535121 0.147416 -0.358521
N3    N     N_3   0.499750 0.138610 0.498760 -0.114291
N4    N     N_3   0.499750 0.861390 0.498760 -0.127299
O1    O     O_R   0.314910 0.616040 0.499990 -0.642290
O2    O     O_R   0.314910 0.383960 0.499990 -0.607003
O3    O     O_R   0.500080 0.616070 0.416130 -0.612474
O4    O     O_R   0.500080 0.383930 0.416130 -0.573793
O5    O     O_R   0.685320 0.616040 0.499970 -0.644860
O6    O     O_R   0.685320 0.383960 0.499970 -0.645600
O7    O     O_R   0.500150 0.616010 0.583820 -0.603454
O8    O     O_R   0.500150 0.383990 0.583820 -0.601117
O9    O     O_2   0.753983 0.399949 0.850734 -0.534318
O10   O     O_2   0.384991 0.653491 0.846337 -0.534095
O11   O     O_2   0.382109 0.660364 0.146085 -0.560604
O12   O     O_2   0.754730 0.412445 0.151468 -0.559000
Zn1   Zn    Zn3+2 0.500150 0.654960 0.499970 0.952409
Zn2   Zn    Zn3+2 0.500150 0.345040 0.499970 0.987115
C45   C     C_2   0.101550 0.625678 0.605292 0.950666
O13   O     O_2   0.019433 0.619392 0.642213 -0.630524
O14   O     O_R   0.226735 0.630210 0.622118 -0.758435
H31   H     H_    0.236784 0.626653 0.665499 0.372638
C46   C     C_2   0.111710 0.314643 0.596141 0.978788
O15   O     O_2   0.202092 0.368751 0.618124 -0.635412
O16   O     O_R   0.052461 0.203017 0.624120 -0.787888
H32   H     H_    0.088087 0.181767 0.663677 0.347863
O17   O     O_3   0.361283 0.144326 0.419725 -0.559957
C47   C     C_3   0.233293 0.161811 0.407555 0.118277
H33   H     H_    0.189921 0.224748 0.439678 0.129302
H34   H     H_    0.181509 0.064089 0.407316 0.122051
C48   C     C_3   0.220177 0.234000 0.349038 -0.823041
H35   H     H_    0.268589 0.177460 0.315360 0.258812
H36   H     H_    0.119543 0.242209 0.337853 0.209145
H37   H     H_    0.262180 0.337537 0.350154 0.244621
O18   O     O_3   0.389777 0.887930 0.409239 -0.580359
C49   C     C_3   0.282290 0.814077 0.391359 0.123703
H38   H     H_    0.194227 0.843348 0.412929 0.074176
H39   H     H_    0.294987 0.704681 0.400041 0.181244
C50   C     C_3   0.264948 0.835148 0.326786 -0.797198
H40   H     H_    0.351586 0.809566 0.303461 0.269848
H41   H     H_    0.186997 0.769062 0.312125 0.211604
H42   H     H_    0.241922 0.941966 0.316182 0.252839
C51   C     C_2   0.464465 0.131732 0.608496 0.993904
O19   O     O_2   0.526789 0.153221 0.651424 -0.626612
O20   O     O_R   0.335536 0.146764 0.610141 -0.775292
H43   H     H_    0.304281 0.154618 0.651040 0.341267
C52   C     C_2   0.399337 0.865681 0.598317 1.031297
O21   O     O_2   0.424222 0.816603 0.645877 -0.595798
O22   O     O_R   0.274996 0.896839 0.585646 -0.837641
H44   H     H_    0.216969 0.884145 0.620089 0.366378

loop_
_geom_bond_atom_site_label_1
_geom_bond_atom_site_label_2
_ccdc_geom_bond_type
C22   H4    S    
N3    Zn2   S    
C25   C45   S    
O17   C47   S    
C51   O19   D    
C11   C13   A    
C41   C42   A    
O14   H31   S    
C32   H14   S    
C46   O15   D    
O7    Zn1   S    
C19   H2    S    
C7    C8    A    
C15   H28   S    
C48   H36   S    
C8    H25   S    
C45   O13   D    
C23   O5    A    
C33   O17   S    
C40   O9    S    
C37   C38   S    
C29   C32   S    
C51   O20   S    
C5    C6    A    
C15   C16   A    
O4    Zn2   S    
C47   C48   S    
C18   C19   A    
C49   H38   S    
C7    H24   S    
C10   N2    A    
O16   H32   S    
C16   C17   A    
C17   N2    S    
C9    N2    A    
C36   H19   S    
O1    Zn1   S    
C50   H42   S    
C5    C43   A    
C45   O14   S    
C13   C14   A    
C13   H27   S    
C32   H13   S    
C46   O16   S    
C27   H7    S    
C49   H39   S    
C2    H1    S    
C48   H37   S    
C36   H23   S    
C23   O6    A    
C27   C31   S    
C16   H29   S    
O22   H44   S    
C9    O11   S    
C20   C39   S    
C28   H10   S    
C29   H11   S    
C35   H22   S    
C37   N3    S    
C35   N3    S    
C34   H17   S    
C35   C36   S    
C23   C31   S    
O2    Zn2   S    
C43   C44   A    
C29   C30   S    
C41   N1    A    
C31   C32   S    
C38   H21   S    
C33   C34   S    
C12   O4    A    
C47   H34   S    
C49   C50   S    
C52   O21   D    
C12   C14   S    
C26   C30   S    
C33   H16   S    
C1    O1    A    
C18   C24   A    
C42   C43   A    
C39   O7    A    
C3    C4    A    
C37   H20   S    
C50   H40   S    
C25   C30   S    
C1    O2    A    
C41   O10   S    
C11   C17   A    
C28   C31   S    
C8    C44   A    
C4    C5    A    
C6    C10   A    
O20   H43   S    
C27   H9    S    
C24   N1    S    
C6    C7    A    
C29   H12   S    
N4    Zn1   S    
C25   C27   S    
C38   N4    S    
O5    Zn1   S    
C48   H35   S    
C26   C28   S    
C40   N1    A    
C19   C20   A    
C26   H6    S    
C2    C3    A    
O8    Zn2   S    
O18   C49   S    
C34   N4    S    
C28   H8    S    
C33   N3    S    
C2    C42   A    
C1    C30   S    
C12   O3    A    
C35   H18   S    
C22   C24   A    
C47   H33   S    
C25   H5    S    
C52   O22   S    
C38   C52   S    
C26   C46   S    
C11   H26   S    
O3    Zn1   S    
C40   C44   A    
C37   C51   S    
C20   C21   A    
C10   O12   S    
C18   H30   S    
C34   O18   S    
C14   C15   A    
C36   N4    S    
O6    Zn2   S    
C39   O8    A    
C21   H3    S    
C4    C9    A    
C21   C22   A    
C50   H41   S    
C3    H15   S    
