data_mof_unit_3959.cif
_audit_creation_date              2012-12-10T17:31:27-0500
_audit_creation_method            fapswitch 2.2
_symmetry_space_group_name_H-M    P1
_symmetry_Int_Tables_number       1
_space_group_crystal_system       triclinic
_cell_length_a                    18.892283
_cell_length_b                    18.825628
_cell_length_c                    12.462758
_cell_angle_alpha                 90.409747
_cell_angle_beta                  130.271444
_cell_angle_gamma                 89.5636
_cell_volume                      3381.83809032

loop_
_atom_site_label
_atom_site_type_symbol
_atom_type_description
_atom_site_fract_x
_atom_site_fract_y
_atom_site_fract_z
_atom_type_partial_charge
C1    C     C_R   0.614768 0.899759 0.655879 0.971252
C2    C     C_R   0.613503 0.100887 0.653983 0.956491
C3    C     C_R   0.114768 0.399759 0.655879 0.971255
C4    C     C_R   0.113500 0.600890 0.653977 0.956388
C5    C     C_R   0.255738 0.760923 0.057674 -0.141347
C6    C     C_R   0.256665 0.242830 0.064649 -0.101380
C7    C     C_R   0.755742 0.260931 0.057663 -0.141388
C8    C     C_R   0.756663 0.742830 0.064650 -0.101354
C9    C     C_R   0.671907 0.259576 0.034651 -0.360733
C10   C     C_R   0.672321 0.743867 0.039920 -0.305156
C11   C     C_R   0.171903 0.759569 0.034664 -0.360754
C12   C     C_R   0.172323 0.243867 0.039920 -0.305116
C13   C     C_R   0.590990 0.234968 0.905715 0.615527
C14   C     C_R   0.591740 0.768867 0.910921 0.634213
C15   C     C_R   0.090985 0.734956 0.905732 0.615491
C16   C     C_R   0.091742 0.268866 0.910922 0.634084
C17   C     C_R   0.594110 0.210478 0.803435 0.580186
C18   C     C_R   0.595879 0.793732 0.810305 0.565374
C19   C     C_R   0.094102 0.710470 0.803448 0.580220
C20   C     C_R   0.095880 0.293731 0.810304 0.565356
C21   C     C_R   0.326212 0.806919 0.161619 0.622106
C22   C     C_R   0.326602 0.195415 0.165939 0.659717
C23   C     C_R   0.826215 0.306927 0.161608 0.622108
C24   C     C_R   0.826601 0.695416 0.165941 0.659705
C25   C     C_R   0.244720 0.826848 0.249924 0.274561
C26   C     C_R   0.243980 0.174510 0.251603 0.270311
C27   C     C_R   0.744737 0.326832 0.249940 0.274554
C28   C     C_R   0.743974 0.674504 0.251597 0.270304
C29   C     C_R   0.686556 0.153280 0.750086 -0.255319
C30   C     C_R   0.689560 0.849210 0.758069 -0.211105
C31   C     C_R   0.186543 0.653295 0.750066 -0.255599
C32   C     C_R   0.189561 0.349211 0.758069 -0.211120
C33   C     C_R   0.680489 0.961467 0.289392 0.499368
C34   C     C_R   0.180494 0.461480 0.289396 0.499417
C35   C     C_R   0.340329 0.004169 0.620592 0.481964
C36   C     C_R   0.840329 0.504169 0.620593 0.482002
C37   C     C_R   0.304214 0.000741 0.690912 0.288788
C38   C     C_R   0.804215 0.500745 0.690912 0.288812
C39   C     C_R   0.385805 0.100780 0.345152 0.919676
C40   C     C_R   0.386039 0.899457 0.344828 0.913227
C41   C     C_R   0.885804 0.600779 0.345151 0.919670
C42   C     C_R   0.886042 0.399455 0.344832 0.913222
C43   C     C_R   0.362150 0.987337 0.834612 0.496376
C44   C     C_R   0.862150 0.487338 0.834611 0.496349
C45   C     C_R   0.459353 0.989588 0.918062 -0.182613
C46   C     C_R   0.959353 0.489587 0.918062 -0.182600
C47   C     C_R   0.495290 0.991752 0.845252 -0.027288
C48   C     C_R   0.995290 0.491752 0.845252 -0.027278
C49   C     C_R   0.522776 0.986281 0.070880 -0.216293
C50   C     C_R   0.022777 0.486282 0.070881 -0.216269
C51   C     C_R   0.614824 0.963830 0.141686 -0.312271
C52   C     C_R   0.114827 0.463838 0.141689 -0.312300
C53   C     C_R   0.642606 0.949897 0.064668 0.568356
C54   C     C_R   0.142611 0.449905 0.064673 0.568390
C55   C     C_R   0.593684 0.980556 0.931545 0.421027
C56   C     C_R   0.093686 0.480560 0.931546 0.421017
C57   C     C_R   0.500939 0.005258 0.158079 0.806565
C58   C     C_R   0.000939 0.505255 0.158079 0.806574
C59   C     C_R   0.654952 0.981759 0.367174 0.577112
C60   C     C_R   0.154956 0.481770 0.367177 0.577102
C61   C     C_R   0.669619 0.287679 0.136986 0.661350
C62   C     C_R   0.669234 0.714696 0.140073 0.681200
C63   C     C_R   0.169611 0.787681 0.136989 0.661404
C64   C     C_R   0.169238 0.214699 0.140077 0.681181
C65   C     C_R   0.319069 0.842680 0.253668 -0.346678
C66   C     C_R   0.318792 0.158428 0.255629 -0.360419
C67   C     C_R   0.819077 0.342676 0.253672 -0.346647
C68   C     C_R   0.818789 0.658427 0.255626 -0.360417
C69   C     C_R   0.772758 0.146193 0.781108 0.208986
C70   C     C_R   0.776410 0.855092 0.791683 0.218529
C71   C     C_R   0.272741 0.646232 0.781066 0.209076
C72   C     C_R   0.276410 0.355095 0.791683 0.218492
C73   C     C_R   0.353377 0.668123 0.911435 0.548336
C74   C     C_R   0.356903 0.337172 0.927083 0.526195
C75   C     C_R   0.853393 0.168104 0.911462 0.548013
C76   C     C_R   0.856902 0.837172 0.927085 0.526208
C77   C     C_R   0.349326 0.701583 0.006905 0.588224
C78   C     C_R   0.351321 0.304421 0.020752 0.666765
C79   C     C_R   0.849337 0.201587 0.006909 0.588410
C80   C     C_R   0.851319 0.804423 0.020755 0.666771
C81   C     C_R   0.762758 0.221556 0.967333 -0.206923
C82   C     C_R   0.764478 0.783557 0.977421 -0.121209
C83   C     C_R   0.262750 0.721549 0.967339 -0.206914
C84   C     C_R   0.264480 0.283556 0.977419 -0.121218
C85   C     C_R   0.680202 0.196389 0.837396 -0.273902
C86   C     C_R   0.682468 0.808438 0.846531 -0.237054
C87   C     C_R   0.180192 0.696387 0.837398 -0.273822
C88   C     C_R   0.182469 0.308437 0.846530 -0.237028
Cu1   Cu    Cu3+1 0.526340 0.000000 0.421010 1.152890
Cu2   Cu    Cu3+1 0.026340 0.500000 0.421010 1.152822
Cu3   Cu    Cu3+1 0.473640 0.000000 0.578990 1.109703
Cu4   Cu    Cu3+1 0.973640 0.500000 0.578990 1.109723
N1    N     N_R   0.566260 0.000000 0.302220 -0.337128
N2    N     N_R   0.066260 0.500000 0.302220 -0.337171
N3    N     N_R   0.434410 0.000000 0.697680 -0.217608
N4    N     N_R   0.934410 0.500000 0.697680 -0.217608
O1    O     O_R   0.608610 0.924520 0.551740 -0.521501
O2    O     O_R   0.608610 0.075480 0.551740 -0.534772
O3    O     O_R   0.108610 0.424520 0.551740 -0.521519
O4    O     O_R   0.108610 0.575480 0.551740 -0.534911
O5    O     O_R   0.564110 0.924510 0.685150 -0.523958
O6    O     O_R   0.564110 0.075490 0.685150 -0.518318
O7    O     O_R   0.064110 0.424510 0.685150 -0.523934
O8    O     O_R   0.064110 0.575490 0.685150 -0.518263
O9    O     O_R   0.435880 0.075470 0.314850 -0.491272
O10   O     O_R   0.435880 0.924530 0.314850 -0.528810
O11   O     O_R   0.935880 0.575470 0.314850 -0.491280
O12   O     O_R   0.935880 0.424530 0.314850 -0.528792
O13   O     O_R   0.391380 0.075460 0.448260 -0.499629
O14   O     O_R   0.391380 0.924540 0.448260 -0.509916
O15   O     O_R   0.891380 0.575460 0.448260 -0.499629
O16   O     O_R   0.891380 0.424540 0.448260 -0.509891
O17   O     O_3   0.239060 0.857600 0.344939 -0.532367
C89   C     C_3   0.262858 0.806107 0.445023 -0.185114
H1    H     H_    0.266395 0.832116 0.528544 0.163770
H2    H     H_    0.332184 0.782154 0.496403 0.199629
H3    H     H_    0.209098 0.764107 0.396191 0.181890
O18   O     O_3   0.237087 0.143028 0.344052 -0.519129
C90   C     C_3   0.261257 0.193451 0.446904 -0.119978
H4    H     H_    0.331593 0.215647 0.501501 0.192505
H5    H     H_    0.262722 0.166680 0.527335 0.185142
H6    H     H_    0.209046 0.237008 0.400671 0.182545
O19   O     O_3   0.739099 0.357556 0.345000 -0.532404
C91   C     C_3   0.762861 0.306030 0.445013 -0.185152
H7    H     H_    0.766389 0.332008 0.528548 0.163810
H8    H     H_    0.832182 0.282068 0.496386 0.199551
H9    H     H_    0.709086 0.264040 0.396112 0.182011
O20   O     O_3   0.737076 0.643016 0.344034 -0.519092
C92   C     C_3   0.761243 0.693433 0.446893 -0.119884
H10   H     H_    0.831581 0.715626 0.501504 0.192473
H11   H     H_    0.762698 0.666667 0.527311 0.185144
H12   H     H_    0.709035 0.736993 0.400663 0.182527
F1    F     F_    0.723877 0.915225 0.124693 -0.619686
F2    F     F_    0.223882 0.415233 0.124701 -0.619689
F3    F     F_    0.770561 0.943751 0.359095 -0.571247
F4    F     F_    0.270569 0.443774 0.359100 -0.571196
F5    F     F_    0.417984 0.034398 0.102259 -0.550229
F6    F     F_    0.917981 0.534391 0.102260 -0.550224
O21   O     O_3   0.286003 0.010452 0.475048 -0.539489
C93   C     C_3   0.189998 0.999191 0.393708 0.067050
H13   H     H_    0.156568 0.045829 0.400245 0.212950
H14   H     H_    0.175103 0.948841 0.421678 0.189107
H15   H     H_    0.158510 0.994339 0.281924 0.200514
O22   O     O_3   0.786002 0.510456 0.475050 -0.539494
C94   C     C_3   0.690006 0.499150 0.393710 0.067029
H16   H     H_    0.656538 0.545778 0.400193 0.212979
H17   H     H_    0.675146 0.448800 0.421729 0.189074
H18   H     H_    0.658528 0.494274 0.281934 0.200497
O23   O     O_3   0.321083 0.965743 0.888737 -0.465856
C95   C     C_3   0.306269 0.891773 0.868187 -0.118076
H19   H     H_    0.373342 0.862320 0.931224 0.190454
H20   H     H_    0.262538 0.876734 0.755166 0.134283
H21   H     H_    0.268172 0.875322 0.903699 0.203698
O24   O     O_3   0.821081 0.465743 0.888733 -0.465844
C96   C     C_3   0.806250 0.391776 0.868157 -0.118042
H22   H     H_    0.873316 0.362315 0.931177 0.190437
H23   H     H_    0.762511 0.376747 0.755130 0.134303
H24   H     H_    0.768154 0.375326 0.903671 0.203705
F7    F     F_    0.212391 0.007329 0.623287 -0.639930
F8    F     F_    0.712392 0.507343 0.623284 -0.639900
O25   O     O_3   0.643402 0.997840 0.889571 -0.553422
C97   C     C_3   0.720494 0.041397 0.990548 -0.211685
H25   H     H_    0.776208 0.012850 0.088275 0.240360
H26   H     H_    0.698847 0.089467 0.015464 0.133133
H27   H     H_    0.753698 0.057784 0.947528 0.158401
O26   O     O_3   0.143401 0.497840 0.889564 -0.553439
C98   C     C_3   0.220505 0.541387 0.990542 -0.211635
H28   H     H_    0.276227 0.512825 0.088236 0.240387
H29   H     H_    0.198879 0.589448 0.015512 0.133141
H30   H     H_    0.253686 0.557789 0.947496 0.158354
F9    F     F_    0.507401 0.239635 0.873627 -0.605433
F10   F     F_    0.507423 0.762893 0.875979 -0.600728
F11   F     F_    0.007398 0.739620 0.873649 -0.605433
F12   F     F_    0.007425 0.262892 0.875981 -0.600942
F13   F     F_    0.593967 0.279148 0.126215 -0.519052
F14   F     F_    0.593113 0.723158 0.128456 -0.519297
F15   F     F_    0.093961 0.779152 0.126222 -0.519049
F16   F     F_    0.093117 0.223161 0.128462 -0.519298
F17   F     F_    0.395649 0.824362 0.161191 -0.604107
F18   F     F_    0.396067 0.178279 0.164708 -0.551544
F19   F     F_    0.895644 0.324378 0.161168 -0.604102
F20   F     F_    0.896068 0.678282 0.164713 -0.551579
O27   O     O_3   0.781729 0.105191 0.698151 -0.453200
C99   C     C_3   0.776922 0.150795 0.604548 -0.083730
H31   H     H_    0.833828 0.190604 0.661985 0.176784
H32   H     H_    0.708140 0.177698 0.533305 0.123760
H33   H     H_    0.785166 0.118740 0.538218 0.202406
O28   O     O_3   0.783052 0.889192 0.700607 -0.484791
C100  C     C_3   0.827758 0.844750 0.668290 0.057860
H34   H     H_    0.817013 0.786976 0.672231 0.091792
H35   H     H_    0.903019 0.856770 0.739575 0.240848
H36   H     H_    0.799079 0.856297 0.559635 0.184618
O29   O     O_3   0.281719 0.605293 0.698052 -0.453129
C101  C     C_3   0.276578 0.650909 0.604188 -0.083624
H37   H     H_    0.333239 0.690896 0.661337 0.175991
H38   H     H_    0.207673 0.677584 0.532957 0.124215
H39   H     H_    0.284909 0.618924 0.537902 0.202280
O30   O     O_3   0.283053 0.389202 0.700611 -0.484820
C102  C     C_3   0.327763 0.344767 0.668293 0.057917
H40   H     H_    0.317028 0.286992 0.672239 0.091791
H41   H     H_    0.403022 0.356795 0.739574 0.240857
H42   H     H_    0.299080 0.356315 0.559635 0.184600
F21   F     F_    0.429652 0.705535 0.142185 -0.533569
F22   F     F_    0.430307 0.300253 0.157225 -0.534878
F23   F     F_    0.929662 0.205553 0.142187 -0.533577
F24   F     F_    0.930305 0.800257 0.157230 -0.534898
F25   F     F_    0.436829 0.649503 0.951182 -0.508159
F26   F     F_    0.440939 0.357802 0.972374 -0.539223
F27   F     F_    0.936848 0.149468 0.951233 -0.508359
F28   F     F_    0.940938 0.857802 0.972376 -0.539215
F29   F     F_    0.512407 0.201079 0.671051 -0.666092
F30   F     F_    0.514681 0.801204 0.676665 -0.668195
F31   F     F_    0.012398 0.701072 0.671064 -0.666094
F32   F     F_    0.014682 0.301204 0.676665 -0.668229
F33   F     F_    0.719365 0.984250 0.508770 -0.556582
F34   F     F_    0.219370 0.484273 0.508773 -0.556519

loop_
_geom_bond_atom_site_label_1
_geom_bond_atom_site_label_2
_ccdc_geom_bond_type
C83   C87   A    
C3    O7    A    
C96   H23   S    
C14   C18   A    
C53   C55   A    
C80   F24   S    
C61   F13   S    
C93   H15   S    
O20   C92   S    
C47   N3    A    
C94   H16   S    
O19   C91   S    
C32   C72   A    
C74   F26   S    
C15   C19   A    
C18   C86   A    
C75   C79   A    
C2    C29   S    
C8    C82   A    
Cu3   O14   S    
C47   C55   A    
C60   N2    A    
C28   C68   A    
C78   F22   S    
Cu2   O11   S    
C23   F19   S    
C19   C87   A    
C6    C12   A    
C12   C64   A    
C59   F33   S    
C71   O29   S    
C101  H39   S    
C2    O6    A    
C76   F28   S    
C54   F2    S    
C20   C88   A    
C71   C73   A    
Cu4   N4    S    
C49   C57   A    
C99   H31   S    
C7    C9    A    
C25   C63   A    
C23   C67   A    
C100  H35   S    
C9    C13   A    
O18   C90   S    
C22   C66   A    
C42   O16   A    
C27   C61   A    
Cu4   O7    S    
C35   O21   S    
O17   C89   S    
C11   C15   A    
C12   C16   A    
C44   C46   A    
C49   C51   A    
C95   H21   S    
Cu1   O10   S    
C102  H42   S    
C50   C52   A    
O30   C102  S    
C45   C49   A    
C30   C86   A    
C41   O11   A    
C29   C85   A    
C43   O23   S    
C70   O28   S    
C4    C31   S    
C92   H12   S    
C21   C65   A    
C58   F6    S    
C14   F10   S    
C31   C71   A    
C101  H37   S    
C73   F25   S    
C102  H40   S    
C33   C59   A    
C57   N1    A    
C96   H24   S    
C34   C60   A    
C10   C62   A    
Cu3   O5    S    
C77   F21   S    
Cu2   O4    S    
C30   C70   A    
C52   C54   A    
Cu2   N2    S    
C41   C68   S    
C29   C69   A    
C45   C47   A    
C46   C48   A    
C6    C84   A    
C15   F11   S    
C57   F5    S    
C24   F20   S    
C26   C66   A    
C76   C80   A    
C31   C87   A    
C93   H13   S    
C55   O25   S    
C98   H29   S    
C10   C14   A    
C1    O1    A    
C98   H28   S    
C79   C81   A    
C27   O19   S    
Cu4   O16   S    
C40   O14   A    
C41   O15   A    
C79   F23   S    
C24   C68   A    
C72   O30   S    
C78   C84   A    
C33   C51   A    
Cu1   O1    S    
O28   C100  S    
C19   F31   S    
C20   F32   S    
C37   C43   A    
C100  H36   S    
C18   F30   S    
O27   C99   S    
C5    C83   A    
C38   C44   A    
C9    C61   A    
C25   O17   S    
C97   H27   S    
C64   F16   S    
C33   F3    S    
Cu2   Cu4   S    
C34   F4    S    
C22   F18   S    
C16   C20   A    
C62   F14   S    
C101  H38   S    
C50   C58   A    
C53   F1    S    
C13   F9    S    
Cu4   O15   S    
C40   O10   A    
C90   H4    S    
C43   C45   A    
O24   C96   S    
C90   H5    S    
C69   O27   S    
C91   H9    S    
C98   H30   S    
C72   C74   A    
C7    C81   A    
C35   N3    A    
C40   C65   S    
C4    O4    A    
C5    C11   A    
C70   C76   A    
C42   C67   S    
C39   C66   S    
C17   C85   A    
C32   C88   A    
Cu1   Cu3   S    
Cu3   O6    S    
Cu1   O9    S    
C1    O5    A    
Cu2   O3    S    
C94   H18   S    
C91   H8    S    
C92   H10   S    
C58   N2    A    
C90   H6    S    
C16   F12   S    
C100  H34   S    
C48   C56   A    
C75   F27   S    
C73   C77   A    
C48   N4    A    
C35   C37   A    
C84   C88   A    
C93   H14   S    
O22   C94   S    
C17   F29   S    
C39   O9    A    
C89   H2    S    
O21   C93   S    
C54   C56   A    
C89   H1    S    
C26   C64   A    
C97   H25   S    
C26   O18   S    
C46   C50   A    
C34   C52   A    
C63   F15   S    
C99   H33   S    
C13   C17   A    
Cu1   O2    S    
C44   O24   S    
Cu3   O13   S    
C36   C38   A    
C60   F34   S    
Cu2   O12   S    
C97   H26   S    
C82   C86   A    
O23   C95   S    
C37   F7    S    
O26   C98   S    
O25   C97   S    
C7    C23   A    
C94   H17   S    
C4    O8    A    
C92   H11   S    
C1    C30   S    
C8    C24   A    
C80   C82   A    
C99   H32   S    
C69   C75   A    
C21   F17   S    
C95   H20   S    
Cu1   N1    S    
C3    C32   S    
C89   H3    S    
C27   C67   A    
Cu4   O8    S    
Cu3   N3    S    
C3    O3    A    
C39   O13   A    
C5    C21   A    
C2    O2    A    
C8    C10   A    
O29   C101  S    
C74   C78   A    
C56   O26   S    
C96   H22   S    
C102  H41   S    
C25   C65   A    
C77   C83   A    
C95   H19   S    
C91   H7    S    
C59   N1    A    
C51   C53   A    
C36   O22   S    
C11   C63   A    
C42   O12   A    
C81   C85   A    
C28   O20   S    
C28   C62   A    
C36   N4    A    
C38   F8    S    
C6    C22   A    
