data_mof_unit_3585.cif
_audit_creation_date              2012-12-10T16:48:43-0500
_audit_creation_method            fapswitch 2.2
_symmetry_space_group_name_H-M    P1
_symmetry_Int_Tables_number       1
_space_group_crystal_system       triclinic
_cell_length_a                    7.808239
_cell_length_b                    8.630301
_cell_length_c                    10.850825
_cell_angle_alpha                 89.270093
_cell_angle_beta                  98.65781
_cell_angle_gamma                 93.405974
_cell_volume                      721.595126582

loop_
_atom_site_label
_atom_site_type_symbol
_atom_type_description
_atom_site_fract_x
_atom_site_fract_y
_atom_site_fract_z
_atom_type_partial_charge
C1    C     C_R   0.544150 0.794161 0.497018 0.854753
C2    C     C_2   0.431399 0.043402 0.501593 0.276835
C3    C     C_3   0.893957 0.308003 0.299523 -0.000254
C4    C     C_3   0.106043 0.691997 0.700476 -0.000251
C5    C     C_R   0.455850 0.205839 0.502982 0.854753
C6    C     C_R   0.571673 0.490981 0.735088 0.924722
C7    C     C_R   0.428327 0.509019 0.264912 0.924722
C8    C     C_2   0.614671 0.497535 0.868331 -0.409446
C9    C     C_2   0.385329 0.502465 0.131669 -0.409446
C10   C     C_2   0.487239 0.473699 0.936527 0.492953
C11   C     C_2   0.512761 0.526301 0.063472 0.492952
C12   C     C_2   0.568601 0.956598 0.498407 0.276834
F1    F     F_    0.668795 0.597393 0.112167 -0.679560
F2    F     F_    0.331205 0.402609 0.887833 -0.679561
F3    F     F_    0.734536 0.016452 0.499209 -0.603980
F4    F     F_    0.265464 0.983548 0.500791 -0.603979
H1    H     H_    0.255551 0.459580 0.091271 0.171670
H2    H     H_    0.744449 0.540419 0.908729 0.171670
H3    H     H_    0.878733 0.414593 0.241274 0.167658
H4    H     H_    0.766979 0.253356 0.314589 0.185156
H5    H     H_    0.956404 0.223832 0.246731 0.143967
H6    H     H_    0.233021 0.746642 0.685412 0.185155
H7    H     H_    0.121265 0.585407 0.758726 0.167657
H8    H     H_    0.043596 0.776170 0.753268 0.143967
N1    N     N_2   0.940600 0.458860 0.467170 0.196907
N2    N     N_2   0.059400 0.541140 0.532830 0.196907
O1    O     O_R   0.391630 0.738350 0.508060 -0.608065
O2    O     O_3   0.998018 0.661284 0.587141 -0.490376
O3    O     O_R   0.608370 0.261650 0.491940 -0.608065
O4    O     O_R   0.674540 0.711990 0.487010 -0.521578
O5    O     O_R   0.325460 0.288010 0.512990 -0.521578
O6    O     O_R   0.411370 0.508250 0.688780 -0.602121
O7    O     O_R   0.588630 0.491750 0.311220 -0.602121
O8    O     O_R   0.694270 0.481880 0.667740 -0.606724
O9    O     O_R   0.305730 0.518120 0.332260 -0.606723
O10   O     O_3   0.001983 0.338716 0.412858 -0.490376
Zn1   Zn    Zn3+2 0.311100 0.517600 0.514050 1.107484
Zn2   Zn    Zn3+2 0.688900 0.482400 0.485950 1.107483

loop_
_geom_bond_atom_site_label_1
_geom_bond_atom_site_label_2
_ccdc_geom_bond_type
O3    Zn2   S    
C6    O6    A    
N2    Zn1   S    
C3    H3    S    
N1    Zn2   S    
C11   F1    S    
N2    O2    S    
O7    Zn2   S    
C12   F3    S    
C2    C12   D    
C4    H6    S    
C3    H4    S    
O6    Zn1   S    
C9    C11   D    
C1    C12   S    
C3    O10   S    
O1    Zn1   S    
C9    H1    S    
C1    O4    A    
C4    O2    S    
C5    O3    A    
C4    H8    S    
C3    H5    S    
C2    C5    S    
C10   C11   S    
C7    O7    A    
N1    O10   S    
O5    Zn1   S    
C2    F4    S    
O4    Zn2   S    
C7    C9    S    
C10   F2    S    
C1    O1    A    
C4    H7    S    
C6    C8    S    
O9    Zn1   S    
N1    N2    D    
O8    Zn2   S    
C7    O9    A    
C8    C10   D    
C8    H2    S    
C6    O8    A    
C5    O5    A    
