data_mof_unit_1964.cif
_audit_creation_date              2012-10-26T21:11:04-0400
_audit_creation_method            fapswitch 2.2
_symmetry_space_group_name_H-M    P1
_symmetry_Int_Tables_number       1
_space_group_crystal_system       triclinic
_cell_length_a                    10.980345
_cell_length_b                    10.841833
_cell_length_c                    13.085141
_cell_angle_alpha                 89.16096
_cell_angle_beta                  90.83435
_cell_angle_gamma                 90.904478
_cell_volume                      1557.22656139

loop_
_atom_site_label
_atom_site_type_symbol
_atom_type_description
_atom_site_fract_x
_atom_site_fract_y
_atom_site_fract_z
_atom_type_partial_charge
C1    C     C_R   0.505405 0.259688 0.500750 0.559174
C2    C     C_R   0.380714 0.866797 0.752461 -0.086227
C3    C     C_R   0.650401 0.127716 0.353304 0.044051
C4    C     C_R   0.348176 0.871908 0.648434 0.048629
C5    C     C_R   0.768189 0.163582 0.385116 -0.088936
C6    C     C_R   0.240385 0.812820 0.614814 -0.071667
C7    C     C_R   0.844101 0.230232 0.318699 -0.109044
C8    C     C_R   0.165563 0.750586 0.684817 -0.109352
C9    C     C_R   0.802904 0.261189 0.220175 -0.112033
C10   C     C_R   0.198067 0.746639 0.788531 -0.118467
C11   C     C_R   0.558655 0.936181 0.424535 -0.172046
C12   C     C_R   0.492630 0.740200 0.499273 0.556641
C13   C     C_R   0.437430 0.064074 0.575689 -0.170397
C14   C     C_R   0.490890 0.872799 0.498540 -0.009755
C15   C     C_R   0.505575 0.127219 0.501530 -0.007140
C16   C     C_R   0.259783 0.491669 0.498892 0.554044
C17   C     C_R   0.740877 0.505009 0.500089 0.558030
C18   C     C_R   0.428305 0.936364 0.574210 -0.035361
C19   C     C_R   0.568098 0.063557 0.425985 -0.035775
C20   C     C_1   0.500429 0.500167 0.173499 0.101781
C21   C     C_1   0.499952 0.500700 0.826497 0.111022
C22   C     C_1   0.500443 0.500646 0.050692 -0.087391
C23   C     C_R   0.873854 0.501568 0.498664 -0.015334
C24   C     C_1   0.500136 0.501019 0.949314 -0.090711
C25   C     C_R   0.199434 0.725920 0.192748 0.035920
C26   C     C_R   0.765904 0.256843 0.782235 0.042689
C27   C     C_R   0.157155 0.691762 0.290165 -0.067668
C28   C     C_R   0.822254 0.293432 0.690517 -0.074688
C29   C     C_R   0.129934 0.567596 0.313340 0.049177
C30   C     C_R   0.873548 0.412150 0.678923 0.051310
C31   C     C_R   0.149923 0.477057 0.240080 -0.087810
C32   C     C_R   0.864171 0.496897 0.758140 -0.091899
C33   C     C_R   0.194402 0.510489 0.144043 -0.132951
C34   C     C_R   0.127249 0.485509 0.495426 -0.022636
C35   C     C_R   0.810582 0.461123 0.850080 -0.138021
C36   C     C_R   0.217932 0.634411 0.119959 -0.100038
C37   C     C_R   0.763163 0.341674 0.862905 -0.081942
C38   C     C_R   0.936904 0.541302 0.409066 -0.036651
C39   C     C_R   0.063830 0.433346 0.579079 -0.041711
C40   C     C_3   0.217869 0.860175 0.164746 -0.259699
C41   C     C_3   0.336585 0.913272 0.210214 -0.284957
C42   C     C_3   0.448772 0.861984 0.158810 -0.424762
C43   C     C_3   0.714084 0.126246 0.789390 -0.248375
C44   C     C_3   0.650945 0.088238 0.889677 -0.300316
C45   C     C_R   0.937523 0.449343 0.583675 -0.042986
C46   C     C_3   0.524521 0.143916 0.899141 -0.439527
C47   C     C_3   0.871689 0.598087 0.314643 -0.229272
C48   C     C_3   0.833032 0.730921 0.334195 -0.288272
C49   C     C_3   0.787432 0.793415 0.235778 -0.462272
C50   C     C_3   0.126870 0.343590 0.653625 -0.229193
C51   C     C_3   0.164464 0.401512 0.756124 -0.278190
C52   C     C_3   0.241309 0.312564 0.820298 -0.455535
C53   C     C_R   0.064340 0.532907 0.408558 -0.044911
C54   C     C_R   0.685828 0.225297 0.187945 -0.113195
C55   C     C_R   0.305754 0.804419 0.822265 -0.114167
C56   C     C_R   0.609641 0.158839 0.254256 -0.074033
Cu1   Cu    Cu3+1 0.499990 0.499990 0.592680 0.975669
Cu2   Cu    Cu3+1 0.500010 0.500010 0.407320 0.970606
H1    H     H_    0.250235 0.658929 0.044461 0.102466
H2    H     H_    0.806346 0.526005 0.911982 0.103563
H3    H     H_    0.861444 0.313450 0.169035 0.096068
H4    H     H_    0.140315 0.698005 0.842584 0.092397
H5    H     H_    0.653494 0.250189 0.112036 0.098570
H6    H     H_    0.331558 0.800340 0.902354 0.094273
H7    H     H_    0.934542 0.258473 0.343822 0.102377
H8    H     H_    0.082699 0.705030 0.658579 0.103416
H9    H     H_    0.606977 0.885975 0.367623 0.123139
H10   H     H_    0.388031 0.114513 0.632428 0.112242
H11   H     H_    0.456184 0.761690 0.175065 0.178601
H12   H     H_    0.724567 0.317737 0.936013 0.106190
H13   H     H_    0.443729 0.878101 0.074839 0.136925
H14   H     H_    0.532015 0.908860 0.188763 0.129919
H15   H     H_    0.336533 0.014969 0.198785 0.136792
H16   H     H_    0.341449 0.893962 0.293816 0.172669
H17   H     H_    0.217632 0.873541 0.080275 0.130193
H18   H     H_    0.139850 0.913209 0.193423 0.115275
H19   H     H_    0.529761 0.245792 0.901169 0.164659
H20   H     H_    0.465306 0.116727 0.833607 0.143939
H21   H     H_    0.481859 0.109803 0.970828 0.131668
H22   H     H_    0.639336 0.986193 0.890780 0.142067
H23   H     H_    0.800680 0.140570 0.461386 0.085187
H24   H     H_    0.709113 0.111304 0.957044 0.151019
H25   H     H_    0.649058 0.111670 0.724562 0.152683
H26   H     H_    0.790587 0.062018 0.778415 0.112551
H27   H     H_    0.858505 0.791926 0.176258 0.148137
H28   H     H_    0.703940 0.745438 0.206991 0.154796
H29   H     H_    0.766393 0.891293 0.250482 0.143751
H30   H     H_    0.760318 0.731685 0.392111 0.175088
H31   H     H_    0.912123 0.785042 0.364361 0.149583
H32   H     H_    0.928973 0.600260 0.245912 0.137884
H33   H     H_    0.795513 0.539943 0.285874 0.178464
H34   H     H_    0.214635 0.814837 0.534587 0.083710
H35   H     H_    0.189242 0.225807 0.835905 0.146025
H36   H     H_    0.326049 0.290561 0.779506 0.164244
H37   H     H_    0.266321 0.355552 0.894342 0.138145
H38   H     H_    0.217349 0.488121 0.743737 0.201486
H39   H     H_    0.083275 0.424007 0.800731 0.158168
H40   H     H_    0.066447 0.262390 0.668355 0.128340
H41   H     H_    0.207737 0.303128 0.617520 0.147921
H42   H     H_    0.518268 0.134337 0.229335 0.099264
H43   H     H_    0.465091 0.908921 0.778909 0.101292
H44   H     H_    0.139721 0.761987 0.345925 0.082350
H45   H     H_    0.827744 0.228915 0.628445 0.075972
H46   H     H_    0.127711 0.381191 0.256565 0.094497
H47   H     H_    0.901619 0.589429 0.749618 0.093034
H48   H     H_    0.208633 0.440477 0.087492 0.103627
N1    N     N_1   0.500030 0.500030 0.268070 -0.174980
N2    N     N_1   0.499970 0.499970 0.731930 -0.170689
O1    O     O_R   0.499980 0.319630 0.578260 -0.508812
O2    O     O_R   0.500020 0.680370 0.421740 -0.507697
O3    O     O_R   0.500000 0.319650 0.421740 -0.483536
O4    O     O_R   0.500000 0.680350 0.578260 -0.481168
O5    O     O_R   0.319630 0.500000 0.578260 -0.499762
O6    O     O_R   0.680370 0.500000 0.421740 -0.503149
O7    O     O_R   0.319650 0.500020 0.421740 -0.486044
O8    O     O_R   0.680350 0.499980 0.578260 -0.482220

loop_
_geom_bond_atom_site_label_1
_geom_bond_atom_site_label_2
_ccdc_geom_bond_type
C51   H39   S    
C8    H8    S    
C23   C45   A    
C27   C29   A    
C43   H25   S    
C41   C42   S    
C49   H29   S    
C30   C45   S    
C36   H1    S    
C16   O5    A    
C12   O2    A    
C15   C19   A    
C11   C19   A    
C50   H41   S    
C17   C23   S    
C13   C18   A    
C9    H3    S    
C35   C37   A    
C44   H24   S    
C2    C55   A    
C25   C40   S    
C46   H21   S    
C11   C14   A    
Cu1   O4    S    
C54   H5    S    
C33   C36   A    
C52   H37   S    
Cu2   N1    S    
C14   C18   A    
C16   C34   S    
C41   H16   S    
Cu1   O1    S    
C44   C46   S    
C26   C43   S    
C48   H30   S    
C52   H36   S    
C1    C15   S    
C51   H38   S    
C39   C45   A    
C20   N1    T    
C4    C18   S    
C37   H12   S    
C43   H26   S    
C10   H4    S    
C11   H9    S    
C17   O6    A    
Cu1   O8    S    
C54   C56   A    
C50   H40   S    
C31   C33   A    
Cu2   O3    S    
C32   C35   A    
C49   H27   S    
C44   H22   S    
C4    C6    A    
C5    C7    A    
C6    C8    A    
C2    H43   S    
C42   H11   S    
C1    O1    A    
C34   C39   A    
C35   H2    S    
C2    C4    A    
C43   C44   S    
C7    H7    S    
C5    H23   S    
C3    C56   A    
C47   C48   S    
C55   H6    S    
C39   C50   S    
C42   H14   S    
C50   C51   S    
C52   H35   S    
C3    C19   S    
C10   C55   A    
C38   C47   S    
C40   C41   S    
C20   C22   S    
C32   H47   S    
C13   C15   A    
Cu2   O7    S    
C47   H32   S    
C22   C24   T    
C56   H42   S    
C16   O7    A    
C12   O4    A    
C46   H20   S    
C7    C9    A    
C48   C49   S    
Cu2   O2    S    
C47   H33   S    
C49   H28   S    
C33   H48   S    
C12   C14   S    
C3    C5    A    
C46   H19   S    
Cu1   O5    S    
C26   C37   A    
C25   C27   A    
C23   C38   A    
C27   H44   S    
C26   C28   A    
C40   H17   S    
C48   H31   S    
C31   H46   S    
C28   C30   A    
C51   C52   S    
C29   C31   A    
C1    O3    A    
C30   C32   A    
C28   H45   S    
Cu1   Cu2   S    
C38   C53   A    
C29   C53   S    
C6    H34   S    
C42   H13   S    
C21   N2    T    
C25   C36   A    
C41   H15   S    
C40   H18   S    
Cu1   N2    S    
C34   C53   A    
C8    C10   A    
C21   C24   S    
Cu2   O6    S    
C9    C54   A    
C17   O8    A    
C13   H10   S    
