data_mof_unit_2657.cif
_audit_creation_date              2012-12-10T18:11:09-0500
_audit_creation_method            fapswitch 2.2
_symmetry_space_group_name_H-M    P1
_symmetry_Int_Tables_number       1
_space_group_crystal_system       triclinic
_cell_length_a                    10.865046
_cell_length_b                    9.61114
_cell_length_c                    10.694104
_cell_angle_alpha                 91.774593
_cell_angle_beta                  88.276088
_cell_angle_gamma                 91.069996
_cell_volume                      1115.52017993

loop_
_atom_site_label
_atom_site_type_symbol
_atom_type_description
_atom_site_fract_x
_atom_site_fract_y
_atom_site_fract_z
_atom_type_partial_charge
C1    C     C_R   0.260203 0.499310 0.500423 0.887347
C2    C     C_3   0.494731 0.496728 0.125211 -0.124383
C3    C     C_3   0.068069 0.598848 0.606674 -0.126988
C4    C     C_3   0.064912 0.349837 0.515584 -0.069845
C5    C     C_3   0.925347 0.580661 0.613952 -0.055813
C6    C     C_3   0.925506 0.348396 0.491513 -0.117019
C7    C     C_3   0.078882 0.561265 0.371997 0.681845
C8    C     C_3   0.121587 0.500484 0.499771 0.038724
C9    C     C_3   0.877855 0.501680 0.492844 0.018626
C10   C     C_3   0.934377 0.571011 0.374287 -0.487275
C11   C     C_3   0.624111 0.086524 0.532187 0.304011
C12   C     C_3   0.618960 0.920324 0.548187 0.282606
C13   C     C_3   0.417439 0.082928 0.603708 0.045305
C14   C     C_3   0.401396 0.917636 0.588464 0.036752
C15   C     C_3   0.465763 0.073996 0.378938 -0.008210
C16   C     C_3   0.483548 0.909705 0.375151 0.006106
C17   C     C_R   0.496046 0.498382 0.260810 0.876372
C18   C     C_R   0.739467 0.500780 0.495310 0.794194
C19   C     C_R   0.501479 0.501707 0.739813 0.863802
C20   C     C_3   0.428762 0.603553 0.047965 0.349259
C21   C     C_3   0.449923 0.379064 0.036612 0.377720
C22   C     C_3   0.384465 0.485488 0.959754 0.243636
C23   C     C_3   0.501443 0.504118 0.876342 -0.213057
C24   C     C_3   0.545891 0.621643 0.966395 0.058928
C25   C     C_3   0.567106 0.398010 0.955419 0.057255
C26   C     C_3   0.614615 0.516112 0.044348 -0.266945
Cu1   Cu    Cu3+1 0.499860 0.642410 0.500060 1.006721
Cu2   Cu    Cu3+1 0.499860 0.357590 0.500060 1.003570
H1    H     H_    0.906029 0.681477 0.373414 0.171487
H2    H     H_    0.896072 0.521892 0.287994 0.167885
H3    H     H_    0.691372 0.108746 0.455253 0.038413
H4    H     H_    0.697869 0.875089 0.493547 0.101234
H5    H     H_    0.460512 0.102027 0.696170 0.188236
H6    H     H_    0.411209 0.874284 0.682926 0.176628
H7    H     H_    0.366484 0.092578 0.365531 0.151268
H8    H     H_    0.398531 0.860832 0.336830 0.217936
H9    H     H_    0.709498 0.528322 0.079397 0.161520
H10   H     H_    0.090360 0.707820 0.582467 0.197182
H11   H     H_    0.111126 0.279081 0.445180 0.176405
H12   H     H_    0.897833 0.516069 0.695139 0.154254
H13   H     H_    0.876665 0.292839 0.568100 0.162207
N1    N     N_3   0.500250 0.143650 0.502780 -0.141709
N2    N     N_3   0.500250 0.856350 0.502780 -0.150005
O1    O     O_R   0.317570 0.620260 0.500070 -0.538927
O2    O     O_R   0.317570 0.379740 0.500070 -0.559608
O3    O     O_R   0.499850 0.620240 0.316900 -0.544318
O4    O     O_R   0.499850 0.379760 0.316900 -0.544548
O5    O     O_R   0.682190 0.620260 0.500030 -0.549124
O6    O     O_R   0.682190 0.379740 0.500030 -0.580928
O7    O     O_R   0.499910 0.620280 0.683200 -0.571134
O8    O     O_R   0.499910 0.379720 0.683200 -0.532907
O9    O     O_3   0.264934 0.467259 0.917146 -0.720929
H14   H     H_    0.211256 0.462887 0.993572 0.365369
O10   O     O_3   0.669228 0.154514 0.640125 -0.722372
H15   H     H_    0.756567 0.128284 0.646614 0.279048
O11   O     O_3   0.633734 0.886483 0.673826 -0.731779
H16   H     H_    0.720085 0.908345 0.695205 0.318480
N3    N     N_3   0.529206 0.136062 0.270739 -0.483292
H17   H     H_    0.504030 0.083559 0.188255 0.255133
H18   H     H_    0.624770 0.139350 0.275137 0.199320
N4    N     N_3   0.585368 0.863631 0.289643 -0.544670
H19   H     H_    0.558152 0.863787 0.196721 0.260137
H20   H     H_    0.665670 0.923791 0.298050 0.167579
N5    N     N_3   0.301537 0.154334 0.617509 -0.499123
H21   H     H_    0.254289 0.118096 0.697101 0.200806
H22   H     H_    0.248709 0.133996 0.539285 0.215327
N6    N     N_3   0.277510 0.874246 0.550241 -0.547895
H23   H     H_    0.213965 0.897702 0.622800 0.171228
H24   H     H_    0.250317 0.922876 0.470076 0.217064
O12   O     O_3   0.355573 0.710924 0.098058 -0.715119
H25   H     H_    0.324921 0.759170 0.024875 0.317226
O13   O     O_3   0.395011 0.253377 0.072040 -0.716898
H26   H     H_    0.378046 0.201379 0.992738 0.321858
N7    N     N_3   0.597872 0.755923 0.931712 -0.564619
H27   H     H_    0.531098 0.806802 0.882835 0.253205
H28   H     H_    0.672301 0.736435 0.869965 0.257360
N8    N     N_3   0.643642 0.283960 0.908948 -0.553215
H29   H     H_    0.586387 0.211586 0.863401 0.262763
H30   H     H_    0.705788 0.324051 0.842220 0.239187
N9    N     N_3   0.122006 0.576354 0.728285 -0.537347
H31   H     H_    0.212369 0.615747 0.726143 0.252156
H32   H     H_    0.075445 0.637239 0.796556 0.220861
N10   N     N_3   0.086163 0.294841 0.639779 -0.533644
H33   H     H_    0.058521 0.189891 0.637696 0.178661
H34   H     H_    0.029120 0.340941 0.708721 0.254899
N11   N     N_3   0.867771 0.716217 0.636214 -0.585914
H35   H     H_    0.897882 0.785984 0.568262 0.208870
H36   H     H_    0.895381 0.757374 0.722826 0.200473
N12   N     N_3   0.902895 0.270970 0.373019 -0.631946
H37   H     H_    0.813879 0.284508 0.342398 0.241094
H38   H     H_    0.912055 0.164641 0.388008 0.203688
O14   O     O_3   0.128816 0.696498 0.358565 -0.731143
H39   H     H_    0.109408 0.726805 0.273517 0.350958
O15   O     O_3   0.123712 0.478847 0.269282 -0.743302
H40   H     H_    0.073018 0.392859 0.261214 0.335768

loop_
_geom_bond_atom_site_label_1
_geom_bond_atom_site_label_2
_ccdc_geom_bond_type
Cu1   O5    S    
C7    C10   S    
Cu2   O4    S    
C1    C8    S    
C10   H1    S    
C4    C8    S    
C1    O2    A    
C6    C9    S    
C7    C8    S    
N8    H29   S    
C13   H5    S    
C4    N10   S    
N7    H28   S    
C25   N8    S    
C24   C26   S    
C12   N2    S    
Cu2   O8    S    
N11   H36   S    
N3    H18   S    
C15   C16   S    
O11   H16   S    
C11   N1    S    
N4    H20   S    
Cu1   O1    S    
C20   C24   S    
C3    H10   S    
C6    H13   S    
C23   C24   S    
O12   H25   S    
N12   H38   S    
C9    C10   S    
Cu1   O7    S    
C11   H3    S    
C21   C22   S    
C12   H4    S    
C2    C17   S    
C20   O12   S    
O15   H40   S    
C3    N9    S    
C15   H7    S    
C13   N1    S    
N8    H30   S    
Cu2   O2    S    
N7    H27   S    
C21   O13   S    
C2    C20   S    
N6    H23   S    
C17   O3    A    
C4    C6    S    
C3    C8    S    
N11   H35   S    
O13   H26   S    
N3    H17   S    
N6    H24   S    
N5    H22   S    
C19   C23   S    
C5    C9    S    
Cu1   N2    S    
Cu2   O6    S    
C10   H2    S    
C1    O1    A    
N10   H33   S    
C4    H11   S    
C14   N6    S    
C2    C21   S    
C2    C26   S    
C16   N2    S    
C12   O11   S    
C11   O10   S    
C5    N11   S    
Cu1   O3    S    
N9    H32   S    
N10   H34   S    
C20   C22   S    
C15   N3    S    
C16   N4    S    
O9    H14   S    
C22   O9    S    
C7    O15   S    
C21   C25   S    
O10   H15   S    
C17   O4    A    
C15   N1    S    
N9    H31   S    
C3    C5    S    
C18   O5    A    
C14   H6    S    
C11   C12   S    
C26   H9    S    
C6    N12   S    
N5    H21   S    
C25   C26   S    
C16   H8    S    
C19   O7    A    
C24   N7    S    
C13   N5    S    
C7    O14   S    
Cu2   N1    S    
O14   H39   S    
C23   C25   S    
N4    H19   S    
C19   O8    A    
C9    C18   S    
C5    H12   S    
Cu1   Cu2   S    
C22   C23   S    
N12   H37   S    
C13   C14   S    
C18   O6    A    
C14   N2    S    
