data_mof_unit_3703.cif
_audit_creation_date              2012-10-26T19:57:56-0400
_audit_creation_method            fapswitch 2.2
_symmetry_space_group_name_H-M    P1
_symmetry_Int_Tables_number       1
_space_group_crystal_system       triclinic
_cell_length_a                    7.549112
_cell_length_b                    8.891277
_cell_length_c                    12.97772
_cell_angle_alpha                 88.219
_cell_angle_beta                  79.931924
_cell_angle_gamma                 104.37557
_cell_volume                      828.275211026

loop_
_atom_site_label
_atom_site_type_symbol
_atom_type_description
_atom_site_fract_x
_atom_site_fract_y
_atom_site_fract_z
_atom_type_partial_charge
C1    C     C_R   0.451543 0.199777 0.504283 0.534700
C2    C     C_R   0.724181 0.572875 0.122843 -0.071360
C3    C     C_R   0.605711 0.533698 0.859447 -0.103498
C4    C     C_R   0.394127 0.452480 0.140905 -0.113018
C5    C     C_R   0.589319 0.522633 0.968130 0.048440
C6    C     C_R   0.412062 0.454479 0.032205 0.051590
C7    C     C_2   0.423760 0.030546 0.509929 0.232253
C8    C     C_2   0.573919 0.968837 0.490886 0.234999
C9    C     C_3   0.122360 0.960304 0.616734 0.023990
C10   C     C_3   0.207463 0.986959 0.716497 -0.286083
C11   C     C_3   0.067267 0.022464 0.805868 -0.430566
C12   C     C_R   0.548028 0.800273 0.495482 0.567900
C13   C     C_3   0.838897 0.098194 0.373186 0.023735
C14   C     C_3   0.978700 0.001026 0.343081 -0.231046
C15   C     C_3   0.171107 0.095380 0.287173 -0.433956
C16   C     C_R   0.467321 0.493383 0.700940 0.535806
C17   C     C_R   0.532325 0.504281 0.299181 0.530024
C18   C     C_R   0.549828 0.510054 0.185985 -0.013832
C19   C     C_R   0.449788 0.479006 0.814281 -0.012435
C20   C     C_R   0.257353 0.391893 0.985584 0.104489
C21   C     C_R   0.745203 0.579687 0.014717 0.107109
C22   C     C_R   0.277590 0.407131 0.877220 -0.082622
Cu1   Cu    Cu3+1 0.686350 0.517570 0.488220 1.045999
Cu2   Cu    Cu3+1 0.313650 0.482430 0.511780 1.054904
H1    H     H_    0.259674 0.407352 0.191000 0.163454
H2    H     H_    0.125213 0.031770 0.879057 0.204250
H3    H     H_    0.933541 0.931161 0.818688 0.185782
H4    H     H_    0.911700 0.224215 0.363520 0.203130
H5    H     H_    0.737775 0.082128 0.318461 0.117138
H6    H     H_    0.997918 0.942741 0.415397 0.257435
H7    H     H_    0.920808 0.910073 0.292457 0.169292
H8    H     H_    0.169101 0.126792 0.204589 0.180352
H9    H     H_    0.273727 0.025122 0.287091 0.176636
H10   H     H_    0.218899 0.201187 0.327828 0.182676
H11   H     H_    0.738037 0.588191 0.809279 0.169480
H12   H     H_    0.845354 0.617881 0.157519 0.183768
H13   H     H_    0.156566 0.365447 0.842311 0.175470
H14   H     H_    0.003336 0.854888 0.634713 0.180932
H15   H     H_    0.059021 0.054683 0.597881 0.207960
H16   H     H_    0.249793 0.881485 0.739057 0.203802
H17   H     H_    0.332552 0.087067 0.703821 0.159855
H18   H     H_    0.038121 0.134219 0.786682 0.173556
I1    I     I_    0.986946 0.273413 0.069509 -0.467601
I2    I     I_    0.019692 0.672845 0.931424 -0.455929
I3    I     I_    0.873869 0.310071 0.658061 -0.239951
I4    I     I_    0.119849 0.671628 0.333432 -0.262493
N1    N     N_2   0.033570 0.455950 0.529530 -0.022189
N2    N     N_2   0.966430 0.544050 0.470470 -0.029629
O1    O     O_R   0.621060 0.286250 0.492350 -0.470293
O2    O     O_3   0.754539 0.061429 0.480488 -0.583519
O3    O     O_R   0.378940 0.713750 0.507650 -0.447938
O4    O     O_R   0.306310 0.256580 0.512240 -0.522326
O5    O     O_R   0.693690 0.743420 0.487760 -0.513676
O6    O     O_R   0.631800 0.512400 0.642670 -0.497060
O7    O     O_R   0.368200 0.487600 0.357330 -0.508316
O8    O     O_R   0.317060 0.482730 0.662570 -0.497871
O9    O     O_R   0.682940 0.517270 0.337430 -0.507778
O10   O     O_3   0.243854 0.932286 0.527051 -0.585920

loop_
_geom_bond_atom_site_label_1
_geom_bond_atom_site_label_2
_ccdc_geom_bond_type
Cu2   O4    S    
Cu1   Cu2   S    
C16   O8    A    
C13   H4    S    
C3    C19   A    
C4    H1    S    
C11   H3    S    
Cu2   O8    S    
C21   I2    S    
C6    C20   A    
C9    C10   S    
C17   O7    A    
C15   H10   S    
N1    N2    D    
C3    H11   S    
C14   H7    S    
C8    C12   S    
C4    C18   A    
C12   O3    A    
C20   I1    S    
C2    C21   A    
C17   C18   S    
C14   H6    S    
C15   H8    S    
C13   C14   S    
Cu2   O7    S    
Cu2   N1    S    
Cu2   O3    S    
C16   C19   S    
C4    C6    A    
C9    H14   S    
C20   C22   A    
Cu1   O5    S    
C16   O6    A    
Cu1   O6    S    
I3    N1    S    
C5    C6    A    
C1    O4    A    
I4    N2    S    
Cu1   O1    S    
C2    C18   A    
C10   C11   S    
C13   H5    S    
C13   O2    S    
C8    O2    S    
C7    C8    D    
C19   C22   A    
C5    C21   A    
C11   H18   S    
C10   H16   S    
C9    O10   S    
C2    H12   S    
Cu1   O9    S    
C14   C15   S    
Cu1   N2    S    
C7    O10   S    
C11   H2    S    
C3    C5    A    
C1    C7    S    
C22   H13   S    
C1    O1    A    
C15   H9    S    
C9    H15   S    
C12   O5    A    
C17   O9    A    
C10   H17   S    
