data_mof_unit_619.cif
_audit_creation_date              2013-03-05T15:57:01-0500
_audit_creation_method            fapswitch 2.2
_symmetry_space_group_name_H-M    P1
_symmetry_Int_Tables_number       1
_space_group_crystal_system       triclinic
_cell_length_a                    8.479338
_cell_length_b                    16.514226
_cell_length_c                    18.833368
_cell_angle_alpha                 100.060048
_cell_angle_beta                  92.060978
_cell_angle_gamma                 92.879464
_cell_volume                      2590.72040375

loop_
_atom_site_label
_atom_site_type_symbol
_atom_site_description
_atom_site_fract_x
_atom_site_fract_y
_atom_site_fract_z
_atom_type_partial_charge
P1    P     P_3+3 0.056550 0.421630 0.336220 0.607314
O1    O     O_2   0.884010 0.444810 0.325060 -0.298363
O2    O     O_3   0.132090 0.451130 0.414310 -0.285508
O3    O     O_3   0.640770 0.594650 0.368950 -0.292515
O4    O     O_2   0.724924 0.521585 0.240878 -0.340640
O5    O     O_3   0.074858 0.315268 0.299434 -0.664162
O6    O     O_3   0.680191 0.679601 0.253301 -0.453168
H1    H     H_    0.659294 0.750650 0.354151 0.095015
C1    C     C_3   0.636788 0.825444 0.270910 -0.068549
H2    H     H_    0.755361 0.854341 0.291052 0.153019
P2    P     P_3+3 0.635450 0.689180 0.556380 0.503798
P3    P     P_3+3 0.087046 0.747024 0.413188 0.491302
O7    O     O_2   0.808690 0.699720 0.534830 -0.362398
O8    O     O_3   0.053760 0.638480 0.405010 -0.305320
O9    O     O_2   0.973141 0.787137 0.469380 -0.387565
O10   O     O_3   0.645662 0.722036 0.650115 -0.556259
O11   O     O_3   0.021418 0.781079 0.334315 -0.562262
C2    C     C_3   0.103126 0.744680 0.273711 0.830210
H3    H     H_    0.220737 0.724905 0.289457 -0.126346
C3    C     C_3   0.131178 0.808437 0.224266 -0.799944
H4    H     H_    0.150681 0.777101 0.168429 0.259660
H5    H     H_    0.026574 0.846680 0.223320 0.279449
C4    C     C_3   0.197407 0.719322 0.625923 0.387657
H6    H     H_    0.321665 0.704365 0.616989 0.073871
H7    H     H_    0.119567 0.696151 0.577155 0.119003
C5    C     C_3   0.189148 0.812482 0.643389 -0.859533
H8    H     H_    0.272108 0.838383 0.689702 0.266626
H9    H     H_    0.221597 0.840495 0.596152 0.208447
H10   H     H_    0.066855 0.828385 0.657318 0.278328
Ba1   Ba    Ba6+2 0.845660 0.536000 0.465120 1.726069
C6    C     C_3   0.052964 0.259152 0.347069 0.470690
H11   H     H_    0.105644 0.285238 0.401426 0.026329
C7    C     C_3   0.134771 0.178217 0.319468 0.463338
H12   H     H_    0.261350 0.194130 0.314994 0.041356
C8    C     C_3   0.694912 0.658828 0.684660 0.226044
H13   H     H_    0.819881 0.648030 0.672915 0.091206
H14   H     H_    0.618754 0.601559 0.667149 0.090011
C9    C     C_3   0.680000 0.684855 0.765945 -0.109480
H15   H     H_    0.707709 0.633273 0.794184 0.056285
H16   H     H_    0.555777 0.699878 0.776729 0.130400
P4    P     P_3+3 0.133150 0.578440 0.663790 0.508642
O12   O     O_2   0.305690 0.555220 0.674980 -0.380617
O13   O     O_3   0.057610 0.548940 0.585700 -0.358435
O14   O     O_3   0.548930 0.405410 0.631060 -0.297120
O15   O     O_3   0.146838 0.686167 0.684917 -0.536170
P5    P     P_3+3 0.116449 0.252993 0.588755 0.590251
O16   O     O_3   0.631040 0.400420 0.463490 -0.251212
O17   O     O_3   0.135930 0.361590 0.595000 -0.287925
O18   O     O_2   0.257122 0.216417 0.546828 -0.322771
O19   O     O_3   0.157500 0.233347 0.675840 -0.485179
Ba2   Ba    Ba6+2 0.344160 0.464070 0.534880 1.739735
P6    P     P_3+3 0.612052 0.586037 0.275850 0.570238
C10   C     C_3   0.608704 0.743629 0.297881 0.249802
H17   H     H_    0.479321 0.730253 0.298050 -0.005917
H18   H     H_    0.546804 0.868528 0.293999 0.084328
O20   O     O_3   0.558660 0.599640 0.536520 -0.350709
C11   C     C_3   0.492705 0.308245 0.303143 0.478908
H19   H     H_    0.377435 0.333897 0.317269 0.050296
H20   H     H_    0.589238 0.356299 0.306134 0.166342
C12   C     C_3   0.481661 0.265468 0.224422 -0.991725
H21   H     H_    0.384638 0.216822 0.214528 0.261638
H22   H     H_    0.458486 0.311567 0.189384 0.200915
H23   H     H_    0.594932 0.237250 0.209607 0.301097
P7    P     P_3+3 0.553295 0.295497 0.440159 0.615863
O21   O     O_2   0.381010 0.300300 0.465220 -0.376015
O22   O     O_3   0.530338 0.251271 0.347386 -0.507996
H24   H     H_    0.238856 0.849078 0.244007 0.226094
C13   C     C_3   0.025515 0.251256 0.717969 0.847079
H25   H     H_    0.979114 0.311499 0.710811 0.033670
C14   C     C_3   0.073510 0.258292 0.798272 0.002554
H26   H     H_    0.967418 0.270607 0.830747 0.073930
H27   H     H_    0.119742 0.199050 0.807922 0.156946
P8    P     P_3+3 0.573180 0.421454 0.725599 0.510955
C15   C     C_3   0.592828 0.269045 0.736626 1.142738
H28   H     H_    0.716863 0.290658 0.754580 -0.352347
O23   O     O_2   0.459016 0.487102 0.755507 -0.396424
O24   O     O_3   0.491759 0.333513 0.754181 -0.509114
H29   H     H_    0.644572 0.155386 0.774118 0.093263
C16   C     C_3   0.549483 0.199993 0.778407 0.052950
H30   H     H_    0.541532 0.226575 0.836546 0.088431
C17   C     C_R   0.004584 0.462845 0.048480 0.018998
C18   C     C_R   0.913806 0.423367 0.095136 0.115619
C19   C     C_R   0.765476 0.385581 0.070176 -0.162407
C20   C     C_R   0.707479 0.387350 0.000035 -0.200831
C21   C     C_R   0.798135 0.425263 0.952727 0.136451
C22   C     C_R   0.947916 0.462515 0.976513 0.018073
C23   C     C_R   0.740340 0.426491 0.882301 -0.268255
C24   C     C_R   0.832074 0.461411 0.832979 -0.016514
C25   C     C_R   0.983876 0.498902 0.856365 0.048810
C26   C     C_R   0.039878 0.500077 0.928757 0.000981
C27   C     C_R   0.775317 0.461848 0.761502 0.128806
C28   C     C_R   0.869435 0.499720 0.715616 -0.422045
C29   C     C_R   0.022327 0.533237 0.735081 0.244339
C30   C     C_R   0.078099 0.536824 0.808283 -0.015797
C31   C     C_R   0.151678 0.502345 0.073616 0.022563
C32   C     C_R   0.205821 0.505369 0.146611 0.033693
C33   C     C_R   0.112821 0.466951 0.194550 -0.032861
C34   C     C_R   0.970684 0.422983 0.166208 -0.097611
H31   H     H_    0.693181 0.355505 0.105303 0.133517
H32   H     H_    0.591775 0.358462 0.982567 0.132460
H33   H     H_    0.819154 0.507434 0.664206 0.184261
H34   H     H_    0.622658 0.400157 0.867047 0.165776
H35   H     H_    0.900398 0.389274 0.199122 0.164372
C35   C     C_R   0.222070 0.578872 0.835941 -0.075841
C36   C     C_R   0.278949 0.578226 0.906969 0.106077
C37   C     C_R   0.187756 0.538891 0.953661 0.014491
C38   C     C_R   0.243600 0.539926 0.025853 0.019722
C39   C     C_R   0.426556 0.616681 0.932220 -0.154495
C40   C     C_R   0.482780 0.616525 0.002892 -0.119065
C41   C     C_R   0.391641 0.578898 0.050203 0.091611
C42   C     C_R   0.354213 0.545674 0.170868 -0.075042
C43   C     C_R   0.446412 0.580552 0.121504 -0.162811
C44   C     C_R   0.407089 0.549338 0.243627 0.010462
C45   C     C_R   0.309003 0.517485 0.292370 -0.018037
C46   C     C_R   0.163299 0.475453 0.269443 0.155273
H36   H     H_    0.291237 0.613083 0.802923 0.156013
H37   H     H_    0.498967 0.646804 0.897219 0.135513
H38   H     H_    0.597260 0.646677 0.020810 0.179970
H39   H     H_    0.561164 0.610341 0.137722 0.209153
C47   C     C_R   0.377512 0.737559 0.482158 -0.419776
C48   C     C_R   0.530442 0.760633 0.508716 0.278996
C49   C     C_R   0.593691 0.840061 0.505191 -0.279528
C50   C     C_R   0.503359 0.894664 0.472248 0.161221
C51   C     C_R   0.351796 0.866281 0.441083 -0.312323
C52   C     C_R   0.289353 0.787038 0.446018 0.184467
C53   C     C_R   0.627972 0.142396 0.479740 -0.203021
C54   C     C_R   0.671062 0.226228 0.486201 0.189263
C55   C     C_R   0.730419 0.088131 0.506323 0.198696
N1    N     N_2   0.554852 0.978769 0.472348 -0.044329
N2    N     N_2   0.686147 0.002440 0.503842 -0.060234
C56   C     C_R   0.818849 0.256103 0.517922 -0.011256
H40   H     H_    0.515816 0.119848 0.453389 0.209591
H41   H     H_    0.280969 0.906767 0.415482 0.199751
C57   C     C_R   0.924577 0.204756 0.543981 0.069422
C58   C     C_R   0.879939 0.120277 0.537814 -0.161890
H42   H     H_    0.709782 0.859525 0.529756 0.182188
H43   H     H_    0.959888 0.079944 0.558452 0.155964
H44   H     H_    0.320944 0.683317 0.495268 0.173411
N3    N     N_R   0.884894 0.243955 0.350596 0.211701
O25   O     O_R   0.809235 0.176748 0.317184 -0.313975
O26   O     O_R   0.809558 0.309853 0.363248 -0.397671
O27   O     O_3   0.071957 0.139267 0.251248 -0.652471
H45   H     H_    0.105171 0.174093 0.215920 0.317849
N4    N     N_R   0.122304 0.120841 0.370242 0.239723
O28   O     O_R   0.250021 0.097605 0.399413 -0.423749
O29   O     O_R   0.987715 0.083619 0.379646 -0.348441
N5    N     N_R   0.786881 0.756061 0.794033 0.286502
O30   O     O_R   0.938350 0.747927 0.799445 -0.359336
O31   O     O_R   0.731116 0.827722 0.815772 -0.329424
N6    N     N_R   0.625420 0.813515 0.192171 0.285412
O32   O     O_R   0.743344 0.785010 0.154893 -0.310686
O33   O     O_R   0.505184 0.839637 0.159367 -0.364786
O34   O     O_3   0.905664 0.188422 0.698763 -0.877173
H46   H     H_    0.952565 0.135237 0.701293 0.317110
O35   O     O_3   0.188533 0.322619 0.819769 -0.675341
H47   H     H_    0.221216 0.319933 0.870426 0.324889
O36   O     O_3   0.577675 0.238104 0.662272 -0.720595
H48   H     H_    0.676964 0.255449 0.641432 0.299745
O37   O     O_3   0.403942 0.159398 0.752781 -0.670432
H49   H     H_    0.424492 0.120516 0.708090 0.360314
N7    N     N_R   0.009985 0.671833 0.236385 0.239533
O38   O     O_R   0.985875 0.610943 0.270024 -0.358672
O39   O     O_R   0.955608 0.664403 0.169898 -0.364043
N8    N     N_R   0.370611 0.515347 0.362970 0.240876
O40   O     O_R   0.329018 0.567369 0.417099 -0.381717
O41   O     O_R   0.483878 0.468562 0.372701 -0.402529
N9    N     N_R   0.856310 0.341578 0.529810 0.246167
O42   O     O_R   0.828800 0.383480 0.591843 -0.455206
O43   O     O_R   0.952014 0.372905 0.488606 -0.319981

loop_
_geom_bond_atom_site_label_1
_geom_bond_atom_site_label_2
_geom_bond_distance
_ccdc_geom_bond_type
Ba1   Ba2   4.653440 S    
O36   H48   0.991820 S    
C4    O15   1.393299 S    
C18   C34   1.407521 A    
P4    O12   1.547359 D    
C3    H24   1.117660 S    
C31   C32   1.425293 A    
C11   O22   1.402246 S    
C23   C24   1.412258 A    
C56   C57   1.397766 A    
C45   C46   1.401938 A    
C50   C51   1.415955 A    
N9    O43   1.292957 A    
C21   C22   1.405863 A    
P5    O18   1.544238 D    
C5    H8    1.110788 S    
C53   C54   1.397166 A    
C51   H41   1.082737 S    
O3    P6    1.741422 S    
C12   H23   1.111899 S    
N8    O40   1.285319 A    
C8    H14   1.111123 S    
O6    P6    1.748949 S    
C2    H3    1.111042 S    
O10   C8    1.395967 S    
C16   O37   1.402268 S    
C9    H15   1.110447 S    
C17   C31   1.404703 A    
C2    N7    1.460928 S    
C11   H20   1.103961 S    
C37   C38   1.420499 A    
C34   H35   1.078487 S    
P2    O7    1.547495 D    
C39   C40   1.398032 A    
C12   H22   1.111222 S    
P1    O1    1.547066 D    
Ba2   O21   2.829860 S    
C4    C5    1.521740 S    
C25   C30   1.431924 A    
C28   C29   1.394382 A    
N5    O30   1.300270 A    
N7    O39   1.301796 A    
C35   H36   1.079585 S    
O17   Ba2   2.788677 S    
P4    C29   1.900910 S    
C42   C43   1.414698 A    
P2    Ba1   3.418286 S    
C13   H25   1.115831 S    
C15   O24   1.402251 S    
P3    O11   1.759647 S    
C4    H6    1.106272 S    
C6    C7    1.553758 S    
O4    P6    1.544500 D    
C14   H26   1.113189 S    
C1    H18   1.117059 S    
C33   C46   1.440055 A    
C1    H2    1.115179 S    
C17   C22   1.420653 A    
O12   Ba2   2.838642 S    
O5    C6    1.408269 S    
C56   N9    1.408173 S    
O34   H46   0.990054 S    
C19   H31   1.083292 S    
C50   N1    1.434516 S    
P4    O13   1.568803 S    
O37   H49   0.992002 S    
P2    C48   1.846384 S    
O8    Ba1   2.787897 S    
C35   C36   1.407573 A    
C36   C39   1.402785 A    
C40   H38   1.083187 S    
C33   C34   1.412476 A    
C54   C56   1.397045 A    
C21   C23   1.401247 A    
C7    N4    1.461883 S    
C32   C42   1.415358 A    
P5    O17   1.775543 S    
C1    N6    1.460453 S    
C15   H28   1.114648 S    
C14   O35   1.400323 S    
C20   H32   1.083188 S    
O7    Ba1   2.829596 S    
C8    C9    1.527680 S    
C20   C21   1.404459 A    
P8    C27   1.866581 S    
N4    O29   1.301421 A    
C13   O34   1.405994 S    
C22   C26   1.413694 A    
C55   C58   1.417492 A    
C27   C28   1.401124 A    
O2    Ba2   2.816677 S    
C47   C52   1.381586 A    
C11   C12   1.524255 S    
O16   Ba2   2.971246 S    
P3    C52   1.851684 S    
C10   H17   1.108390 S    
Ba1   O20   2.972140 S    
C17   C18   1.409966 A    
P1    O5    1.788666 S    
C12   H21   1.107785 S    
P1    O2    1.568802 S    
C8    H13   1.107091 S    
P7    O22   1.771879 S    
O2    Ba1   2.969756 S    
P5    C57   1.878563 S    
C23   H34   1.076813 S    
P2    O10   1.751578 S    
Ba1   O16   2.808637 S    
C45   N8    1.417873 S    
C6    H11   1.107635 S    
C24   C27   1.414554 A    
C53   H40   1.074831 S    
P7    C54   1.859213 S    
C49   H42   1.081603 S    
C32   C33   1.428495 A    
C7    H12   1.101840 S    
C42   C44   1.416523 A    
C29   C30   1.431633 A    
P4    O15   1.750825 S    
C3    H4    1.109949 S    
C26   C37   1.405368 A    
C48   C49   1.405301 A    
C31   C38   1.413778 A    
C28   H33   1.074380 S    
O14   Ba2   2.791088 S    
C3    H5    1.115787 S    
P3    O9    1.544182 D    
C15   C16   1.531918 S    
P8    O23   1.536552 D    
N6    O33   1.303526 A    
Ba1   O13   2.816205 S    
C19   C20   1.398541 A    
C47   H44   1.065862 S    
O6    C10   1.407563 S    
C6    N3    1.440517 S    
N9    O42   1.285121 A    
C47   C48   1.383485 A    
C44   C45   1.410947 A    
C58   H43   1.082187 S    
C53   C55   1.418449 A    
C15   O36   1.403222 S    
N5    O31   1.301003 A    
H29   C16   1.114847 S    
C39   H37   1.082578 S    
Ba2   O20   2.807865 S    
P3    O8    1.779349 S    
N4    O28   1.301720 A    
C55   N2    1.438027 S    
H1    C10   1.113508 S    
C43   H39   1.077084 S    
N3    O25   1.301847 A    
O16   P7    1.796769 S    
C57   C58   1.410762 A    
C7    O27   1.405644 S    
C36   C37   1.411090 A    
P5    O19   1.752858 S    
C5    H9    1.108950 S    
N6    O32   1.302562 A    
O11   C2    1.415322 S    
O1    Ba1   2.838080 S    
P7    O21   1.552848 D    
N8    O41   1.290074 A    
N1    N2    1.253734 D    
N7    O38   1.290556 A    
C40   C41   1.404267 A    
C9    H16   1.111906 S    
N3    O26   1.280367 A    
O13   Ba2   2.970676 S    
C11   H19   1.107470 S    
P6    C44   1.856315 S    
P1    Ba1   3.421702 S    
C38   C41   1.405195 A    
C2    C3    1.538056 S    
C4    H7    1.110805 S    
O14   P8    1.756706 S    
C41   C43   1.400257 A    
C9    N5    1.457756 S    
C30   C35   1.409447 A    
C16   H30   1.112002 S    
C1    C10   1.535049 S    
C24   C25   1.420577 A    
C5    H10   1.111726 S    
C13   C14   1.534924 S    
C18   C19   1.403005 A    
O35   H47   0.992953 S    
C49   C50   1.419655 A    
P8    O24   1.753460 S    
O27   H45   0.991784 S    
C14   H27   1.113282 S    
P1    C46   1.892764 S    
C25   C26   1.424051 A    
O19   C13   1.408766 S    
P4    Ba2   3.422408 S    
O3    Ba1   2.791504 S    
P2    O20   1.562978 S    
C51   C52   1.406384 A    
