data_mof_unit_1387.cif
_audit_creation_date              2012-12-11T16:04:50-0500
_audit_creation_method            fapswitch 2.2
_symmetry_space_group_name_H-M    P1
_symmetry_Int_Tables_number       1
_space_group_crystal_system       triclinic
_cell_length_a                    10.691915
_cell_length_b                    10.687176
_cell_length_c                    16.869337
_cell_angle_alpha                 98.360662
_cell_angle_beta                  98.692012
_cell_angle_gamma                 60.956181
_cell_volume                      1660.04803588

loop_
_atom_site_label
_atom_site_type_symbol
_atom_type_description
_atom_site_fract_x
_atom_site_fract_y
_atom_site_fract_z
_atom_type_partial_charge
C1    C     C_R   0.352383 0.779124 0.400178 0.542491
C2    C     C_3   0.406469 0.695406 0.255932 -0.111173
C3    C     C_3   0.341573 0.820250 0.320770 0.054720
C4    C     C_R   0.369705 0.346656 0.358942 0.538056
C5    C     C_3   0.405857 0.901609 0.289040 -0.127992
C6    C     C_3   0.264764 0.974429 0.234259 -0.111445
C7    C     C_3   0.201478 0.891814 0.267317 -0.121823
C8    C     C_3   0.265524 0.767842 0.201799 -0.114985
C9    C     C_3   0.328627 0.849501 0.169330 0.057418
C10   C     C_3   0.426792 0.246935 0.767494 0.053500
C11   C     C_3   0.349166 0.390970 0.729654 -0.100754
C12   C     C_3   0.732956 0.300847 0.250267 -0.117765
C13   C     C_3   0.318327 0.312895 0.651117 0.039469
C14   C     C_3   0.394945 0.169315 0.689867 0.036196
C15   C     C_3   0.250497 0.201157 0.718108 -0.153247
C16   C     C_R   0.775233 0.377550 0.401522 0.546428
C17   C     C_3   0.173334 0.346165 0.678045 -0.149875
C18   C     C_3   0.205397 0.422689 0.757805 -0.121936
C19   C     C_3   0.284485 0.278480 0.796003 0.034573
C20   C     C_1   0.856885 0.325666 0.704410 -0.064408
C21   C     C_1   0.904405 0.292943 0.772294 -0.071546
C22   C     C_1   0.357452 0.765485 0.714503 -0.062775
C23   C     C_3   0.812363 0.351104 0.320387 0.063280
C24   C     C_1   0.326218 0.811948 0.782138 -0.060672
C25   C     C_R   0.895691 0.309070 0.091632 0.557333
C26   C     C_R   0.319610 0.299983 0.120052 0.551936
C27   C     C_R   0.297000 0.887567 0.087424 0.544619
C28   C     C_R   0.379550 0.716354 0.631742 0.556177
C29   C     C_R   0.946584 0.274727 0.856583 0.539422
C30   C     C_R   0.276772 0.252070 0.877239 0.541690
C31   C     C_R   0.282242 0.880815 0.859759 0.533373
C32   C     C_R   0.362794 0.341292 0.580994 0.532205
C33   C     C_R   0.781748 0.375873 0.627985 0.535394
C34   C     C_3   0.957324 0.249516 0.289529 -0.154526
C35   C     C_1   0.343073 0.336893 0.275097 -0.064732
C36   C     C_1   0.332082 0.326738 0.203756 -0.065608
C37   C     C_3   0.879507 0.198321 0.217685 -0.116637
C38   C     C_3   0.573115 0.199411 0.815093 -0.252501
C39   C     C_3   0.678934 0.189096 0.760958 -0.423023
C40   C     C_3   0.492650 0.020532 0.649171 -0.263276
C41   C     C_3   0.588260 0.909986 0.709628 -0.418108
C42   C     C_3   0.939024 0.370937 0.241817 -0.114603
C43   C     C_3   0.792795 0.473346 0.273683 -0.105678
C44   C     C_3   0.714787 0.422335 0.202452 -0.150031
C45   C     C_3   0.859557 0.321179 0.171570 0.061088
C46   C     C_3   0.469553 0.778195 0.222339 -0.131893
Cr1   Cr    Cr6+3 0.608340 0.611040 0.520430 0.989497
Cr2   Cr    Cr6+3 0.287650 0.601120 0.489350 1.018085
Cr3   Cr    Cr6+3 0.604040 0.287870 0.490280 1.000435
Cr4   Cr    Cr6+3 0.054020 0.052700 0.970850 1.003605
Cr5   Cr    Cr6+3 0.059230 0.375120 0.993390 1.014365
Cr6   Cr    Cr6+3 0.374950 0.061200 0.992340 1.006461
H1    H     H_    0.648358 0.271889 0.256149 0.136201
H2    H     H_    0.052726 0.184591 0.330059 0.102621
H3    H     H_    0.023871 0.399776 0.236210 0.127747
H4    H     H_    0.759443 0.585705 0.298940 0.133572
H5    H     H_    0.619602 0.486773 0.161665 0.107097
H6    H     H_    0.460938 0.580956 0.268878 0.117870
H7    H     H_    0.576731 0.734716 0.200294 0.115105
H8    H     H_    0.460901 0.957739 0.326921 0.126765
H9    H     H_    0.666889 0.141621 0.699487 0.174793
H10   H     H_    0.657793 0.299796 0.756114 0.157821
H11   H     H_    0.789570 0.118891 0.785592 0.174216
H12   H     H_    0.210297 0.088843 0.221244 0.117108
H13   H     H_    0.564574 0.279241 0.867043 0.169095
H14   H     H_    0.611665 0.094446 0.839138 0.168738
H15   H     H_    0.678914 0.928478 0.737324 0.130476
H16   H     H_    0.525507 0.912384 0.757048 0.169343
H17   H     H_    0.640184 0.800907 0.678688 0.187423
H18   H     H_    0.422432 0.983449 0.609575 0.172867
H19   H     H_    0.563575 0.026189 0.610055 0.161427
H20   H     H_    0.093708 0.935993 0.288753 0.119247
H21   H     H_    0.210422 0.711116 0.164587 0.126535
H22   H     H_    0.389498 0.470219 0.734339 0.106012
H23   H     H_    0.209475 0.122859 0.715205 0.106847
H24   H     H_    0.070205 0.386373 0.639351 0.135110
H25   H     H_    0.128110 0.526763 0.786896 0.138502
H26   H     H_    0.912821 0.086753 0.190991 0.131356
O1    O     O_R   0.751220 0.499230 0.435170 -0.522809
O2    O     O_R   0.412990 0.180750 0.091610 -0.503132
O3    O     O_R   0.366620 0.943130 0.065760 -0.496952
O4    O     O_R   0.477220 0.727600 0.436870 -0.502308
O5    O     O_R   0.160510 0.906330 0.879210 -0.513821
O6    O     O_R   0.930190 0.179050 0.889450 -0.504339
O7    O     O_R   0.909140 0.398170 0.896710 -0.503521
O8    O     O_R   0.186190 0.363460 0.918830 -0.509437
O9    O     O_R   0.401670 0.173200 0.913310 -0.527106
O10   O     O_R   0.356120 0.936130 0.900470 -0.518267
O11   O     O_3   0.162740 0.163010 0.985530 -0.292120
O12   O     O_R   0.297880 0.469080 0.560050 -0.508665
O13   O     O_R   0.258650 0.745120 0.411470 -0.512797
O14   O     O_R   0.297070 0.467240 0.395960 -0.496268
O15   O     O_R   0.488830 0.252610 0.387790 -0.521326
O16   O     O_R   0.724400 0.302390 0.420980 -0.503362
O17   O     O_R   0.752100 0.501210 0.612190 -0.524922
O18   O     O_R   0.478040 0.729440 0.600970 -0.519746
O19   O     O_R   0.259530 0.747110 0.588490 -0.504938
O20   O     O_R   0.489720 0.254590 0.564810 -0.537433
O21   O     O_R   0.725220 0.304230 0.585080 -0.497518
O22   O     O_3   0.500010 0.500010 0.500020 -0.261785
O23   O     O_R   0.171830 0.913880 0.057510 -0.517705
O24   O     O_R   0.940690 0.186050 0.054730 -0.499494
O25   O     O_R   0.920470 0.405720 0.075010 -0.516873
O26   O     O_R   0.196690 0.370460 0.084120 -0.498053

loop_
_geom_bond_atom_site_label_1
_geom_bond_atom_site_label_2
_ccdc_geom_bond_type
C28   O19   A    
C15   H23   S    
C11   C18   S    
C40   H19   S    
C46   H7    S    
C34   C37   S    
C13   C32   S    
C35   C36   T    
C34   C42   S    
Cr1   O1    S    
Cr5   O7    S    
C6    C9    S    
Cr4   O6    S    
C7    C8    S    
C41   H15   S    
C2    C46   S    
C15   C19   S    
Cr2   O19   S    
C12   C23   S    
C40   H18   S    
C28   O18   A    
C3    C7    S    
C38   C39   S    
C25   O24   A    
Cr5   O25   S    
C31   O5    A    
C18   C19   S    
Cr1   O4    S    
C6    H12   S    
C12   C37   S    
C26   O26   A    
Cr3   O20   S    
C32   O12   A    
C38   H14   S    
C8    C9    S    
Cr2   O13   S    
C17   H24   S    
Cr1   O18   S    
Cr3   O16   S    
C30   O8    A    
C10   C19   S    
C29   O7    A    
C12   H1    S    
C4    C35   S    
C9    C46   S    
C1    O13   A    
Cr2   O12   S    
C13   C14   S    
Cr6   O11   S    
Cr2   O22   S    
C33   O17   A    
Cr5   O8    S    
Cr4   O5    S    
C41   H16   S    
C39   H9    S    
Cr6   O10   S    
C29   O6    A    
C10   C14   S    
C7    H20   S    
C25   O25   A    
Cr5   O26   S    
C21   C29   S    
C27   O23   A    
C26   O2    A    
Cr1   O22   S    
C1    C3    S    
C42   C45   S    
C33   O21   A    
C43   C44   S    
C42   H3    S    
Cr3   O21   S    
Cr4   O11   S    
C38   H13   S    
C27   O3    A    
C44   H5    S    
C23   C34   S    
C17   C18   S    
C20   C33   S    
C26   C36   S    
C40   C41   S    
C34   H2    S    
C16   C23   S    
C22   C24   T    
C42   C43   S    
C37   C45   S    
C25   C45   S    
C44   C45   S    
C9    C27   S    
C41   H17   S    
C5    C46   S    
C15   C17   S    
C39   H10   S    
C31   O10   A    
C5    H8    S    
C23   C43   S    
Cr6   O9    S    
C2    C8    S    
C3    C5    S    
C11   H22   S    
C2    H6    S    
Cr4   O24   S    
C6    C7    S    
C39   H11   S    
C37   H26   S    
C16   O16   A    
C13   C17   S    
C10   C38   S    
C16   O1    A    
C2    C3    S    
C1    O4    A    
C24   C31   S    
C12   C44   S    
Cr5   O11   S    
Cr3   O22   S    
C11   C13   S    
C5    C6    S    
C18   H25   S    
C8    H21   S    
C32   O20   A    
Cr6   O3    S    
C10   C11   S    
C14   C40   S    
C4    O15   A    
C43   H4    S    
C20   C21   T    
Cr4   O23   S    
Cr2   O14   S    
Cr1   O17   S    
C14   C15   S    
C22   C28   S    
Cr3   O15   S    
C30   O9    A    
Cr6   O2    S    
C19   C30   S    
C4    O14   A    
