data_mof_unit_2224.cif
_audit_creation_date              2013-03-05T16:26:37-0500
_audit_creation_method            fapswitch 2.2
_symmetry_space_group_name_H-M    P1
_symmetry_Int_Tables_number       1
_space_group_crystal_system       triclinic
_cell_length_a                    19.520294
_cell_length_b                    18.125369
_cell_length_c                    10.761497
_cell_angle_alpha                 85.162668
_cell_angle_beta                  91.502181
_cell_angle_gamma                 89.032182
_cell_volume                      3791.98917954

loop_
_atom_site_label
_atom_site_type_symbol
_atom_site_description
_atom_site_fract_x
_atom_site_fract_y
_atom_site_fract_z
_atom_type_partial_charge
O1    O     O_R   0.400190 0.561980 0.499980 -0.567043
O2    O     O_R   0.599810 0.438020 0.500020 -0.566839
O3    O     O_R   0.599810 0.561980 0.500020 -0.543758
O4    O     O_R   0.400190 0.438020 0.499980 -0.543746
C1    C     C_R   0.367524 0.500353 0.505588 0.918587
C2    C     C_R   0.632476 0.499648 0.494381 0.918566
O5    O     O_R   0.500000 0.561950 0.319660 -0.538852
O6    O     O_R   0.500000 0.438050 0.680340 -0.538846
O7    O     O_R   0.500000 0.561950 0.680340 -0.606123
O8    O     O_R   0.500000 0.438050 0.319660 -0.606054
C3    C     C_R   0.495280 0.503823 0.260301 0.843105
C4    C     C_R   0.504725 0.496176 0.739697 0.843158
Cu1   Cu    Cu3+1 0.500000 0.573360 0.500000 1.078456
Cu2   Cu    Cu3+1 0.500000 0.426640 0.500000 1.078550
C5    C     C_R   0.541226 0.636529 0.083124 0.407259
C6    C     C_R   0.458812 0.363455 0.916885 0.407388
C7    C     C_R   0.606727 0.579743 0.880954 0.348369
C8    C     C_R   0.393299 0.420237 0.119045 0.348335
C9    C     C_R   0.594779 0.674778 0.023828 -0.192381
C10   C     C_R   0.405268 0.325194 0.976190 -0.192288
C11   C     C_R   0.628919 0.645232 0.927679 -0.266418
C12   C     C_R   0.371121 0.354739 0.072334 -0.266374
C13   C     C_R   0.549325 0.543096 0.935056 -0.076816
C14   C     C_R   0.450696 0.456892 0.064941 -0.076820
C15   C     C_R   0.525229 0.564307 0.049537 -0.095033
C16   C     C_R   0.474795 0.435682 0.950463 -0.094992
C17   C     C_R   0.515005 0.486710 0.877378 -0.033054
C18   C     C_R   0.485011 0.513284 0.122618 -0.033034
C19   C     C_R   0.747520 0.434365 0.527731 0.360793
C20   C     C_R   0.252491 0.565614 0.472066 0.360826
C21   C     C_R   0.256779 0.435774 0.555088 0.336083
C22   C     C_R   0.743220 0.564273 0.445065 0.336206
C23   C     C_R   0.818794 0.436799 0.533568 -0.190143
C24   C     C_R   0.181215 0.563213 0.466369 -0.190182
C25   C     C_R   0.185147 0.434920 0.547696 -0.193859
C26   C     C_R   0.814850 0.565146 0.452546 -0.193808
H1    H     H_    0.847865 0.386697 0.563686 0.175579
H2    H     H_    0.152158 0.613305 0.436132 0.175452
H3    H     H_    0.158866 0.384795 0.578775 0.179743
H4    H     H_    0.841128 0.615296 0.421603 0.179754
C27   C     C_R   0.852776 0.501789 0.496781 -0.029053
C28   C     C_R   0.147223 0.498262 0.503366 -0.028977
C29   C     C_R   0.708317 0.498931 0.486820 -0.233635
C30   C     C_R   0.291686 0.501075 0.513133 -0.233659
C31   C     C_R   0.963279 0.533622 0.396485 -0.158373
C32   C     C_R   0.036714 0.466449 0.603695 -0.158374
C33   C     C_R   0.034612 0.531700 0.397339 -0.146241
C34   C     C_R   0.965380 0.468364 0.602835 -0.146214
H5    H     H_    0.935547 0.558655 0.314693 0.150985
H6    H     H_    0.064445 0.441415 0.685488 0.150969
H7    H     H_    0.060756 0.555808 0.316588 0.157761
H8    H     H_    0.939231 0.444246 0.683572 0.157813
C35   C     C_R   0.071835 0.498109 0.500942 0.136947
C36   C     C_R   0.928160 0.501959 0.499233 0.136885
C37   C     C_R   0.448779 0.725071 0.438992 0.256267
C38   C     C_R   0.551230 0.274931 0.560987 0.256553
C39   C     C_R   0.550522 0.716913 0.563556 0.147256
C40   C     C_R   0.449472 0.283085 0.436462 0.147142
C41   C     C_R   0.447510 0.802473 0.438547 -0.194684
C42   C     C_R   0.552501 0.197529 0.561432 -0.194676
C43   C     C_R   0.551325 0.794184 0.565435 -0.238881
C44   C     C_R   0.448672 0.205814 0.434582 -0.238933
C45   C     C_R   0.499462 0.838442 0.501858 0.074715
C46   C     C_R   0.500542 0.161558 0.498140 0.074724
N1    N     N_R   0.500000 0.683620 0.500000 -0.205215
N2    N     N_R   0.500000 0.316380 0.500000 -0.205180
C47   C     C_R   0.521161 0.955880 0.607305 -0.153891
C48   C     C_R   0.478845 0.044121 0.392692 -0.153886
C49   C     C_R   0.478568 0.966640 0.393659 -0.139094
C50   C     C_R   0.521439 0.033361 0.606338 -0.139093
C51   C     C_R   0.500304 0.078733 0.499007 0.117156
C52   C     C_R   0.499702 0.921267 0.500991 0.117160
H9    H     H_    0.328053 0.325287 0.112283 0.208156
H10   H     H_    0.671992 0.674677 0.887734 0.208179
H11   H     H_    0.390848 0.271039 0.950269 0.211385
H12   H     H_    0.609209 0.728928 0.049757 0.211413
N3    N     N_R   0.495925 0.677434 0.156354 0.128268
O9    O     O_R   0.516841 0.737633 0.202014 -0.373864
O10   O     O_R   0.430570 0.664276 0.154346 -0.313181
N4    N     N_R   0.504116 0.322558 0.843646 0.128253
O11   O     O_R   0.569467 0.335736 0.845628 -0.313329
O12   O     O_R   0.483211 0.262350 0.798002 -0.373928
N5    N     N_R   0.647323 0.547204 0.789197 0.096215
O13   O     O_R   0.689270 0.587924 0.722390 -0.391564
O14   O     O_R   0.653330 0.475535 0.790372 -0.323385
N6    N     N_R   0.352694 0.452777 0.210787 0.096212
O15   O     O_R   0.346678 0.524445 0.209590 -0.323097
O16   O     O_R   0.310748 0.412056 0.277598 -0.391589
N7    N     N_R   0.716401 0.364861 0.560134 0.123196
O17   O     O_R   0.697153 0.324767 0.471221 -0.370557
O18   O     O_R   0.724760 0.333649 0.672985 -0.301414
N8    N     N_R   0.283627 0.635054 0.439260 0.123112
O19   O     O_R   0.302560 0.675512 0.527876 -0.370765
O20   O     O_R   0.275577 0.665848 0.326077 -0.300677
N9    N     N_R   0.292749 0.371013 0.610860 0.140037
O21   O     O_R   0.336712 0.376846 0.702319 -0.366251
O22   O     O_R   0.273096 0.305476 0.586021 -0.331467
N10   N     N_R   0.707253 0.629062 0.389399 0.140044
O23   O     O_R   0.663331 0.623296 0.297851 -0.366156
O24   O     O_R   0.726872 0.694577 0.414437 -0.331486
H13   H     H_    0.409400 0.698210 0.388175 0.205724
H14   H     H_    0.590619 0.301794 0.611783 0.205610
H15   H     H_    0.590556 0.683606 0.613081 0.165825
H16   H     H_    0.409432 0.316390 0.386952 0.165813
H17   H     H_    0.405894 0.833742 0.389466 0.157438
H18   H     H_    0.594122 0.166261 0.610496 0.157439
H19   H     H_    0.592852 0.819002 0.614789 0.149938
H20   H     H_    0.407141 0.180993 0.385241 0.149926
H21   H     H_    0.536705 0.923045 0.692378 0.143377
H22   H     H_    0.463300 0.076957 0.307621 0.143383
H23   H     H_    0.462854 0.942273 0.309250 0.154868
H24   H     H_    0.537153 0.057729 0.690746 0.154878

loop_
_geom_bond_atom_site_label_1
_geom_bond_atom_site_label_2
_geom_bond_distance
_ccdc_geom_bond_type
C40   C44   1.402760 A    
C37   C41   1.402344 A    
N9    O21   1.301037 A    
C24   C28   1.394971 A    
O3    C2    1.294584 A    
C19   N7    1.428472 S    
Cu1   N1    1.998503 S    
N3    O9    1.301404 A    
C15   C18   1.422801 A    
O5    C3    1.280721 A    
C16   C17   1.422787 A    
C8    N6    1.440236 S    
C8    C14   1.424727 A    
C22   C26   1.398866 A    
C9    H12   1.082560 S    
C9    C11   1.385318 A    
C14   C16   1.411010 A    
C34   H8    1.083189 S    
C28   C35   1.471191 S    
N6    O16   1.301501 A    
C5    C15   1.424586 A    
C44   H20   1.082411 S    
C19   C23   1.392682 A    
C47   C52   1.408133 A    
C46   C51   1.500558 S    
C43   C45   1.407194 A    
C25   C28   1.397909 A    
O7    Cu1   1.934296 S    
C44   C46   1.407189 A    
C5    C9    1.401952 A    
C40   N2    1.363409 A    
C48   C49   1.403636 A    
C50   C51   1.408548 A    
C13   C17   1.409593 A    
N7    O18   1.300829 A    
O3    Cu1   1.955732 S    
C6    C10   1.401957 A    
C33   C35   1.403500 A    
N3    O10   1.301765 A    
C8    C12   1.398603 A    
Cu1   Cu2   2.659352 S    
C19   C29   1.419215 A    
C20   C30   1.419139 A    
C26   C27   1.397873 A    
O2    C2    1.293324 A    
O2    Cu2   1.962665 S    
C37   N1    1.360972 A    
C47   H21   1.082531 S    
C31   C33   1.392052 A    
C6    C16   1.424588 A    
C39   H15   1.080356 S    
C32   C34   1.392079 A    
C21   C30   1.422073 A    
C20   C24   1.392635 A    
C4    C17   1.485041 S    
C26   H4    1.083488 S    
C20   N8    1.428411 S    
O8    Cu2   1.934297 S    
N6    O15   1.301282 A    
O4    C1    1.294554 A    
C48   H22   1.082533 S    
C11   H10   1.082575 S    
C23   H1    1.083989 S    
C38   C42   1.402346 A    
C10   H11   1.082557 S    
C7    N5    1.440248 S    
C34   C36   1.403476 A    
C49   C52   1.408550 A    
C25   H3    1.083485 S    
N5    O13   1.301498 A    
C7    C13   1.424725 A    
C31   H5    1.083074 S    
O6    C4    1.280707 A    
N8    O20   1.300817 A    
Cu2   N2    1.998503 S    
C41   H17   1.082383 S    
C50   H24   1.082539 S    
N4    O12   1.301402 A    
N5    O14   1.301291 A    
C1    C30   1.484636 S    
C10   C12   1.385318 A    
C31   C36   1.402840 A    
N10   O24   1.301252 A    
C2    C29   1.484703 S    
O1    C1    1.293311 A    
O1    Cu1   1.962669 S    
C42   H18   1.082382 S    
C32   H6    1.083069 S    
O6    Cu2   1.968980 S    
C24   H2    1.083987 S    
C14   C18   1.409615 A    
C39   N1    1.363408 A    
N4    O11   1.301767 A    
C33   H7    1.083187 S    
N9    O22   1.301250 A    
C39   C43   1.402762 A    
C37   H13   1.078193 S    
C41   C45   1.406676 A    
C42   C46   1.406672 A    
C47   C50   1.403636 A    
C23   C27   1.394945 A    
C38   H14   1.078220 S    
C21   N9    1.436069 S    
C49   H23   1.082537 S    
C5    N3    1.437234 S    
C3    C18   1.485046 S    
C48   C51   1.408127 A    
C38   N2    1.360983 A    
C32   C35   1.402870 A    
N8    O19   1.300926 A    
C22   C29   1.422097 A    
C22   N10   1.436071 S    
C21   C25   1.398892 A    
C13   C15   1.411019 A    
O4    Cu2   1.955735 S    
C43   H19   1.082409 S    
O7    C4    1.304837 A    
C7    C11   1.398607 A    
C27   C36   1.471130 S    
O8    C3    1.304826 A    
O5    Cu1   1.968981 S    
C40   H16   1.080353 S    
C45   C52   1.500568 S    
N10   O23   1.301040 A    
C12   H9    1.082576 S    
C6    N4    1.437237 S    
N7    O17   1.300947 A    
