data_mof_unit_4485.cif
_audit_creation_date              2013-03-05T16:20:07-0500
_audit_creation_method            fapswitch 2.2
_symmetry_space_group_name_H-M    P1
_symmetry_Int_Tables_number       1
_space_group_crystal_system       triclinic
_cell_length_a                    8.6473
_cell_length_b                    18.961145
_cell_length_c                    26.658201
_cell_angle_alpha                 99.216015
_cell_angle_beta                  92.973033
_cell_angle_gamma                 87.23586
_cell_volume                      4305.18731866

loop_
_atom_site_label
_atom_site_type_symbol
_atom_site_description
_atom_site_fract_x
_atom_site_fract_y
_atom_site_fract_z
_atom_type_partial_charge
P1    P     P_3+3 0.929380 0.335110 0.452880 0.549866
O1    O     O_2   0.106080 0.324280 0.466820 -0.395183
O2    O     O_3   0.859130 0.413620 0.470620 -0.340751
O3    O     O_3   0.376230 0.370290 0.556910 -0.355407
O4    O     O_2   0.278525 0.241755 0.525487 -0.364899
O5    O     O_3   0.915406 0.294898 0.387394 -0.567843
O6    O     O_3   0.374009 0.265971 0.620126 -0.495557
H1    H     H_    0.574004 0.315741 0.650001 0.077853
C1    C     C_3   0.484565 0.254757 0.702967 -0.575429
H2    H     H_    0.432515 0.304858 0.723919 0.235983
H3    H     H_    0.401332 0.211602 0.701927 0.201306
P2    P     P_3+3 0.398530 0.559060 0.613740 0.564606
P3    P     P_3+3 0.950844 0.406098 0.647721 0.474977
O7    O     O_2   0.227190 0.537650 0.620070 -0.427343
O8    O     O_3   0.971110 0.406970 0.583250 -0.390271
O9    O     O_2   0.067536 0.460003 0.674756 -0.387780
O10   O     O_3   0.400971 0.653533 0.619041 -0.521483
O11   O     O_3   0.029984 0.324456 0.661757 -0.441194
C2    C     C_3   0.969056 0.269622 0.625346 0.557412
H4    H     H_    0.017337 0.270976 0.587699 0.099274
H5    H     H_    0.840452 0.274518 0.622141 -0.056190
C3    C     C_3   0.014127 0.197440 0.640991 -0.922827
H6    H     H_    0.142094 0.189335 0.642970 0.276131
H7    H     H_    0.968822 0.194517 0.678774 0.275267
C4    C     C_3   0.842911 0.644962 0.645557 0.125866
C5    C     C_3   0.934895 0.646036 0.697651 -0.840115
H8    H     H_    0.891241 0.603999 0.717374 0.193693
H9    H     H_    0.056987 0.629352 0.692756 0.217186
Ba1   Ba    Ba6+2 0.160810 0.465630 0.521640 1.653130
C6    C     C_3   0.866164 0.339497 0.351743 0.294743
H10   H     H_    0.769877 0.374896 0.365855 0.100795
C7    C     C_3   0.814772 0.295371 0.298886 -0.749413
H11   H     H_    0.805941 0.333047 0.270890 0.145998
C8    C     C_3   0.277849 0.693146 0.644130 0.252786
H12   H     H_    0.172726 0.663496 0.634469 0.095082
C9    C     C_3   0.308912 0.709913 0.702991 -0.673679
H13   H     H_    0.353784 0.661033 0.717331 0.265164
H14   H     H_    0.199327 0.724198 0.721177 0.149914
P4    P     P_3+3 0.880940 0.664900 0.547160 0.543306
O12   O     O_2   0.704230 0.675760 0.533200 -0.320985
O13   O     O_3   0.951180 0.586390 0.529420 -0.313179
O14   O     O_3   0.434080 0.629720 0.443130 -0.390137
O15   O     O_3   0.910841 0.687640 0.614626 -0.604203
P5    P     P_3+3 0.847283 0.586996 0.349837 0.509678
O16   O     O_3   0.351080 0.462080 0.440130 -0.332890
O17   O     O_3   0.839200 0.593040 0.416790 -0.354212
O18   O     O_2   0.704929 0.543910 0.328717 -0.356707
O19   O     O_3   0.807315 0.670488 0.328853 -0.510275
Ba2   Ba    Ba6+2 0.649380 0.534380 0.478400 1.668624
P6    P     P_3+3 0.412247 0.279292 0.558496 0.482859
C10   C     C_3   0.514967 0.264840 0.648705 0.240054
H15   H     H_    0.591787 0.219544 0.632115 0.034899
O20   O     O_3   0.459240 0.537930 0.559910 -0.285511
C11   C     C_3   0.335642 0.309916 0.378213 0.146272
H16   H     H_    0.249619 0.341794 0.401450 0.163213
C12   C     C_3   0.248320 0.249714 0.343351 -0.756820
H17   H     H_    0.152319 0.235106 0.364646 0.207551
H18   H     H_    0.201247 0.271013 0.309394 0.264743
P7    P     P_3+3 0.404369 0.445010 0.375929 0.484861
O21   O     O_2   0.583120 0.462390 0.379940 -0.387745
O22   O     O_3   0.407061 0.353404 0.348539 -0.577986
H19   H     H_    0.964512 0.154045 0.612686 0.200671
C13   C     C_3   0.890343 0.727690 0.357161 0.072176
H20   H     H_    0.916554 0.718034 0.396887 0.040030
C14   C     C_3   0.785291 0.797210 0.359825 -0.617061
H21   H     H_    0.673067 0.785256 0.373881 0.227605
P8    P     P_3+3 0.407414 0.721793 0.448628 0.454400
C15   C     C_3   0.445980 0.688450 0.349781 0.376430
H22   H     H_    0.377948 0.640321 0.345569 0.075299
O23   O     O_2   0.566486 0.751441 0.468621 -0.422814
O24   O     O_3   0.381489 0.741920 0.386327 -0.532912
H23   H     H_    0.564614 0.674131 0.362208 0.155024
H24   H     H_    0.321901 0.725841 0.284256 0.265033
C16   C     C_3   0.441564 0.716909 0.298346 -0.597603
H25   H     H_    0.490124 0.770265 0.304363 0.212733
C17   C     C_R   0.002487 0.054166 0.488318 0.029900
C18   C     C_R   0.082266 0.101798 0.464663 0.103049
C19   C     C_R   0.225004 0.080800 0.444512 -0.139855
C20   C     C_R   0.289807 0.013768 0.447978 -0.146642
C21   C     C_R   0.208751 0.962554 0.468658 0.057782
C22   C     C_R   0.064314 0.983319 0.489438 0.029115
C23   C     C_R   0.270324 0.891894 0.468266 -0.174968
C24   C     C_R   0.184745 0.838823 0.487155 -0.086202
C25   C     C_R   0.037271 0.860874 0.508309 -0.014619
C26   C     C_R   0.980672 0.933727 0.510314 0.005404
C27   C     C_R   0.235229 0.764671 0.484575 0.246846
C28   C     C_R   0.139590 0.717001 0.503046 -0.448563
C29   C     C_R   0.989695 0.735792 0.520129 0.199735
C30   C     C_R   0.941010 0.810010 0.524886 -0.037229
C31   C     C_R   0.859909 0.077102 0.509515 -0.005790
C32   C     C_R   0.802367 0.149136 0.509811 0.001299
C33   C     C_R   0.887762 0.197547 0.487226 -0.083820
C34   C     C_R   0.021474 0.170624 0.462015 -0.075854
H26   H     H_    0.288675 0.116630 0.426523 0.168929
H27   H     H_    0.404079 0.003213 0.433266 0.184132
H28   H     H_    0.185081 0.663591 0.504969 0.195953
H29   H     H_    0.083979 0.202849 0.441059 0.173839
C35   C     C_R   0.799100 0.835522 0.546436 -0.150129
C36   C     C_R   0.746860 0.907419 0.549794 0.089766
C37   C     C_R   0.835270 0.956484 0.530551 0.059057
C38   C     C_R   0.775707 0.028023 0.530435 0.039157
C39   C     C_R   0.603056 0.930360 0.570399 -0.204246
C40   C     C_R   0.544806 0.000546 0.570225 -0.200999
C41   C     C_R   0.629815 0.049849 0.550088 0.126690
C42   C     C_R   0.658203 0.171644 0.531310 0.004722
C43   C     C_R   0.571173 0.120465 0.549627 -0.249095
C44   C     C_R   0.606796 0.244648 0.534279 0.186788
C45   C     C_R   0.702823 0.293533 0.517201 -0.440670
C46   C     C_R   0.838283 0.271012 0.490634 0.333725
H30   H     H_    0.724758 0.799749 0.559978 0.180593
H31   H     H_    0.533369 0.893347 0.585476 0.190990
H32   H     H_    0.432350 0.016092 0.585543 0.148461
H33   H     H_    0.458527 0.135308 0.564809 0.169106
H34   H     H_    0.662878 0.348893 0.519893 0.163542
C47   C     C_R   0.357798 0.477524 0.179339 0.585075
O25   O     O_2   0.387885 0.424279 0.199058 -0.544141
N1    N     N_R   0.252826 0.529279 0.201311 -0.170617
C48   C     C_R   0.199487 0.583778 0.175139 0.550671
C49   C     C_2   0.059000 0.539091 0.267276 -0.059384
C50   C     C_3   0.021384 0.534054 0.321626 0.191996
C51   C     C_1   0.293865 0.505843 0.338892 0.158882
C52   C     C_2   0.332118 0.511921 0.292564 -0.232919
C53   C     C_2   0.208939 0.527753 0.253161 0.117374
C54   C     C_R   0.362378 0.535720 0.104702 -0.065782
C55   C     C_R   0.426795 0.484360 0.133479 -0.112032
C56   C     C_R   0.560229 0.442731 0.116383 -0.122282
C57   C     C_R   0.247431 0.585371 0.125492 -0.069597
C58   C     C_2   0.165338 0.539938 0.356182 -0.288869
H35   H     H_    0.451702 0.502297 0.282465 0.240935
C59   C     C_2   0.623703 0.457610 0.639390 -0.376190
C60   C     C_R   0.544916 0.475835 0.981023 0.067110
C61   C     C_R   0.411103 0.591742 0.977589 0.059137
C62   C     C_R   0.498028 0.531777 0.953767 0.106827
C63   C     C_R   0.605614 0.411372 0.953973 -0.164709
C64   C     C_R   0.633895 0.405138 0.902594 -0.050964
C65   C     C_R   0.603974 0.463417 0.876561 -0.056704
C66   C     C_R   0.537858 0.527369 0.902292 -0.067484
C67   C     C_R   0.509590 0.586378 0.876598 -0.091097
C68   C     C_R   0.549505 0.580588 0.825232 0.588770
N2    N     N_R   0.608774 0.516408 0.799593 -0.178811
C69   C     C_R   0.633666 0.457948 0.824819 0.537585
C70   C     C_2   0.760617 0.473394 0.726131 -0.146212
C71   C     C_3   0.752603 0.430313 0.673737 0.126831
C72   C     C_1   0.515905 0.506538 0.658244 0.255688
C73   C     C_2   0.494604 0.516198 0.708561 -0.201792
C74   C     C_2   0.630608 0.507285 0.744974 0.091384
O26   O     O_2   0.678713 0.400325 0.801813 -0.551421
C75   C     C_R   0.523407 0.484754 0.034090 0.002685
C76   C     C_R   0.411716 0.536856 0.054939 0.104127
C77   C     C_R   0.347423 0.588885 0.025736 -0.025161
C78   C     C_R   0.611539 0.444541 0.067068 -0.188663
H36   H     H_    0.858601 0.463771 0.751675 0.180193
H37   H     H_    0.680474 0.354453 0.883408 0.178672
H38   H     H_    0.626464 0.364245 0.971810 0.150686
O27   O     O_2   0.111210 0.631094 0.195066 -0.539669
C79   C     C_R   0.179381 0.634375 0.095922 -0.074593
H39   H     H_    0.965605 0.547056 0.239726 0.191915
H40   H     H_    0.084388 0.669748 0.110740 0.196289
C80   C     C_R   0.394876 0.652313 0.952715 -0.128542
C81   C     C_R   0.442913 0.649637 0.903090 -0.043660
O28   O     O_2   0.530342 0.632311 0.803244 -0.514302
C82   C     C_R   0.221237 0.634277 0.045754 -0.129008
H41   H     H_    0.348228 0.702907 0.971636 0.135240
H42   H     H_    0.425048 0.697012 0.885227 0.175620
H43   H     H_    0.610952 0.430545 0.600553 0.165058
C83   C     C_2   0.918156 0.715806 0.734077 1.203033
O29   O     O_2   0.933348 0.772929 0.719477 -0.589447
O30   O     O_R   0.881594 0.714415 0.784360 -0.742855
H44   H     H_    0.871589 0.764040 0.805036 0.339146
C84   C     C_2   0.995842 0.384172 0.344195 0.824962
O31   O     O_2   0.049984 0.423198 0.380893 -0.610661
O32   O     O_R   0.055968 0.379936 0.295934 -0.859763
H45   H     H_    0.165081 0.395853 0.296339 0.349744
C85   C     C_2   0.924410 0.233386 0.279143 1.171336
O33   O     O_2   0.942448 0.182194 0.301758 -0.532189
O34   O     O_R   0.000736 0.231761 0.233917 -0.703316
H46   H     H_    0.976298 0.275333 0.216935 0.332906
C86   C     C_2   0.657103 0.267247 0.296960 1.174675
O35   O     O_2   0.630938 0.221755 0.322593 -0.605503
O36   O     O_R   0.545316 0.288876 0.262037 -0.718942
H47   H     H_    0.445312 0.263109 0.260471 0.368931
C87   C     C_2   0.248363 0.761668 0.622614 1.037255
O37   O     O_2   0.341697 0.780831 0.595121 -0.629884
O38   O     O_R   0.116571 0.804806 0.635937 -0.740236
H48   H     H_    0.112256 0.850733 0.620905 0.326623
C88   C     C_2   0.408976 0.772291 0.723791 1.251533
O39   O     O_2   0.519364 0.763808 0.753073 -0.563681
O40   O     O_R   0.368747 0.840790 0.713074 -0.776304
H49   H     H_    0.443505 0.877893 0.729967 0.330634
C89   C     C_2   0.632282 0.234822 0.730432 1.062822
O41   O     O_2   0.741200 0.274507 0.735431 -0.589225
O42   O     O_R   0.644967 0.170389 0.749741 -0.773103
H50   H     H_    0.750059 0.162561 0.767123 0.336094
C90   C     C_2   0.449886 0.279186 0.413765 1.011775
O43   O     O_2   0.412880 0.231999 0.436208 -0.657241
O44   O     O_R   0.599639 0.301735 0.420304 -0.771193
H51   H     H_    0.604026 0.354696 0.420948 0.300936
C91   C     C_2   0.334473 0.179842 0.325781 0.781397
H52   H     H_    0.398325 0.150968 0.352640 0.050429
O45   O     O_2   0.327792 0.153007 0.280965 -0.497807
C92   C     C_2   0.042802 0.732820 0.332255 1.095126
O46   O     O_2   0.112032 0.677300 0.316572 -0.660217
O47   O     O_R   0.109073 0.796542 0.325271 -0.737056
H53   H     H_    0.044711 0.842271 0.332303 0.289492
C93   C     C_2   0.846906 0.857016 0.398452 0.530545
H54   H     H_    0.966674 0.855189 0.411747 0.004222
O48   O     O_2   0.764752 0.909636 0.413196 -0.524049
C94   C     C_2   0.753603 0.822423 0.308749 1.084684
O49   O     O_2   0.675803 0.877580 0.306553 -0.530161
O50   O     O_R   0.808201 0.782237 0.264014 -0.743039
H55   H     H_    0.777478 0.804775 0.232759 0.359211
C95   C     C_2   0.519451 0.670692 0.254951 1.108652
O51   O     O_2   0.569468 0.610425 0.258387 -0.607787
O52   O     O_R   0.528993 0.697082 0.209232 -0.749981
H56   H     H_    0.580576 0.661331 0.182112 0.334248
C96   C     C_2   0.425512 0.877922 0.447793 0.686893
H57   H     H_    0.525493 0.875307 0.473337 0.037566
O53   O     O_2   0.443167 0.876313 0.402452 -0.501978
C97   C     C_2   0.659920 0.407627 0.153007 1.149017
O54   O     O_2   0.678830 0.342550 0.146735 -0.548747
O55   O     O_R   0.728785 0.449744 0.195347 -0.790755
H58   H     H_    0.796380 0.420583 0.217255 0.325010
C98   C     C_2   0.771052 0.416882 0.053693 0.981086
O56   O     O_2   0.815240 0.356395 0.059531 -0.583758
O57   O     O_R   0.869535 0.460398 0.033410 -0.779701
H59   H     H_    0.974517 0.436121 0.025602 0.336248
C99   C     C_2   0.345506 0.500843 0.727656 1.075092
O58   O     O_2   0.319964 0.439384 0.732229 -0.604233
O59   O     O_R   0.242338 0.556866 0.745841 -0.811785
H60   H     H_    0.149684 0.540031 0.761778 0.335190
C100  C     C_2   0.112504 0.672956 0.013697 1.010457
O60   O     O_2   0.058382 0.732227 0.030749 -0.603584
O61   O     O_R   0.066912 0.640291 0.964689 -0.778302
H61   H     H_    0.991219 0.671562 0.946810 0.339572
C101  C     C_2   0.159063 0.585432 0.405502 0.788796
H62   H     H_    0.153062 0.642653 0.407136 -0.160534
O62   O     O_2   0.139570 0.559749 0.443525 -0.509881
C102  C     C_2   0.686517 0.675732 0.659268 1.137613
O63   O     O_2   0.616494 0.647581 0.688614 -0.660814
O64   O     O_R   0.629874 0.741436 0.646751 -0.745158
H63   H     H_    0.711575 0.772247 0.636939 0.327409
C103  C     C_2   0.843223 0.569145 0.620097 0.452801
H64   H     H_    0.946725 0.537232 0.623078 0.138947
O65   O     O_2   0.744360 0.548040 0.588023 -0.549375

loop_
_geom_bond_atom_site_label_1
_geom_bond_atom_site_label_2
_geom_bond_distance
_ccdc_geom_bond_type
P7    C51   1.838228 S    
C90   O44   1.377031 S    
O47   H53   1.004459 S    
C13   C14   1.558553 S    
C62   C66   1.420603 A    
C89   O41   1.222405 D    
C11   C90   1.495992 S    
O10   C8    1.407421 S    
P2    Ba1   3.438980 S    
N1    C48   1.385269 Am   
C61   C77   1.432505 A    
H24   C16   1.097110 S    
C32   C42   1.417449 A    
C98   O56   1.222426 D    
C1    C10   1.526765 S    
C75   C78   1.422757 A    
C28   C29   1.406832 A    
C60   C63   1.408739 A    
C4    O15   1.410538 S    
C41   C43   1.410409 A    
C86   O35   1.218953 D    
O2    Ba2   2.839379 S    
C64   C65   1.403251 A    
P4    O13   1.589245 S    
C14   C94   1.521428 S    
Ba1   Ba2   4.732307 S    
C18   C19   1.386887 A    
O38   H48   1.013610 S    
O52   H56   1.014147 S    
C42   C44   1.424497 A    
O17   Ba2   2.769447 S    
C5    H8    1.112703 S    
C65   C69   1.402723 A    
Ba2   O21   2.802277 S    
C84   O32   1.401517 S    
P3    O11   1.749723 S    
O1    Ba1   2.887721 S    
C35   H30   1.071559 S    
C98   O57   1.398875 S    
C81   H42   1.083310 S    
C9    H13   1.104130 S    
C2    H5    1.111472 S    
C96   O53   1.221525 D    
O11   C2    1.406153 S    
C6    H10   1.087663 S    
C21   C22   1.405820 A    
C33   C46   1.427475 A    
C3    H19   1.109977 S    
C84   O31   1.215656 D    
P5    C50   1.889363 S    
C15   C16   1.549955 S    
O12   Ba2   2.888207 S    
C45   C46   1.413138 A    
C8    H12   1.089670 S    
C92   O46   1.210624 D    
C70   H36   1.086254 S    
O2    Ba1   3.013016 S    
C70   C74   1.347100 D    
C87   O37   1.222905 D    
C6    C84   1.478225 S    
P1    C46   1.917559 S    
C85   O33   1.221917 D    
O50   H55   1.013695 S    
C87   O38   1.397491 S    
C5    C83   1.516124 S    
C99   O58   1.222605 D    
C12   H18   1.100590 S    
C61   C62   1.413096 A    
C47   N1    1.383903 Am   
C97   O54   1.222525 D    
P2    O10   1.775240 S    
C101  O62   1.215206 D    
O36   H47   1.009328 S    
C103  O65   1.212287 D    
C101  H62   1.077688 S    
O8    Ba1   2.768776 S    
C91   H52   1.082911 S    
C80   H41   1.079911 S    
C59   C72   1.340930 D    
O61   H61   1.013838 S    
C52   H35   1.081682 S    
C9    C88   1.514589 S    
O3    Ba1   2.767674 S    
C31   C32   1.429904 A    
P5    O18   1.541908 D    
C49   H39   1.084753 S    
C29   C30   1.436985 A    
C58   C101  1.454418 S    
C90   O43   1.216482 D    
C66   C67   1.408030 A    
C79   C82   1.403188 A    
P7    O21   1.590586 D    
C13   H20   1.113367 S    
C83   O30   1.397704 S    
C92   O47   1.404555 S    
C7    C86   1.483236 S    
C39   H31   1.083274 S    
C55   C56   1.419009 A    
P4    C29   1.926922 S    
C48   O27   1.221960 D    
O13   Ba2   3.013904 S    
P5    O17   1.774907 S    
C22   C26   1.411397 A    
C73   C74   1.506304 S    
C12   C91   1.507257 S    
C17   C18   1.406041 A    
C93   O48   1.220491 D    
C91   O45   1.220858 D    
C77   C82   1.427909 A    
C102  O64   1.400242 S    
P7    O22   1.772651 S    
C61   C80   1.413219 A    
C16   H25   1.098897 S    
C43   H33   1.081583 S    
P1    O5    1.790026 S    
C68   O28   1.221180 D    
C2    C3    1.521034 S    
C25   C26   1.436822 A    
C51   C58   1.324388 D    
C21   C23   1.416305 A    
N2    C74   1.459538 S    
C32   C33   1.427889 A    
C19   C20   1.378954 A    
C94   O49   1.223715 D    
O19   C13   1.420590 S    
P4    O15   1.789298 S    
C4    C5    1.561927 S    
C93   H54   1.077880 S    
C7    C85   1.517682 S    
O5    C6    1.407262 S    
P2    C72   1.893547 S    
C16   C95   1.502991 S    
C40   H32   1.083641 S    
P1    O2    1.589275 S    
C57   C79   1.401692 A    
C45   H34   1.081551 S    
C31   C38   1.407448 A    
C20   H27   1.079947 S    
O59   H60   1.013780 S    
C97   O55   1.397778 S    
O55   H58   1.012584 S    
C73   C99   1.468984 S    
C56   C78   1.415201 A    
C80   C81   1.399525 A    
C100  O60   1.223272 D    
O16   Ba2   3.032164 S    
C15   H23   1.096603 S    
C96   H57   1.076683 S    
C28   H28   1.076606 S    
C36   C39   1.406917 A    
P1    Ba1   3.483347 S    
O57   H59   1.013876 S    
C60   C75   1.418477 A    
C100  O61   1.398893 S    
N2    C69   1.388547 Am   
C49   C50   1.519996 S    
C59   C71   1.529387 S    
C1    H3    1.111674 S    
H1    C10   1.108290 S    
C51   C52   1.318945 D    
C65   C66   1.405407 A    
C54   C57   1.407562 A    
C23   C96   1.471140 S    
C4    C103  1.488143 S    
O30   H44   1.013741 S    
C99   O59   1.395627 S    
C95   O52   1.397282 S    
C23   C24   1.444511 A    
C38   C41   1.409278 A    
P3    O8    1.739402 S    
P6    C44   1.883805 S    
C3    H7    1.109949 S    
O4    P6    1.546357 D    
C24   C25   1.437611 A    
C25   C30   1.438890 A    
C44   C45   1.415841 A    
C88   O40   1.398042 S    
C1    C89   1.501882 S    
C34   H29   1.072429 S    
P4    O12   1.565595 D    
O32   H45   1.003401 S    
C18   C34   1.394224 A    
C17   C31   1.403690 A    
C1    H2    1.109903 S    
C11   H16   1.089454 S    
C12   H17   1.099807 S    
C102  O63   1.215598 D    
O16   P7    1.770937 S    
P8    C27   1.891544 S    
C89   O42   1.397219 S    
C13   C92   1.520606 S    
O64   H63   1.008346 S    
Ba1   O13   2.838752 S    
C27   C28   1.414335 A    
C15   H22   1.097078 S    
P2    O20   1.539181 S    
O6    P6    1.752086 S    
P2    O7    1.579363 D    
O44   H51   1.004109 S    
C60   C62   1.411503 A    
C47   C55   1.414656 A    
C17   C22   1.425913 A    
C86   O36   1.400028 S    
C68   N2    1.385816 Am   
P4    Ba2   3.484002 S    
C11   C12   1.551594 S    
C52   C53   1.510682 S    
C63   C64   1.389193 A    
C11   O22   1.412732 S    
C49   C53   1.366268 D    
C42   C43   1.416627 A    
C5    H9    1.095723 S    
C64   H37   1.083535 S    
C36   C37   1.405452 A    
C30   C35   1.413068 A    
C72   C73   1.345505 D    
P8    O23   1.547510 D    
C7    H11   1.110300 S    
C2    H4    1.111286 S    
C79   H40   1.084583 S    
N1    C53   1.457308 S    
C103  H64   1.062693 S    
O6    C10   1.404629 S    
C10   H15   1.108284 S    
C14   H21   1.104381 S    
C26   C37   1.414776 A    
C76   C77   1.427085 A    
O42   H50   1.013885 S    
C6    C7    1.573632 S    
C59   H43   1.082046 S    
C50   C58   1.507356 S    
O14   P8    1.733558 S    
C83   O29   1.223077 D    
Ba1   O20   3.033126 S    
C4    C102  1.486541 S    
C19   H26   1.078189 S    
C15   O24   1.404820 S    
Ba2   O20   2.782541 S    
P1    O1    1.565330 D    
C9    H14   1.089602 S    
C33   C34   1.401076 A    
C8    C9    1.562094 S    
C78   C98   1.492035 S    
C8    C87   1.507875 S    
C82   C100  1.484303 S    
P8    O24   1.763630 S    
C75   C76   1.416142 A    
P3    C71   1.891000 S    
C39   C40   1.400655 A    
C85   O34   1.399564 S    
C67   C68   1.415432 A    
C69   O26   1.220950 D    
O14   Ba2   2.767028 S    
O34   H46   1.012534 S    
C20   C21   1.419661 A    
C67   C81   1.405029 A    
C24   C27   1.443984 A    
C14   C93   1.502492 S    
C95   O51   1.217794 D    
C94   O50   1.399396 S    
C35   C36   1.405776 A    
C48   C57   1.412580 A    
P3    O9    1.539601 D    
O3    P6    1.745290 S    
C40   C41   1.403715 A    
C70   C71   1.500951 S    
C3    H6    1.109526 S    
O40   H49   1.013820 S    
C37   C38   1.427957 A    
O7    Ba1   2.801979 S    
C47   O25   1.222192 D    
C88   O39   1.222513 D    
C63   H38   1.081099 S    
Ba1   O16   2.783252 S    
C56   C97   1.484898 S    
P5    O19   1.774665 S    
C54   C76   1.418124 A    
C54   C55   1.410610 A    
