data_mof_unit_4036.cif
_audit_creation_date              2012-12-10T20:36:33-0500
_audit_creation_method            fapswitch 2.2
_symmetry_space_group_name_H-M    P1
_symmetry_Int_Tables_number       1
_space_group_crystal_system       triclinic
_cell_length_a                    10.511947
_cell_length_b                    10.639271
_cell_length_c                    9.889773
_cell_angle_alpha                 89.730606
_cell_angle_beta                  90.25636
_cell_angle_gamma                 90.384184
_cell_volume                      1106.01879463

loop_
_atom_site_label
_atom_site_type_symbol
_atom_type_description
_atom_site_fract_x
_atom_site_fract_y
_atom_site_fract_z
_atom_type_partial_charge
C1    C     C_R   0.504637 0.259922 0.500308 0.912483
C2    C     C_3   0.958010 0.611688 0.451202 -0.247317
C3    C     C_3   0.039737 0.517512 0.371122 -0.217153
C4    C     C_3   0.122349 0.500572 0.498280 -0.031791
C5    C     C_R   0.516319 0.062926 0.622914 0.143102
C6    C     C_R   0.528878 0.128811 0.502309 -0.206953
C7    C     C_R   0.574859 0.067733 0.387206 -0.189813
C8    C     C_R   0.584677 0.937507 0.387530 0.417159
C9    C     C_R   0.539253 0.870812 0.502263 -0.249969
C10   C     C_R   0.520018 0.935141 0.622695 0.099057
C11   C     C_3   0.416214 0.923916 0.725182 -0.444734
C12   C     C_R   0.257364 0.500332 0.499520 0.877243
C13   C     C_3   0.412746 0.066233 0.725383 -0.477783
C14   C     C_R   0.409080 0.435268 0.071521 0.187240
C15   C     C_R   0.595266 0.556212 0.071963 -0.083005
C16   C     C_R   0.594894 0.556864 0.928199 -0.133042
C17   C     C_R   0.410724 0.431654 0.929021 0.191413
C18   C     C_3   0.269283 0.448756 0.923191 -0.083776
C19   C     C_3   0.270024 0.459554 0.076742 -0.501122
C20   C     C_R   0.510096 0.739671 0.499821 0.876031
C21   C     C_R   0.742481 0.500103 0.500431 0.888501
C22   C     C_3   0.041794 0.389475 0.548883 -0.277430
C23   C     C_3   0.957711 0.408872 0.424007 0.491496
C24   C     C_3   0.877219 0.501024 0.501567 0.010507
C25   C     C_3   0.960122 0.484420 0.628169 -0.204440
C26   C     C_3   0.043527 0.595286 0.577789 -0.144677
H1    H     H_    0.450647 0.883241 0.822316 0.217058
H2    H     H_    0.322729 0.105291 0.683931 0.193447
H3    H     H_    0.446440 0.107902 0.821968 0.217328
H4    H     H_    0.670837 0.604064 0.126062 0.152936
H5    H     H_    0.669936 0.605500 0.874282 0.151962
H6    H     H_    0.242858 0.538322 0.872069 0.156786
H7    H     H_    0.249833 0.556633 0.111443 0.184985
H8    H     H_    0.218094 0.385836 0.133946 0.210858
H9    H     H_    0.078347 0.297467 0.584563 0.131861
H10   H     H_    0.923158 0.472183 0.732412 0.153077
H11   H     H_    0.083921 0.671851 0.641041 0.134773
H12   H     H_    0.919233 0.701816 0.412440 0.144396
H13   H     H_    0.073165 0.529964 0.265844 0.145716
H14   H     H_    0.599274 0.119869 0.296449 0.201237
H15   H     H_    0.328006 0.880102 0.683731 0.193998
N1    N     N_R   0.499140 0.499140 0.142800 -0.110089
N2    N     N_R   0.499140 0.499180 0.857150 -0.126859
O1    O     O_R   0.500020 0.316790 0.614690 -0.613560
O2    O     O_R   0.500000 0.316760 0.385350 -0.614870
O3    O     O_R   0.313960 0.499990 0.614650 -0.639562
O4    O     O_R   0.313940 0.499950 0.385310 -0.624101
O5    O     O_R   0.500000 0.683240 0.614650 -0.614222
O6    O     O_R   0.499980 0.683210 0.385310 -0.601605
O7    O     O_R   0.686060 0.500050 0.614690 -0.638009
O8    O     O_R   0.686040 0.500010 0.385350 -0.607478
Zn1   Zn    Zn3+2 0.500010 0.500020 0.653130 0.934741
Zn2   Zn    Zn3+2 0.499990 0.499980 0.346870 0.964408
O9    O     O_3   0.906991 0.312298 0.344500 -0.769577
H16   H     H_    0.981491 0.270092 0.304250 0.320282
C27   C     C_3   0.197158 0.334039 0.864047 -0.335955
C28   C     C_3   0.205136 0.211399 0.945796 -0.875592
H17   H     H_    0.303612 0.193716 0.981386 0.260158
H18   H     H_    0.140133 0.213908 0.033827 0.254650
H19   H     H_    0.174065 0.131589 0.881429 0.248015
H20   H     H_    0.095299 0.358839 0.852873 0.206642
H21   H     H_    0.234875 0.315824 0.761509 0.219168
O10   O     O_3   0.632088 0.880272 0.273804 -0.757686
H22   H     H_    0.675414 0.802180 0.302754 0.329456

loop_
_geom_bond_atom_site_label_1
_geom_bond_atom_site_label_2
_ccdc_geom_bond_type
O7    Zn1   S    
C23   C24   S    
C17   N2    A    
C26   H11   S    
C20   O6    A    
C27   H20   S    
C11   H1    S    
C4    C12   S    
C4    C22   S    
C9    C10   A    
C2    H12   S    
C9    C20   S    
C4    C26   S    
C14   C17   A    
C18   C27   S    
C14   N1    A    
C1    O1    A    
C5    C13   S    
O1    Zn1   S    
C17   C18   S    
C3    H13   S    
C5    C10   A    
C13   H2    S    
C27   C28   S    
C16   H5    S    
C22   H9    S    
C11   C13   S    
C16   N2    A    
C1    O2    A    
C28   H17   S    
C20   O5    A    
C23   O9    S    
C12   O4    A    
O6    Zn2   S    
O4    Zn2   S    
C13   H3    S    
C21   O7    A    
C11   H15   S    
C6    C7    A    
C2    C3    S    
C22   C23   S    
N1    Zn2   S    
C2    C24   S    
C5    C6    A    
C27   H21   S    
N2    Zn1   S    
C28   H18   S    
C18   H6    S    
C10   C11   S    
C25   H10   S    
O2    Zn2   S    
O10   H22   S    
O3    Zn1   S    
C21   O8    A    
C24   C25   S    
C22   C25   S    
C15   H4    S    
C2    C26   S    
C7    C8    A    
C19   H7    S    
C21   C24   S    
C1    C6    S    
O9    H16   S    
C18   C19   S    
C28   H19   S    
C8    O10   S    
C25   C26   S    
O5    Zn1   S    
C7    H14   S    
C3    C23   S    
C14   C19   S    
C19   H8    S    
C15   C16   A    
C3    C4    S    
C15   N1    A    
C8    C9    A    
O8    Zn2   S    
C12   O3    A    
