data_mof_unit_24.cif
_audit_creation_date              2012-12-10T17:32:59-0500
_audit_creation_method            fapswitch 2.2
_symmetry_space_group_name_H-M    P1
_symmetry_Int_Tables_number       1
_space_group_crystal_system       triclinic
_cell_length_a                    12.373598
_cell_length_b                    13.194093
_cell_length_c                    14.177086
_cell_angle_alpha                 93.582311
_cell_angle_beta                  107.458204
_cell_angle_gamma                 117.310546
_cell_volume                      1906.33314295

loop_
_atom_site_label
_atom_site_type_symbol
_atom_type_description
_atom_site_fract_x
_atom_site_fract_y
_atom_site_fract_z
_atom_type_partial_charge
C1    C     C_R   0.649899 0.714386 0.506725 0.810743
C2    C     C_R   0.829947 0.470994 0.916311 0.083627
C3    C     C_R   0.776234 0.478248 0.989748 0.133920
C4    C     C_R   0.936287 0.448951 0.942223 0.073967
C5    C     C_R   0.999458 0.453425 0.045562 0.059019
C6    C     C_R   0.943006 0.461548 0.116781 -0.205056
C7    C     C_R   0.831883 0.471580 0.088555 -0.189346
C8    C     C_R   0.978127 0.417835 0.868210 -0.224749
C9    C     C_R   0.081376 0.395302 0.895754 -0.239449
C10   C     C_R   0.151494 0.410518 0.998074 0.165916
C11   C     C_R   0.114511 0.445040 0.073958 0.092795
C12   C     C_R   0.613494 0.510534 0.686791 0.784694
C13   C     C_R   0.259177 0.392759 0.025847 -0.217573
C14   C     C_R   0.335296 0.416077 0.128219 -0.179208
C15   C     C_R   0.195679 0.473023 0.176212 -0.254736
C16   C     C_R   0.142367 0.961814 0.362916 -0.145819
C17   C     C_R   0.248114 0.160041 0.462432 -0.082013
C18   C     C_R   0.714013 0.924064 0.550304 -0.248285
C19   C     C_R   0.788516 0.042939 0.551550 0.059363
C20   C     C_R   0.892802 0.076930 0.515511 0.360750
C21   C     C_R   0.916403 0.990263 0.475536 0.021078
C22   C     C_R   0.821600 0.870637 0.455079 -0.032440
C23   C     C_R   0.345312 0.284610 0.485506 0.801154
C24   C     C_R   0.029498 0.018272 0.452059 0.032817
C25   C     C_R   0.031829 0.931929 0.388727 0.107263
C26   C     C_R   0.924028 0.817740 0.352008 0.374545
C27   C     C_R   0.820300 0.788045 0.385707 -0.272220
C28   C     C_R   0.143387 0.128414 0.494406 -0.166706
C29   C     C_R   0.248745 0.075818 0.397975 -0.218317
C30   C     C_R   0.728968 0.837566 0.502590 -0.129204
C31   C     C_R   0.255801 0.698190 0.651544 -0.409803
C32   C     C_R   0.653622 0.339568 0.363406 0.599989
C33   C     C_R   0.732340 0.303836 0.334649 -0.362930
C34   C     C_R   0.379689 0.480205 0.312659 0.797798
C35   C     C_R   0.867256 0.363672 0.386391 -0.218996
C36   C     C_R   0.927503 0.461057 0.468369 0.008295
C37   C     C_R   0.844044 0.495308 0.495615 0.198278
C38   C     C_R   0.067434 0.526800 0.523164 -0.017041
C39   C     C_R   0.120338 0.627798 0.600678 0.133815
C40   C     C_R   0.038097 0.659044 0.626972 -0.249107
C41   C     C_R   0.903342 0.593522 0.576744 -0.173467
C42   C     C_R   0.158288 0.497953 0.504493 -0.072543
C43   C     C_R   0.340713 0.667428 0.628147 0.626331
C44   C     C_R   0.665736 0.501077 0.792922 -0.081681
C45   C     C_R   0.304656 0.457980 0.203964 -0.052742
C46   C     C_R   0.665634 0.490288 0.963848 -0.217993
C47   C     C_R   0.606027 0.497431 0.865549 0.092265
C48   C     C_R   0.777181 0.488426 0.820349 -0.297948
Cu1   Cu    Cu3+1 0.416420 0.526630 0.522910 0.976395
Cu2   Cu    Cu3+1 0.583580 0.473370 0.477090 0.953496
H1    H     H_    0.789806 0.474997 0.144840 0.144759
H2    H     H_    0.284182 0.360651 0.968366 0.127551
H3    H     H_    0.329624 0.098630 0.372704 0.185727
H4    H     H_    0.145876 0.898037 0.313808 0.190964
H5    H     H_    0.153636 0.191320 0.553736 0.187031
H6    H     H_    0.641158 0.897131 0.584558 0.194383
H7    H     H_    0.736461 0.700726 0.353567 0.167120
H8    H     H_    0.177663 0.510264 0.235612 0.157644
H9    H     H_    0.078477 0.735439 0.687594 0.150229
H10   H     H_    0.295512 0.777008 0.709259 0.138275
H11   H     H_    0.125900 0.421489 0.447738 0.165056
H12   H     H_    0.922180 0.332562 0.359835 0.181762
H13   H     H_    0.689001 0.229365 0.271505 0.153941
H14   H     H_    0.849376 0.623998 0.603835 0.205179
H15   H     H_    0.417886 0.401617 0.147918 0.165608
H16   H     H_    0.108681 0.368886 0.836785 0.140279
H17   H     H_    0.623589 0.492118 0.020619 0.130475
H18   H     H_    0.823999 0.494834 0.766207 0.164952
H19   H     H_    0.978767 0.454219 0.193963 0.146149
H20   H     H_    0.928780 0.404711 0.787780 0.142436
N1    N     N_R   0.290690 0.566960 0.557640 -0.190158
N2    N     N_R   0.709100 0.433710 0.442970 -0.218389
O1    O     O_R   0.545970 0.684450 0.528810 -0.523140
O2    O     O_R   0.687130 0.639470 0.490120 -0.609206
O3    O     O_R   0.519670 0.535100 0.660030 -0.547118
O4    O     O_R   0.660830 0.490120 0.621340 -0.610180
O5    O     O_R   0.312870 0.360530 0.509880 -0.589864
O6    O     O_R   0.454030 0.315550 0.471190 -0.540789
O7    O     O_R   0.339170 0.509880 0.378660 -0.593432
O8    O     O_R   0.480330 0.464900 0.339970 -0.542907
O9    O     O_3   0.923298 0.735803 0.285615 -0.746778
H21   H     H_    0.841695 0.659486 0.268943 0.315837
O10   O     O_3   0.960739 0.190539 0.505687 -0.771700
H22   H     H_    0.966619 0.246144 0.559692 0.310816
C49   C     C_3   0.758449 0.134518 0.589361 -0.413538
C50   C     C_3   0.631276 0.087031 0.610821 -0.362961
C51   C     C_3   0.606788 0.186081 0.639152 -0.817873
H23   H     H_    0.685975 0.248402 0.711034 0.253485
H24   H     H_    0.602826 0.234040 0.577754 0.275530
H25   H     H_    0.511968 0.149139 0.650160 0.236501
H26   H     H_    0.546825 0.022612 0.541959 0.230158
H27   H     H_    0.638081 0.043464 0.675240 0.220486
H28   H     H_    0.841785 0.195839 0.660122 0.185831
H29   H     H_    0.750912 0.185217 0.530275 0.222789
O11   O     O_3   0.474585 0.737607 0.674746 -0.730880
H30   H     H_    0.495183 0.808323 0.721882 0.282968
O12   O     O_3   0.519865 0.280834 0.311907 -0.717573
H31   H     H_    0.494898 0.215158 0.256695 0.286198
C52   C     C_3   0.479847 0.499493 0.845434 -0.399301
C53   C     C_3   0.508872 0.624486 0.880944 -0.308142
C54   C     C_3   0.384591 0.626440 0.874712 -0.834588
H32   H     H_    0.304615 0.574039 0.799971 0.257296
H33   H     H_    0.352158 0.589651 0.935795 0.260069
H34   H     H_    0.404641 0.718315 0.885228 0.238112
H35   H     H_    0.579157 0.662491 0.961192 0.214338
H36   H     H_    0.555261 0.680420 0.833711 0.260192
H37   H     H_    0.410722 0.459128 0.765588 0.215203
H38   H     H_    0.425874 0.442682 0.888745 0.174244

loop_
_geom_bond_atom_site_label_1
_geom_bond_atom_site_label_2
_ccdc_geom_bond_type
C6    H19   S    
C51   H23   S    
C54   H32   S    
C17   C29   A    
O11   H30   S    
C4    C8    A    
O9    H21   S    
C32   N2    A    
C49   C50   S    
C52   H38   S    
C53   H35   S    
C17   C23   S    
C31   C43   A    
O10   H22   S    
C1    O2    A    
C36   C37   A    
C38   C42   A    
C3    C7    A    
C50   H26   S    
Cu2   O2    S    
C38   C39   A    
C47   C52   S    
C32   O12   S    
C18   C19   A    
Cu2   N2    S    
C9    H16   S    
C42   N1    A    
C34   O8    A    
C51   H25   S    
C49   H28   S    
C19   C20   A    
C31   C39   A    
C8    C9    A    
C43   O11   S    
Cu1   O3    S    
C18   C30   A    
C9    C10   A    
C44   C47   A    
C18   H6    S    
C54   H33   S    
C40   H9    S    
C21   C22   A    
C37   N2    A    
C11   C15   A    
Cu2   O6    S    
C28   H5    S    
O12   H31   S    
C14   C45   A    
C24   C25   A    
C27   H7    S    
C39   C40   A    
C50   C51   S    
C2    C48   A    
C16   C29   A    
C48   H18   S    
Cu1   O7    S    
C35   C36   A    
C31   H10   S    
C2    C4    A    
Cu2   O4    S    
C34   O7    A    
C13   H2    S    
C49   H29   S    
C52   C53   S    
C33   H13   S    
C26   C27   A    
C34   C45   S    
C23   O5    A    
C42   H11   S    
C40   C41   A    
C54   H34   S    
C22   C27   A    
C12   O4    A    
C15   H8    S    
Cu1   O1    S    
C12   O3    A    
C15   C45   A    
C16   C25   A    
C46   C47   A    
C43   N1    A    
C22   C30   A    
C17   C28   A    
C53   H36   S    
C24   C28   A    
C4    C5    A    
C19   C49   S    
C10   C13   A    
Cu2   O8    S    
C20   O10   S    
C5    C11   A    
C6    C7    A    
C26   O9    S    
C52   H37   S    
C3    C46   A    
C8    H20   S    
C1    O1    A    
C32   C33   A    
C36   C38   A    
C2    C3    A    
C25   C26   A    
C7    H1    S    
C46   H17   S    
C12   C44   S    
C50   H27   S    
C5    C6    A    
C29   H3    S    
C1    C30   S    
C33   C35   A    
C14   H15   S    
Cu1   O5    S    
C35   H12   S    
C23   O6    A    
C37   C41   A    
C16   H4    S    
C10   C11   A    
C20   C21   A    
Cu1   Cu2   S    
Cu1   N1    S    
C21   C24   A    
C51   H24   S    
C53   C54   S    
C41   H14   S    
C13   C14   A    
C44   C48   A    
