data_mof_unit_1231.cif
_audit_creation_date              2013-03-05T16:41:05-0500
_audit_creation_method            fapswitch 2.2
_symmetry_space_group_name_H-M    P1
_symmetry_Int_Tables_number       1
_space_group_crystal_system       triclinic
_cell_length_a                    8.577389
_cell_length_b                    10.691549
_cell_length_c                    9.886837
_cell_angle_alpha                 89.309669
_cell_angle_beta                  98.233693
_cell_angle_gamma                 90.534389
_cell_volume                      897.240601561

loop_
_atom_site_label
_atom_site_type_symbol
_atom_site_description
_atom_site_fract_x
_atom_site_fract_y
_atom_site_fract_z
_atom_type_partial_charge
O1    O     O_R   0.500020 0.316790 0.614690 -0.608906
O2    O     O_R   0.500000 0.316760 0.385350 -0.627421
C1    C     C_R   0.505636 0.259800 0.501109 0.901522
O3    O     O_R   0.271760 0.500010 0.587850 -0.598815
O4    O     O_R   0.271740 0.499970 0.358500 -0.620916
C2    C     C_R   0.201369 0.500855 0.464286 0.984508
Zn1   Zn    Zn3+2 0.500010 0.500020 0.653130 0.980996
Zn2   Zn    Zn3+2 0.499990 0.499980 0.346870 0.949318
O5    O     O_R   0.500000 0.683240 0.614650 -0.628664
O6    O     O_R   0.499980 0.683210 0.385310 -0.625983
O7    O     O_R   0.728260 0.500030 0.641500 -0.595099
O8    O     O_R   0.728240 0.499990 0.412150 -0.633250
C3    C     C_R   0.506686 0.739933 0.500033 0.862203
C4    C     C_R   0.798579 0.503439 0.535319 0.974428
C5    C     C_2   0.036296 0.499356 0.444682 -0.396226
H1    H     H_    0.975427 0.482638 0.342088 0.179156
C6    C     C_2   0.963288 0.513754 0.552938 -0.285457
H2    H     H_    0.024506 0.533975 0.654178 0.214223
C7    C     C_R   0.554666 0.061800 0.626665 0.162905
C8    C     C_R   0.533726 0.128392 0.503553 -0.098031
C9    C     C_R   0.547432 0.066237 0.381324 -0.212105
H3    H     H_    0.544998 0.116056 0.285012 0.170651
C10   C     C_R   0.548439 0.936880 0.380543 -0.219902
H4    H     H_    0.545981 0.889656 0.283906 0.175092
C11   C     C_R   0.536133 0.871052 0.502064 -0.101022
C12   C     C_R   0.556116 0.933992 0.625814 0.132552
C13   C     C_3   0.466882 0.922424 0.744475 -0.466380
C14   C     C_3   0.464117 0.063870 0.744871 -0.493598
H5    H     H_    0.348103 0.879358 0.717119 0.214889
H6    H     H_    0.539602 0.881325 0.836154 0.206793
H7    H     H_    0.343511 0.101807 0.716294 0.236829
H8    H     H_    0.534877 0.103923 0.837512 0.206554
C15   C     C_R   0.370050 0.461438 0.056259 0.188679
N1    N     N_R   0.498950 0.499140 0.142680 -0.108085
C16   C     C_R   0.623413 0.548096 0.086474 -0.127252
H9    H     H_    0.724297 0.585235 0.152391 0.151316
C17   C     C_R   0.623701 0.547661 0.942768 -0.095679
N2    N     N_R   0.498950 0.499180 0.857030 -0.134684
C18   C     C_R   0.368188 0.463509 0.913287 0.136831
C19   C     C_3   0.291937 0.336751 0.903386 0.106992
C20   C     C_3   0.296554 0.335192 0.057581 -0.545609
H10   H     H_    0.367352 0.265833 0.865877 0.110807
H11   H     H_    0.179815 0.337414 0.093814 0.238241
H12   H     H_    0.378614 0.264168 0.109866 0.183218
H13   H     H_    0.724842 0.584257 0.900909 0.171591
N3    N     N_R   0.131410 0.338796 0.829655 0.230243
O9    O     O_R   0.023885 0.408642 0.870359 -0.432966
O10   O     O_R   0.092568 0.263921 0.727430 -0.414483

loop_
_geom_bond_atom_site_label_1
_geom_bond_atom_site_label_2
_geom_bond_distance
_ccdc_geom_bond_type
O4    Zn2   1.977532 S    
C19   N3    1.463019 S    
C10   H4    1.083461 S    
C5    C6    1.326321 D    
C17   N2    1.368454 A    
C13   H5    1.112865 S    
C16   H9    1.081421 S    
Zn2   O8    1.971693 S    
C15   C20   1.485088 S    
C20   H12   1.111556 S    
C19   H10   1.102500 S    
C15   N1    1.358068 A    
C11   C12   1.391676 A    
C1    C8    1.427013 S    
Zn2   N1    2.017663 S    
C9    H3    1.083124 S    
C13   H6    1.112344 S    
Zn1   O7    1.977532 S    
C7    C14   1.493477 S    
C20   H11   1.111270 S    
C4    C6    1.401968 S    
C3    C11   1.421988 S    
C12   C13   1.493127 S    
N2    C18   1.370538 A    
O3    Zn1   1.971694 S    
Zn2   O6    2.000030 S    
C19   C20   1.519229 S    
C16   C17   1.421222 A    
Zn1   N2    2.017159 S    
O8    C4    1.280047 A    
C6    H2    1.084853 S    
O2    C1    1.284905 A    
C10   C11   1.401617 A    
C9    C10   1.383254 A    
O4    C2    1.280419 A    
O7    C4    1.283437 A    
N3    O10   1.300537 A    
C17   H13   1.081461 S    
C5    H1    1.088280 S    
C18   C19   1.497446 S    
C14   H8    1.111779 S    
C8    C9    1.406163 A    
O3    C2    1.282824 A    
N1    C16   1.369287 A    
C13   C14   1.512739 S    
Zn1   O5    1.991001 S    
C7    C12   1.366777 A    
O5    C3    1.286951 A    
N3    O9    1.302539 A    
C2    C5    1.401300 S    
O1    Zn1   2.000031 S    
C15   C18   1.411252 A    
C14   H7    1.111690 S    
O2    Zn2   1.991000 S    
C7    C8    1.392699 A    
O1    C1    1.291175 A    
O6    C3    1.286410 A    
