data_mof_unit_4146.cif
_audit_creation_date              2012-12-10T18:39:51-0500
_audit_creation_method            fapswitch 2.2
_symmetry_space_group_name_H-M    P1
_symmetry_Int_Tables_number       1
_space_group_crystal_system       triclinic
_cell_length_a                    15.046363
_cell_length_b                    14.000557
_cell_length_c                    23.45076
_cell_angle_alpha                 90.192423
_cell_angle_beta                  92.792904
_cell_angle_gamma                 90.172405
_cell_volume                      4934.15695908

loop_
_atom_site_label
_atom_site_type_symbol
_atom_type_description
_atom_site_fract_x
_atom_site_fract_y
_atom_site_fract_z
_atom_type_partial_charge
C1    C     C_R   0.329958 0.499888 0.500507 0.849990
C2    C     C_R   0.669783 0.500228 0.500517 0.874511
C3    C     C_R   0.572661 0.554561 0.242242 -0.150850
C4    C     C_R   0.441696 0.429165 0.759170 -0.148675
C5    C     C_R   0.568270 0.557191 0.302277 0.346001
C6    C     C_R   0.441981 0.430591 0.698905 0.366183
C7    C     C_R   0.503633 0.502238 0.328889 -0.152929
C8    C     C_R   0.492580 0.500060 0.671283 -0.216751
C9    C     C_R   0.438586 0.453098 0.295979 -0.383812
C10   C     C_R   0.537926 0.570631 0.703352 -0.365925
C11   C     C_R   0.437692 0.456045 0.236165 0.503606
C12   C     C_R   0.534336 0.573700 0.762831 0.480544
C13   C     C_R   0.505887 0.504797 0.209467 0.152771
C14   C     C_R   0.488096 0.501757 0.790705 0.137272
C15   C     C_R   0.096576 0.579533 0.526000 0.436278
C16   C     C_R   0.903830 0.557269 0.462759 0.443651
C17   C     C_R   0.907560 0.446799 0.544493 0.440253
C18   C     C_R   0.091026 0.419539 0.483101 0.436341
C19   C     C_R   0.189623 0.577546 0.525967 -0.316006
C20   C     C_R   0.810080 0.555337 0.461966 -0.305021
C21   C     C_R   0.814095 0.448735 0.543315 -0.315396
C22   C     C_R   0.184072 0.421112 0.481178 -0.326718
C23   C     C_R   0.233123 0.499650 0.502406 -0.127835
C24   C     C_R   0.766286 0.501046 0.501761 -0.105544
C25   C     C_R   0.048182 0.500184 0.504560 0.052237
C26   C     C_R   0.950968 0.501798 0.504088 0.054217
C27   C     C_R   0.500887 0.500264 0.391213 0.903384
C28   C     C_R   0.498178 0.500013 0.608864 0.862577
C29   C     C_R   0.523807 0.107604 0.550720 0.263534
C30   C     C_R   0.423216 0.892433 0.481625 0.279328
C31   C     C_R   0.473008 0.105027 0.451883 0.272249
C32   C     C_R   0.573933 0.894052 0.521517 0.275305
C33   C     C_R   0.533175 0.208259 0.547110 0.015454
C34   C     C_R   0.428829 0.791756 0.475894 -0.009378
C35   C     C_R   0.466100 0.206180 0.453564 0.000012
C36   C     C_R   0.570941 0.792905 0.524234 -0.008196
C37   C     C_R   0.497717 0.054039 0.501798 -0.076436
C38   C     C_R   0.497943 0.945578 0.502258 -0.064053
C39   C     C_R   0.554201 0.448580 0.880937 0.654478
C40   C     C_R   0.449259 0.567847 0.119285 0.676627
C41   C     C_R   0.437481 0.563649 0.879480 0.658238
C42   C     C_R   0.563078 0.449531 0.120721 0.635214
C43   C     C_R   0.447825 0.576418 0.939034 -0.171534
C44   C     C_R   0.571448 0.458276 0.061400 -0.165673
C45   C     C_R   0.509395 0.518041 0.970062 -0.131408
C46   C     C_R   0.511861 0.518843 0.030381 -0.124243
C47   C     C_R   0.565922 0.455987 0.940855 -0.164665
C48   C     C_R   0.452344 0.577379 0.059568 -0.161765
C49   C     C_R   0.398157 0.645051 0.968468 0.387010
C50   C     C_R   0.637130 0.408078 0.032223 0.382140
C51   C     C_R   0.398946 0.644332 0.028385 0.365673
C52   C     C_R   0.632980 0.404663 0.972260 0.372846
Cu1   Cu    Cu3+1 0.500000 0.596430 0.500000 0.984509
Cu2   Cu    Cu3+1 0.500000 0.403570 0.500000 1.008286
H1    H     H_    0.387112 0.414958 0.317076 0.176103
H2    H     H_    0.578234 0.622027 0.682222 0.232681
H3    H     H_    0.228089 0.635945 0.544957 0.180539
H4    H     H_    0.769939 0.593809 0.430273 0.178592
H5    H     H_    0.777855 0.412164 0.575282 0.188444
H6    H     H_    0.218251 0.362148 0.462324 0.203538
N1    N     N_R   0.491712 0.502655 0.852015 -0.420810
N2    N     N_R   0.505209 0.506283 0.148213 -0.416036
N3    N     N_R   0.500000 0.258690 0.500000 -0.285450
N4    N     N_R   0.500000 0.741310 0.500000 -0.292682
O1    O     O_R   0.371460 0.581430 0.500000 -0.594282
O2    O     O_R   0.628540 0.418570 0.500000 -0.549574
O3    O     O_R   0.628540 0.581430 0.500000 -0.586720
O4    O     O_R   0.371460 0.418570 0.500000 -0.556592
O5    O     O_R   0.499970 0.581450 0.417880 -0.545325
O6    O     O_R   0.500030 0.418550 0.582120 -0.550592
O7    O     O_R   0.500030 0.581450 0.582120 -0.565180
O8    O     O_R   0.499970 0.418550 0.417880 -0.581640
O9    O     O_2   0.603654 0.387317 0.851445 -0.512249
O10   O     O_2   0.390613 0.618701 0.148602 -0.531963
O11   O     O_2   0.372228 0.609289 0.849050 -0.512690
O12   O     O_2   0.610483 0.383538 0.150827 -0.495106
O13   O     O_3   0.345823 0.712228 0.939642 -0.506781
C53   C     C_3   0.400847 0.786686 0.920427 0.099178
H7    H     H_    0.431845 0.765705 0.880348 0.165112
H8    H     H_    0.455533 0.806462 0.952076 0.082587
C54   C     C_3   0.344334 0.874821 0.908240 -0.739977
H9    H     H_    0.312961 0.898603 0.947743 0.247252
H10   H     H_    0.386657 0.933529 0.892809 0.194684
H11   H     H_    0.291432 0.858318 0.874948 0.260399
O14   O     O_3   0.705336 0.359676 0.061366 -0.512483
C55   C     C_3   0.770171 0.426464 0.082257 0.106252
H12   H     H_    0.748158 0.463022 0.121197 0.187755
H13   H     H_    0.784592 0.482653 0.050422 0.079174
C56   C     C_3   0.856261 0.373992 0.097824 -0.721849
H14   H     H_    0.880942 0.337683 0.059527 0.239500
H15   H     H_    0.907544 0.425521 0.114451 0.196636
H16   H     H_    0.844727 0.319879 0.131212 0.265398
C57   C     C_2   0.584582 0.254874 0.594510 0.989171
O15   O     O_2   0.654227 0.295532 0.585468 -0.646204
O16   O     O_R   0.556340 0.247522 0.650240 -0.709857
H17   H     H_    0.597874 0.281305 0.679126 0.331301
C58   C     C_2   0.357154 0.744624 0.440926 0.985606
O17   O     O_2   0.373958 0.704363 0.396507 -0.618631
O18   O     O_R   0.269060 0.752188 0.456572 -0.801289
H18   H     H_    0.225759 0.719199 0.428418 0.320513
C59   C     C_2   0.417756 0.250723 0.404334 0.960060
O19   O     O_2   0.352583 0.300064 0.411593 -0.635048
O20   O     O_R   0.442503 0.229762 0.348967 -0.754251
H19   H     H_    0.397680 0.252788 0.318493 0.330192
C60   C     C_2   0.647088 0.745997 0.554200 0.986828
O21   O     O_2   0.636915 0.704500 0.599035 -0.628624
O22   O     O_R   0.731744 0.752778 0.532433 -0.798620
H20   H     H_    0.778833 0.718596 0.557036 0.331044
O23   O     O_3   0.341575 0.704857 0.055467 -0.512686
C61   C     C_3   0.388181 0.788083 0.074073 0.119913
H21   H     H_    0.400129 0.835340 0.037447 0.130250
H22   H     H_    0.453232 0.771433 0.096625 0.149309
C62   C     C_3   0.331882 0.843232 0.115032 -0.700140
H23   H     H_    0.319003 0.798907 0.152942 0.273036
H24   H     H_    0.367439 0.909306 0.129433 0.189581
H25   H     H_    0.267367 0.863211 0.093342 0.244199
O24   O     O_3   0.690720 0.344475 0.945257 -0.508330
C63   C     C_3   0.765419 0.397229 0.928640 0.119567
H26   H     H_    0.810410 0.413563 0.966210 0.131329
H27   H     H_    0.746186 0.465320 0.906859 0.138267
C64   C     C_3   0.817419 0.337350 0.887568 -0.693925
H28   H     H_    0.775188 0.320067 0.848737 0.273738
H29   H     H_    0.876889 0.377645 0.874772 0.188394
H30   H     H_    0.839517 0.269856 0.908508 0.243274
C65   C     C_2   0.647242 0.602993 0.214279 0.861094
O25   O     O_2   0.721575 0.604528 0.237845 -0.561500
O26   O     O_R   0.632787 0.647537 0.161378 -0.809044
H31   H     H_    0.688896 0.677182 0.146867 0.322344
C66   C     C_2   0.393682 0.351600 0.788449 0.922510
O27   O     O_2   0.362897 0.365843 0.835013 -0.590054
O28   O     O_R   0.383475 0.261739 0.762656 -0.708252
H32   H     H_    0.349591 0.215194 0.786587 0.322955
O29   O     O_3   0.629156 0.610225 0.335486 -0.565805
C67   C     C_3   0.602648 0.707132 0.334251 0.119237
H33   H     H_    0.533026 0.715733 0.347402 0.181931
H34   H     H_    0.607730 0.738059 0.290910 0.143318
C68   C     C_3   0.663238 0.764289 0.375339 -0.811172
H35   H     H_    0.732443 0.762374 0.361187 0.238373
H36   H     H_    0.641035 0.839620 0.376143 0.181268
H37   H     H_    0.661223 0.734312 0.418985 0.270964
O30   O     O_3   0.394216 0.362845 0.666918 -0.512615
C69   C     C_3   0.308224 0.398972 0.653443 0.119538
H38   H     H_    0.311641 0.464571 0.626898 0.109344
H39   H     H_    0.272821 0.415715 0.692894 0.141151
C70   C     C_3   0.254254 0.324017 0.619656 -0.768064
H40   H     H_    0.247395 0.258588 0.645745 0.247901
H41   H     H_    0.186907 0.352259 0.608020 0.212780
H42   H     H_    0.287806 0.305321 0.579997 0.251453
O31   O     O_3   0.375015 0.406112 0.202373 -0.563160
C71   C     C_3   0.287773 0.431650 0.216150 0.074873
H43   H     H_    0.281900 0.509334 0.226144 0.170476
H44   H     H_    0.266852 0.388938 0.253087 0.146787
C72   C     C_3   0.224349 0.409629 0.165301 -0.714614
H45   H     H_    0.226769 0.332338 0.154678 0.247623
H46   H     H_    0.155326 0.428572 0.175627 0.198014
H47   H     H_    0.243391 0.451747 0.127701 0.264797
O32   O     O_3   0.584841 0.638467 0.795840 -0.585905
C73   C     C_3   0.571778 0.734028 0.777609 0.051193
H48   H     H_    0.551270 0.776486 0.814757 0.153014
H49   H     H_    0.518492 0.743932 0.743380 0.138174
C74   C     C_3   0.659268 0.775347 0.758591 -0.749154
H50   H     H_    0.681785 0.736231 0.720723 0.264736
H51   H     H_    0.650510 0.851815 0.747429 0.207695
H52   H     H_    0.711211 0.769614 0.793706 0.252460
O33   O     O_3   0.051279 0.653947 0.550941 -0.577992
C75   C     C_3   0.075506 0.742824 0.527735 0.109139
H53   H     H_    0.084971 0.738105 0.480995 0.169664
H54   H     H_    0.137648 0.769888 0.549836 0.158744
C76   C     C_3   0.001796 0.814634 0.536825 -0.801190
H55   H     H_    0.992179 0.823877 0.583168 0.256328
H56   H     H_    0.019607 0.884729 0.518448 0.195310
H57   H     H_    0.938522 0.789196 0.515529 0.260275
O34   O     O_3   0.953619 0.606518 0.423333 -0.583455
C77   C     C_3   0.905361 0.677342 0.392465 0.060400
H58   H     H_    0.870102 0.725595 0.421663 0.150021
H59   H     H_    0.857612 0.643318 0.360810 0.197896
C78   C     C_3   0.969405 0.737821 0.359562 -0.762526
H60   H     H_    0.007215 0.691842 0.330678 0.262778
H61   H     H_    0.931546 0.791572 0.333602 0.206928
H62   H     H_    0.016794 0.775767 0.389537 0.233308
O35   O     O_3   0.960399 0.398620 0.585735 -0.584348
C79   C     C_3   0.917330 0.319817 0.609988 0.095613
H63   H     H_    0.880163 0.276039 0.576945 0.153278
H64   H     H_    0.871482 0.345065 0.642598 0.165337
C80   C     C_3   0.986833 0.256184 0.639767 -0.795590
H65   H     H_    0.025377 0.297434 0.673162 0.258182
H66   H     H_    0.953639 0.195045 0.660108 0.210469
H67   H     H_    0.033162 0.228114 0.608394 0.237455
O36   O     O_3   0.038974 0.345235 0.459890 -0.566903
C81   C     C_3   0.075129 0.254610 0.473699 0.089272
H68   H     H_    0.104461 0.252137 0.518251 0.136670
H69   H     H_    0.126671 0.235492 0.443285 0.158393
C82   C     C_3   0.001543 0.179907 0.468084 -0.785808
H70   H     H_    0.972625 0.178275 0.423605 0.258121
H71   H     H_    0.028769 0.108286 0.478925 0.194916
H72   H     H_    0.948235 0.196948 0.497521 0.247588
O37   O     O_3   0.549284 0.061783 0.601129 -0.515851
C83   C     C_3   0.472460 0.039516 0.630767 0.126057
H73   H     H_    0.431751 0.984215 0.607475 0.097570
H74   H     H_    0.431005 0.104187 0.637283 0.175834
C84   C     C_3   0.500529 0.999219 0.688965 -0.717246
H75   H     H_    0.541894 0.052260 0.713670 0.272249
H76   H     H_    0.440727 0.982142 0.712986 0.184987
H77   H     H_    0.539525 0.932874 0.683577 0.239009
O38   O     O_3   0.346482 0.938466 0.461711 -0.510067
C85   C     C_3   0.295084 0.962264 0.508504 0.130496
H78   H     H_    0.325652 0.023318 0.532746 0.110019
H79   H     H_    0.287442 0.900441 0.537797 0.129839
C86   C     C_3   0.202777 0.992514 0.486420 -0.773812
H80   H     H_    0.169673 0.932985 0.462134 0.259161
H81   H     H_    0.161905 0.011740 0.522898 0.178422
H82   H     H_    0.207700 0.055524 0.458071 0.251676
O39   O     O_3   0.445983 0.056236 0.402491 -0.508606
C87   C     C_3   0.521849 0.028221 0.373534 0.122911
H83   H     H_    0.565305 0.980604 0.400267 0.087431
H84   H     H_    0.561185 0.091588 0.360945 0.167985
C88   C     C_3   0.492210 0.973058 0.319940 -0.722560
H85   H     H_    0.449079 0.018640 0.291598 0.266459
H86   H     H_    0.551275 0.950890 0.296613 0.184472
H87   H     H_    0.454540 0.908204 0.331638 0.248672
O40   O     O_3   0.649249 0.941587 0.543204 -0.515462
C89   C     C_3   0.701578 0.969820 0.497740 0.111995
H88   H     H_    0.670096 0.030577 0.474161 0.116585
H89   H     H_    0.712163 0.909875 0.467466 0.145867
C90   C     C_3   0.792222 0.002912 0.521857 -0.741557
H90   H     H_    0.825981 0.943797 0.545700 0.260724
H91   H     H_    0.834176 0.025197 0.486534 0.187388
H92   H     H_    0.784358 0.064548 0.551125 0.252697

loop_
_geom_bond_atom_site_label_1
_geom_bond_atom_site_label_2
_ccdc_geom_bond_type
C16   O34   S    
C73   H49   S    
C18   O36   S    
O33   C75   S    
O24   C63   S    
C76   H56   S    
C76   H55   S    
O16   H17   S    
C53   C54   S    
C35   C59   S    
Cu1   O5    S    
C1    O4    A    
C67   C68   S    
C66   O27   D    
C58   O17   D    
C7    C27   S    
O13   C53   S    
C19   H3    S    
C88   H87   S    
C15   C19   A    
C82   H70   S    
C60   O22   S    
C57   O15   D    
C17   C26   A    
C32   C36   A    
C21   H5    S    
C22   H6    S    
O14   C55   S    
C77   H58   S    
Cu1   N4    S    
C85   H79   S    
C15   C25   A    
Cu2   O4    S    
Cu2   N3    S    
C29   C33   A    
C11   C13   A    
C34   C58   S    
C40   N2    A    
C30   C38   A    
C86   H80   S    
C40   C48   A    
C72   H45   S    
C84   H75   S    
C63   H26   S    
C64   H30   S    
C50   O14   S    
C58   O18   S    
C61   H21   S    
O31   C71   S    
C11   O31   S    
C48   C51   A    
C13   N2    S    
C20   C24   A    
C49   O13   S    
C82   H71   S    
C71   C72   S    
C1    O1    A    
O22   H20   S    
C73   H48   S    
C74   H51   S    
C83   H73   S    
C9    H1    S    
C32   C38   A    
C12   O32   S    
C56   H15   S    
Cu1   O1    S    
C42   N2    A    
C73   C74   S    
C33   N3    A    
C62   H25   S    
C52   O24   S    
C82   H72   S    
C35   N3    A    
C65   O25   D    
C68   H35   S    
C78   H61   S    
C57   O16   S    
O34   C77   S    
C51   O23   S    
C75   H54   S    
C84   H77   S    
C84   H76   S    
C69   C70   S    
O37   C83   S    
C18   C25   A    
C42   C44   A    
C10   C12   A    
C74   H52   S    
C54   H10   S    
C44   C46   A    
C86   H82   S    
C32   O40   S    
C61   H22   S    
C45   C47   A    
C16   C26   A    
C39   N1    A    
C68   H37   S    
C46   C48   A    
C30   C34   A    
C59   O19   D    
C4    C6    A    
C2    O3    A    
C5    C7    A    
C85   H78   S    
C43   C49   A    
C80   H67   S    
C6    C8    A    
C89   C90   S    
C49   C51   A    
C88   H85   S    
O39   C87   S    
C14   N1    S    
C55   C56   S    
C54   H9    S    
C41   N1    A    
C31   C37   A    
O32   C73   S    
C56   H16   S    
C63   C64   S    
C3    C13   A    
O35   C79   S    
C19   C23   A    
C81   H68   S    
C37   C38   S    
C65   O26   S    
C41   O11   S    
O40   C89   S    
C68   H36   S    
C50   C52   A    
O18   H18   S    
Cu2   O6    S    
C16   C20   A    
C78   H62   S    
C29   C37   A    
C83   C84   S    
C34   N4    A    
C90   H90   S    
C5    O29   S    
C53   H8    S    
C6    O30   S    
C89   H89   S    
C9    C11   A    
C61   C62   S    
C64   H28   S    
C47   C52   A    
C27   O5    A    
C77   C78   S    
Cu2   O2    S    
C63   H27   S    
C12   C14   A    
O28   H32   S    
C1    C23   S    
C29   O37   S    
C2    C24   S    
C75   H53   S    
C8    C28   S    
C76   H57   S    
C71   H44   S    
C81   C82   S    
C28   O7    A    
C72   H46   S    
C20   H4    S    
C90   H92   S    
Cu1   O7    S    
C3    C5    A    
C70   H40   S    
C54   H11   S    
C10   H2    S    
C70   H42   S    
C55   H12   S    
C39   C47   A    
C62   H23   S    
C59   O20   S    
C44   C50   A    
C7    C9    A    
O38   C85   S    
C86   H81   S    
C81   H69   S    
C79   H64   S    
C36   C60   S    
C18   C22   A    
C22   C23   A    
C28   O6    A    
C41   C43   A    
C2    O2    A    
C87   C88   S    
C33   C57   S    
C45   C46   A    
C67   H34   S    
C3    C65   S    
Cu1   Cu2   S    
C4    C66   S    
C31   O39   S    
C88   H86   S    
C60   O21   D    
C67   H33   S    
C42   O12   S    
C71   H43   S    
C25   C26   S    
C87   H84   S    
C43   C45   A    
C74   H50   S    
O30   C69   S    
C53   H7    S    
C85   C86   S    
C80   H65   S    
O29   C67   S    
C70   H41   S    
C87   H83   S    
C31   C35   A    
C72   H47   S    
C90   H91   S    
C40   O10   S    
C55   H13   S    
C39   O9    S    
C4    C14   A    
O36   C81   S    
Cu1   O3    S    
C77   H59   S    
C30   O38   S    
C64   H29   S    
C80   H66   S    
C17   O35   S    
Cu2   O8    S    
C75   C76   S    
C8    C10   A    
C78   H60   S    
C21   C24   A    
O23   C61   S    
O20   H19   S    
O26   H31   S    
C69   H38   S    
C15   O33   S    
C83   H74   S    
C66   O28   S    
C56   H14   S    
C36   N4    A    
C89   H88   S    
C79   C80   S    
C69   H39   S    
C27   O8    A    
C79   H63   S    
C62   H24   S    
C17   C21   A    
