data_mof_unit_754.cif
_audit_creation_date              2013-03-05T16:42:13-0500
_audit_creation_method            fapswitch 2.2
_symmetry_space_group_name_H-M    P1
_symmetry_Int_Tables_number       1
_space_group_crystal_system       triclinic
_cell_length_a                    14.953142
_cell_length_b                    10.772876
_cell_length_c                    9.888074
_cell_angle_alpha                 90.290087
_cell_angle_beta                  89.393529
_cell_angle_gamma                 89.958226
_cell_volume                      1592.74333844

loop_
_atom_site_label
_atom_site_type_symbol
_atom_site_description
_atom_site_fract_x
_atom_site_fract_y
_atom_site_fract_z
_atom_type_partial_charge
O1    O     O_R   0.500010 0.316790 0.614690 -0.583391
O2    O     O_R   0.500000 0.316760 0.385350 -0.577818
C1    C     C_R   0.502308 0.260312 0.498914 0.890428
O3    O     O_R   0.367850 0.499990 0.614680 -0.594101
O4    O     O_R   0.367840 0.499950 0.385340 -0.632631
C2    C     C_R   0.327172 0.500948 0.500440 0.891706
Zn1   Zn    Zn3+2 0.500010 0.500020 0.653130 1.013797
Zn2   Zn    Zn3+2 0.499990 0.499980 0.346870 0.996993
O5    O     O_R   0.500000 0.683240 0.614650 -0.608960
O6    O     O_R   0.499990 0.683210 0.385310 -0.633894
O7    O     O_R   0.632160 0.500050 0.614660 -0.638991
O8    O     O_R   0.632150 0.500010 0.385320 -0.622184
C3    C     C_R   0.500790 0.739094 0.500084 0.927838
C4    C     C_R   0.672853 0.497326 0.499710 0.858838
C5    C     C_R   0.814234 0.600854 0.482394 -0.252864
C6    C     C_R   0.768229 0.490168 0.501262 -0.060633
C7    C     C_R   0.812418 0.378202 0.532608 0.020021
C8    C     C_R   0.906605 0.379688 0.538250 0.105142
C9    C     C_R   0.953263 0.492488 0.516201 0.045729
C10   C     C_R   0.906370 0.603460 0.492014 0.059054
C11   C     C_R   0.955614 0.271435 0.564979 -0.208720
C12   C     C_R   0.047619 0.271129 0.555214 -0.188439
C13   C     C_R   0.094555 0.380607 0.526069 0.110972
C14   C     C_R   0.047016 0.494115 0.516245 0.002923
C15   C     C_R   0.092938 0.608483 0.502138 -0.016714
C16   C     C_R   0.044668 0.720709 0.488367 0.332740
C17   C     C_R   0.951756 0.716102 0.478890 -0.262913
C18   C     C_R   0.187682 0.379671 0.506186 0.033986
C19   C     C_R   0.231869 0.494749 0.501543 -0.100262
C20   C     C_R   0.185873 0.606844 0.498779 -0.205323
H1    H     H_    0.777523 0.685864 0.462911 0.141145
H2    H     H_    0.924226 0.183979 0.589157 0.182397
H3    H     H_    0.080699 0.183466 0.571514 0.201360
H4    H     H_    0.223888 0.691842 0.488473 0.202357
H5    H     H_    0.914576 0.801462 0.464711 0.182218
C21   C     C_R   0.496858 0.062239 0.614339 -0.069226
C22   C     C_R   0.506654 0.128499 0.494879 -0.211667
C23   C     C_R   0.517551 0.060537 0.371366 0.260878
C24   C     C_R   0.515513 0.931634 0.375282 -0.264263
H6    H     H_    0.523613 0.880519 0.281242 0.214590
C25   C     C_R   0.503970 0.869640 0.498315 -0.109915
C26   C     C_R   0.495795 0.938010 0.615598 -0.049336
C27   C     C_3   0.483212 0.926393 0.765144 0.028317
C28   C     C_3   0.483850 0.070311 0.765301 0.470446
H7    H     H_    0.541013 0.880762 0.814462 0.134937
C29   C     C_R   0.424715 0.530033 0.072498 0.239063
N1    N     N_R   0.499390 0.499140 0.142800 -0.116150
C30   C     C_R   0.577006 0.481660 0.070540 -0.026813
H8    H     H_    0.638722 0.464056 0.123073 0.164869
C31   C     C_R   0.577116 0.482537 0.926823 -0.047018
H9    H     H_    0.638927 0.465229 0.872283 0.163672
N2    N     N_R   0.499390 0.499180 0.857150 -0.119066
C32   C     C_R   0.424785 0.530647 0.930228 0.259527
C33   C     C_3   0.336396 0.467189 0.925311 -0.427033
C34   C     C_3   0.336900 0.464940 0.078763 -0.488544
H10   H     H_    0.283518 0.528231 0.883687 0.225883
H11   H     H_    0.340497 0.373601 0.878681 0.274232
H12   H     H_    0.283653 0.523542 0.125620 0.217142
H13   H     H_    0.342749 0.369808 0.120861 0.241764
N3    N     N_R   0.396915 0.871684 0.803695 0.251687
O9    O     O_R   0.381837 0.843210 0.929539 -0.352651
O10   O     O_R   0.336367 0.846525 0.713920 -0.337269
N4    N     N_R   0.398610 0.127190 0.807553 0.234210
O11   O     O_R   0.371038 0.119166 0.932318 -0.299165
O12   O     O_R   0.348520 0.183627 0.720733 -0.452655
N5    N     N_R   0.561447 0.124198 0.833423 0.200523
O13   O     O_R   0.641827 0.083999 0.806384 -0.442429
O14   O     O_R   0.551157 0.214865 0.919283 -0.306354
C35   C     C_3   0.760394 0.258460 0.558547 -0.410371
C36   C     C_3   0.769940 0.167269 0.439066 -0.346462
C37   C     C_3   0.747629 0.034578 0.480926 -0.801651
H14   H     H_    0.798746 0.999481 0.551927 0.261639
H15   H     H_    0.681181 0.030637 0.531139 0.281314
H16   H     H_    0.746970 0.973389 0.390241 0.251267
H17   H     H_    0.724606 0.197079 0.358037 0.271974
H18   H     H_    0.838455 0.167809 0.394863 0.238834
H19   H     H_    0.783701 0.216277 0.654244 0.241809
H20   H     H_    0.688155 0.275261 0.576299 0.213778
C38   C     C_3   0.238195 0.258581 0.478878 -0.380736
C39   C     C_3   0.213494 0.203717 0.340568 -0.402932
C40   C     C_3   0.266030 0.085162 0.310722 -0.637790
H21   H     H_    0.338582 0.105649 0.307638 0.258393
H22   H     H_    0.252423 0.014480 0.389694 0.289316
H23   H     H_    0.246231 0.046900 0.210960 0.279898
H24   H     H_    0.141034 0.181789 0.337052 0.260294
H25   H     H_    0.228296 0.272610 0.260211 0.232841
H26   H     H_    0.311558 0.272145 0.479405 0.217387
H27   H     H_    0.224120 0.190466 0.559772 0.264097
N6    N     N_R   0.088296 0.839521 0.483475 0.188898
O15   O     O_R   0.143440 0.871377 0.578452 -0.365239
O16   O     O_R   0.059922 0.924312 0.401000 -0.423200
N7    N     N_R   0.527392 0.117414 0.241041 0.232186
O17   O     O_R   0.595535 0.188615 0.215275 -0.371345
O18   O     O_R   0.482561 0.072731 0.140041 -0.318194

loop_
_geom_bond_atom_site_label_1
_geom_bond_atom_site_label_2
_geom_bond_distance
_ccdc_geom_bond_type
N5    O14   1.298889 A    
N4    O12   1.298417 A    
C7    C35   1.528252 S    
C34   H13   1.111839 S    
C8    C11   1.404600 A    
C25   C26   1.374978 A    
C21   C26   1.338535 A    
C9    C10   1.408296 A    
C3    C25   1.407377 S    
C40   H21   1.107389 S    
C24   C25   1.399929 A    
C32   C33   1.489609 S    
C16   N6    1.437843 S    
Zn1   O7    2.008381 S    
C16   C17   1.394378 A    
C39   H24   1.109980 S    
C21   C22   1.389713 A    
C22   C23   1.428544 A    
Zn1   N2    2.017355 S    
C23   C24   1.389731 A    
O7    C4    1.283762 A    
C5    C6    1.389470 A    
C23   N7    1.435922 S    
N3    O10   1.302351 A    
C8    C9    1.418316 A    
C18   C38   1.528339 S    
O5    C3    1.285360 A    
C39   H25   1.110697 S    
C33   C34   1.517755 S    
C28   N5    1.466506 S    
C6    C7    1.412279 A    
C29   C34   1.489927 S    
C31   N2    1.369492 A    
C13   C14   1.418235 A    
C36   C37   1.526347 S    
N6    O16   1.301439 A    
C30   C31   1.421146 A    
N5    O13   1.301896 A    
C11   C12   1.378124 A    
C35   H20   1.107146 S    
O3    Zn1   2.016397 S    
C38   H26   1.106862 S    
C38   H27   1.106871 S    
C40   H22   1.110786 S    
C31   H9    1.080760 S    
C28   N4    1.469568 S    
C5    C10   1.382303 A    
C11   H2    1.079654 S    
C33   H10   1.111715 S    
C20   H4    1.082799 S    
C14   C15   1.417718 A    
O3    C2    1.288703 A    
C24   H6    1.083920 S    
C37   H15   1.106988 S    
C17   H5    1.084704 S    
C15   C16   1.415514 A    
C38   C39   1.535891 S    
N3    O9    1.300523 A    
O1    C1    1.293842 A    
C27   C28   1.550442 S    
C19   C20   1.389810 A    
O4    Zn2   2.008381 S    
N1    C30   1.368854 A    
Zn2   O8    2.016395 S    
N7    O18   1.299335 A    
C7    C8    1.410192 A    
C13   C18   1.404309 A    
C27   H7    1.112298 S    
C27   N3    1.466569 S    
C30   H8    1.080895 S    
O8    C4    1.290558 A    
C36   H18   1.109620 S    
C4    C6    1.428444 S    
C21   C28   1.505372 S    
C26   C27   1.494559 S    
C40   H23   1.110354 S    
N2    C32   1.364357 A    
C15   C20   1.389808 A    
Zn1   O5    2.012036 S    
C12   H3    1.079383 S    
C29   N1    1.363486 A    
C18   C19   1.405957 A    
O1    Zn1   2.008286 S    
O2    Zn2   2.012036 S    
C39   C40   1.524879 S    
O6    C3    1.282164 A    
C37   H16   1.110361 S    
C5    H1    1.086485 S    
C10   C17   1.396732 A    
O2    C1    1.280487 A    
Zn2   N1    2.017949 S    
C37   H14   1.110727 S    
C35   H19   1.111068 S    
O4    C2    1.284700 A    
C29   C32   1.406814 A    
N7    O17   1.299675 A    
C9    C14   1.402041 A    
C35   C36   1.538096 S    
N4    O11   1.299922 A    
C2    C19   1.426622 S    
C1    C22   1.421788 S    
Zn2   O6    2.008287 S    
C34   H12   1.111610 S    
C36   H17   1.103815 S    
C12   C13   1.402493 A    
N6    O15   1.301250 A    
C33   H11   1.107913 S    
