data_mof_unit_4387.cif
_audit_creation_date              2012-10-26T21:20:14-0400
_audit_creation_method            fapswitch 2.2
_symmetry_space_group_name_H-M    P1
_symmetry_Int_Tables_number       1
_space_group_crystal_system       triclinic
_cell_length_a                    13.014342
_cell_length_b                    10.829807
_cell_length_c                    9.523147
_cell_angle_alpha                 90.219846
_cell_angle_beta                  96.01387
_cell_angle_gamma                 90.318827
_cell_volume                      1334.79844861

loop_
_atom_site_label
_atom_site_type_symbol
_atom_type_description
_atom_site_fract_x
_atom_site_fract_y
_atom_site_fract_z
_atom_type_partial_charge
C1    C     C_R   0.499786 0.262091 0.499775 0.544681
C2    C     C_R   0.699419 0.500301 0.525939 0.565214
C3    C     C_R   0.811945 0.497129 0.540045 0.007321
C4    C     C_R   0.188055 0.502865 0.459952 0.007294
C5    C     C_R   0.027360 0.555111 0.322914 -0.130421
C6    C     C_R   0.972639 0.444869 0.677076 -0.130421
C7    C     C_R   0.134210 0.545596 0.334595 -0.224301
C8    C     C_R   0.865789 0.454375 0.665392 -0.224282
C9    C     C_R   0.134109 0.467455 0.573774 0.361122
C10   C     C_R   0.865891 0.532547 0.426225 0.361118
C11   C     C_R   0.026909 0.477795 0.563191 0.016096
C12   C     C_R   0.500214 0.737909 0.500225 0.544662
C13   C     C_R   0.973091 0.522199 0.436806 0.016097
C14   C     C_R   0.493244 0.063333 0.371628 -0.133383
C15   C     C_R   0.506755 0.936667 0.628372 -0.133376
C16   C     C_R   0.493566 0.935599 0.371867 -0.139515
C17   C     C_R   0.506433 0.064401 0.628132 -0.139517
C18   C     C_3   0.278550 0.332211 0.079785 -0.010621
C19   C     C_3   0.217805 0.253168 0.174289 -0.357643
C20   C     C_3   0.721476 0.667610 0.920066 -0.010541
C21   C     C_3   0.782183 0.746767 0.825622 -0.357606
C22   C     C_R   0.500246 0.871765 0.500240 0.021000
C23   C     C_R   0.499754 0.128235 0.499760 0.021006
C24   C     C_R   0.439525 0.417616 0.065648 0.360723
C25   C     C_R   0.560470 0.582386 0.934356 0.360703
C26   C     C_R   0.441522 0.416954 0.916201 -0.010444
C27   C     C_R   0.558476 0.583047 0.083798 -0.010403
C28   C     C_R   0.300581 0.499696 0.474061 0.565236
Cu1   Cu    Cu3+1 0.500000 0.500020 0.640660 1.021097
Cu2   Cu    Cu3+1 0.500000 0.499980 0.359340 1.021144
F1    F     F_    0.814590 0.577908 0.305677 -0.668065
F2    F     F_    0.185411 0.422105 0.694328 -0.668053
H1    H     H_    0.825119 0.425892 0.753496 0.136918
H2    H     H_    0.602485 0.650955 0.148576 0.148528
H3    H     H_    0.265510 0.293069 0.971339 0.153348
H4    H     H_    0.247966 0.428113 0.080010 0.143397
H5    H     H_    0.230455 0.286603 0.285048 0.172313
H6    H     H_    0.134037 0.257819 0.137711 0.107609
H7    H     H_    0.243292 0.155592 0.170519 0.151863
H8    H     H_    0.751979 0.571666 0.919557 0.143331
H9    H     H_    0.734653 0.706543 0.028622 0.153423
H10   H     H_    0.756835 0.844372 0.829756 0.151808
H11   H     H_    0.865969 0.741906 0.861975 0.107610
H12   H     H_    0.174880 0.574048 0.246479 0.136997
H13   H     H_    0.769345 0.713606 0.714767 0.172346
H14   H     H_    0.987620 0.589085 0.225119 0.179627
H15   H     H_    0.012378 0.410882 0.774867 0.179625
H16   H     H_    0.487738 0.110943 0.271319 0.164366
H17   H     H_    0.512261 0.889057 0.728681 0.164387
H18   H     H_    0.488319 0.887118 0.271635 0.133444
H19   H     H_    0.511680 0.112882 0.728365 0.133434
H20   H     H_    0.397515 0.349052 0.851414 0.148491
N1    N     N_R   0.500030 0.500030 0.852080 -0.244273
N2    N     N_R   0.499970 0.499970 0.147920 -0.244265
O1    O     O_R   0.499990 0.319660 0.618740 -0.528278
O2    O     O_3   0.615638 0.671102 0.868819 -0.540922
O3    O     O_R   0.500010 0.680340 0.381260 -0.528272
O4    O     O_R   0.499990 0.319630 0.381170 -0.458679
O5    O     O_R   0.500010 0.680370 0.618830 -0.458691
O6    O     O_R   0.349000 0.499990 0.599490 -0.440426
O7    O     O_R   0.651000 0.500010 0.400510 -0.440434
O8    O     O_R   0.348990 0.499960 0.361920 -0.501786
O9    O     O_R   0.651010 0.500040 0.638080 -0.501863
O10   O     O_3   0.384352 0.328913 0.131208 -0.540899

loop_
_geom_bond_atom_site_label_1
_geom_bond_atom_site_label_2
_ccdc_geom_bond_type
C14   C23   A    
C16   H18   S    
C16   C22   A    
C2    O7    A    
C1    C23   S    
Cu1   Cu2   S    
C19   H6    S    
C26   H20   S    
C25   C27   A    
C11   C13   A    
C5    H14   S    
C5    C13   A    
Cu1   O6    S    
C20   O2    S    
C18   O10   S    
C17   H19   S    
C28   O6    A    
C2    C3    S    
C1    O1    A    
C27   N2    A    
C24   O10   S    
C3    C10   A    
C1    O4    A    
C2    O9    A    
C15   H17   S    
Cu2   N2    S    
C9    C11   A    
C17   C23   A    
Cu1   N1    S    
C4    C7    A    
C6    C8    A    
C12   O3    A    
Cu2   O4    S    
Cu1   O9    S    
C4    C28   S    
C24   C26   A    
C20   H9    S    
C21   H13   S    
C8    H1    S    
Cu2   O8    S    
C27   H2    S    
C20   H8    S    
C25   O2    S    
C14   C16   A    
C12   O5    A    
C6    H15   S    
C15   C17   A    
C24   N2    A    
C21   H10   S    
C26   N1    A    
C12   C22   S    
C20   C21   S    
C19   H7    S    
C3    C8    A    
C18   H3    S    
Cu2   O7    S    
C6    C11   A    
C5    C7    A    
C18   C19   S    
C14   H16   S    
C19   H5    S    
C9    F2    S    
C7    H12   S    
C4    C9    A    
C21   H11   S    
Cu1   O1    S    
C18   H4    S    
C10   F1    S    
C15   C22   A    
Cu1   O5    S    
C25   N1    A    
Cu2   O3    S    
C10   C13   A    
C28   O8    A    
