data_mof_unit_1593.cif
_audit_creation_date              2012-12-10T17:23:10-0500
_audit_creation_method            fapswitch 2.2
_symmetry_space_group_name_H-M    P1
_symmetry_Int_Tables_number       1
_space_group_crystal_system       triclinic
_cell_length_a                    15.808479
_cell_length_b                    10.858999
_cell_length_c                    9.655751
_cell_angle_alpha                 88.494265
_cell_angle_beta                  92.406532
_cell_angle_gamma                 94.595756
_cell_volume                      1650.32389197

loop_
_atom_site_label
_atom_site_type_symbol
_atom_type_description
_atom_site_fract_x
_atom_site_fract_y
_atom_site_fract_z
_atom_type_partial_charge
C1    C     C_R   0.493888 0.261811 0.501165 0.850844
C2    C     C_3   0.083937 0.519230 0.496215 0.200259
C3    C     C_3   0.977046 0.630967 0.505471 -0.162934
C4    C     C_3   0.918270 0.511346 0.505605 0.199354
C5    C     C_3   0.026298 0.579748 0.387020 -0.159985
C6    C     C_3   0.965927 0.460204 0.387217 -0.158817
C7    C     C_1   0.175698 0.519397 0.492692 -0.088973
C8    C     C_1   0.826210 0.505935 0.508805 -0.079145
C9    C     C_R   0.363932 0.096163 0.660461 0.197217
C10   C     C_R   0.316907 0.016313 0.754231 0.145582
C11   C     C_R   0.315011 0.887335 0.738228 0.151261
C12   C     C_R   0.340391 0.504968 0.497478 0.841953
C13   C     C_R   0.368744 0.842022 0.645112 -0.247586
C14   C     C_R   0.430137 0.919638 0.576476 0.017512
C15   C     C_R   0.427948 0.049382 0.581983 0.027713
C16   C     C_R   0.486740 0.125914 0.501737 -0.081568
C17   C     C_R   0.542099 0.071647 0.416265 -0.209672
C18   C     C_R   0.543840 0.944794 0.413045 -0.214982
C19   C     C_R   0.490241 0.869033 0.495100 -0.042759
C20   C     C_R   0.620331 0.658501 0.146156 -0.146805
C21   C     C_R   0.681357 0.733672 0.075669 0.167538
C22   C     C_R   0.681466 0.730260 0.932194 -0.253990
C23   C     C_R   0.499353 0.736978 0.498275 0.751465
C24   C     C_R   0.621344 0.654453 0.859622 -0.160161
C25   C     C_R   0.560994 0.574004 0.927324 0.191025
C26   C     C_R   0.561427 0.573758 0.076562 0.136669
C27   C     C_R   0.432877 0.447180 0.066867 0.197352
C28   C     C_R   0.439271 0.436234 0.921376 -0.044079
C29   C     C_R   0.660057 0.500147 0.502575 0.805908
C30   C     C_3   0.975988 0.450909 0.614741 -0.154110
C31   C     C_3   0.025066 0.399762 0.496331 -0.161687
C32   C     C_1   0.251148 0.514864 0.492775 -0.217642
C33   C     C_1   0.750223 0.502316 0.507988 -0.186257
C34   C     C_3   0.036377 0.570475 0.614642 -0.162563
Cu1   Cu    Cu3+1 0.499990 0.499990 0.640660 0.931978
Cu2   Cu    Cu3+1 0.500010 0.500010 0.359340 0.921755
H1    H     H_    0.046297 0.304948 0.492325 0.125909
H2    H     H_    0.361967 0.743999 0.627917 0.172920
H3    H     H_    0.589017 0.905517 0.349291 0.133233
H4    H     H_    0.618519 0.674363 0.254227 0.195301
H5    H     H_    0.726569 0.789991 0.874990 0.143345
H6    H     H_    0.622818 0.665803 0.750102 0.204656
H7    H     H_    0.390547 0.385664 0.860004 0.158633
H8    H     H_    0.954029 0.397961 0.708176 0.128280
H9    H     H_    0.935597 0.414767 0.294026 0.129387
H10   H     H_    0.048300 0.632681 0.293598 0.127886
H11   H     H_    0.955801 0.725751 0.509436 0.125648
H12   H     H_    0.066867 0.616003 0.707687 0.123713
H13   H     H_    0.586312 0.128270 0.353965 0.155626
N1    N     N_R   0.500800 0.501210 0.147910 -0.217767
N2    N     N_R   0.500830 0.501290 0.852040 -0.216631
O1    O     O_R   0.499990 0.319640 0.618810 -0.562353
O2    O     O_R   0.500000 0.319660 0.381240 -0.578824
O3    O     O_R   0.379070 0.499980 0.618770 -0.581627
O4    O     O_R   0.379080 0.500000 0.381190 -0.601580
O5    O     O_R   0.500000 0.680340 0.618760 -0.597077
O6    O     O_R   0.500010 0.680360 0.381190 -0.599544
O7    O     O_R   0.620920 0.500000 0.618810 -0.588827
O8    O     O_R   0.620930 0.500020 0.381230 -0.586529
C35   C     C_3   0.253771 0.794655 0.811301 -0.406212
C36   C     C_3   0.289001 0.755739 0.954054 -0.815395
H14   H     H_    0.350295 0.713802 0.944492 0.262330
H15   H     H_    0.298607 0.835293 0.023798 0.256572
H16   H     H_    0.243045 0.686551 0.002236 0.234748
H17   H     H_    0.190426 0.830606 0.818693 0.180176
H18   H     H_    0.241446 0.709843 0.749062 0.200065
C37   C     C_3   0.344467 0.426357 0.123392 -0.332210
C38   C     C_3   0.268794 0.403589 0.019902 -1.003698
H19   H     H_    0.267800 0.478886 0.939929 0.269583
H20   H     H_    0.270213 0.315270 0.968071 0.271555
H21   H     H_    0.208705 0.400710 0.075993 0.262680
H22   H     H_    0.342826 0.350468 0.202868 0.231038
H23   H     H_    0.330772 0.516266 0.164949 0.246973
C39   C     C_3   0.743589 0.822863 0.152767 -0.416460
C40   C     C_3   0.804637 0.755238 0.248369 -0.831875
H24   H     H_    0.769642 0.707312 0.333743 0.247093
H25   H     H_    0.836832 0.686994 0.189808 0.260770
H26   H     H_    0.853598 0.822787 0.294507 0.232782
H27   H     H_    0.781722 0.882361 0.079077 0.203135
H28   H     H_    0.708412 0.885050 0.214595 0.188111
N3    N     N_2   0.330525 0.208841 0.615643 -0.427365
H29   H     H_    0.312908 0.263411 0.693226 0.257220
C41   C     C_3   0.265442 0.189950 0.506219 -0.739035
H30   H     H_    0.242779 0.278790 0.469390 0.229741
H31   H     H_    0.210181 0.131057 0.544787 0.219842
H32   H     H_    0.291214 0.145638 0.416207 0.234228
C42   C     C_3   0.274030 0.069158 0.874143 -0.433233
C43   C     C_3   0.340714 0.103873 0.988902 -0.836399
H33   H     H_    0.386206 0.179626 0.952716 0.251189
H34   H     H_    0.309396 0.133299 0.081956 0.245465
H35   H     H_    0.377343 0.023826 0.019600 0.260261
H36   H     H_    0.238496 0.148801 0.839554 0.187039
H37   H     H_    0.225544 0.003367 0.920183 0.213840

loop_
_geom_bond_atom_site_label_1
_geom_bond_atom_site_label_2
_ccdc_geom_bond_type
C42   C43   S    
C6    H9    S    
C24   H6    S    
Cu1   Cu2   S    
C4    C8    S    
Cu2   O8    S    
N3    H29   S    
C23   O5    A    
Cu1   O7    S    
C21   C22   A    
C37   H22   S    
C26   N1    A    
C30   C31   S    
C20   H4    S    
C28   N2    A    
C22   H5    S    
C15   C16   A    
C29   C33   S    
C18   C19   A    
C36   H15   S    
C18   H3    S    
C1    O2    A    
Cu2   O2    S    
C2    C7    S    
C29   O8    A    
C38   H19   S    
C37   H23   S    
C9    C10   A    
C27   N1    A    
C43   H33   S    
C2    C34   S    
C6    C31   S    
C35   H18   S    
C39   H28   S    
C13   C14   A    
C12   C32   S    
Cu1   O3    S    
C30   H8    S    
C40   H26   S    
N3    C41   S    
C10   C42   S    
C39   C40   S    
C30   C34   S    
C37   C38   S    
C24   C25   A    
C4    C6    S    
Cu2   O6    S    
C17   H13   S    
C16   C17   A    
C3    C34   S    
C25   C26   A    
C21   C39   S    
C31   H1    S    
C35   C36   S    
C36   H16   S    
C19   C23   S    
C40   H24   S    
C25   N2    A    
C41   H30   S    
C43   H35   S    
C17   C18   A    
C1    C16   S    
C29   O7    A    
C40   H25   S    
C13   H2    S    
C41   H31   S    
C43   H34   S    
C35   H17   S    
C39   H27   S    
Cu1   N2    S    
C22   C24   A    
C2    C5    S    
C34   H12   S    
C11   C35   S    
Cu1   O1    S    
Cu2   N1    S    
C23   O6    A    
C7    C32   T    
Cu1   O5    S    
C14   C19   A    
C3    C5    S    
C5    H10   S    
C28   H7    S    
C9    C15   A    
Cu2   O4    S    
C11   C13   A    
C5    C6    S    
C20   C26   A    
C38   H21   S    
C42   H37   S    
C3    H11   S    
C8    C33   T    
C36   H14   S    
C1    O1    A    
C4    C30   S    
C12   O4    A    
C27   C37   S    
C10   C11   A    
C41   H32   S    
C20   C21   A    
C38   H20   S    
C27   C28   A    
C14   C15   A    
C2    C31   S    
C42   H36   S    
C12   O3    A    
C3    C4    S    
C9    N3    S    
