data_mof_unit_207.cif
_audit_creation_date              2012-12-10T18:58:09-0500
_audit_creation_method            fapswitch 2.2
_symmetry_space_group_name_H-M    P1
_symmetry_Int_Tables_number       1
_space_group_crystal_system       triclinic
_cell_length_a                    10.716822
_cell_length_b                    10.003543
_cell_length_c                    15.876301
_cell_angle_alpha                 88.654855
_cell_angle_beta                  99.856112
_cell_angle_gamma                 88.514307
_cell_volume                      1675.67981823

loop_
_atom_site_label
_atom_site_type_symbol
_atom_type_description
_atom_site_fract_x
_atom_site_fract_y
_atom_site_fract_z
_atom_type_partial_charge
C1    C     C_R   0.868872 0.494700 0.481875 -0.355892
C2    C     C_R   0.129383 0.505080 0.514389 -0.355174
C3    C     C_R   0.261855 0.501632 0.507240 0.975743
C4    C     C_R   0.737552 0.498385 0.491773 0.974889
C5    C     C_R   0.499106 0.501303 0.339378 0.899400
C6    C     C_R   0.499773 0.498323 0.660431 0.902241
C7    C     C_R   0.489237 0.610415 0.952545 0.197989
C8    C     C_R   0.494930 0.367032 0.047020 0.265080
C9    C     C_R   0.462186 0.611679 0.035615 0.285099
C10   C     C_R   0.483136 0.364648 0.957001 0.275784
C11   C     C_R   0.490303 0.486979 0.912064 -0.249900
C12   C     C_R   0.478064 0.491576 0.084585 -0.236945
C13   C     C_1   0.495654 0.488349 0.823301 0.232571
C14   C     C_1   0.483549 0.498544 0.174458 0.255723
C15   C     C_1   0.490748 0.502911 0.249999 -0.016336
C16   C     C_1   0.498384 0.493341 0.748721 -0.017515
C17   C     C_R   0.586092 0.068503 0.559911 0.280437
C18   C     C_R   0.414074 0.931787 0.440009 0.293891
C19   C     C_R   0.413358 0.077626 0.440634 0.275133
C20   C     C_R   0.586913 0.922596 0.559284 0.284183
C21   C     C_R   0.071262 0.383028 0.526092 0.245353
C22   C     C_R   0.926625 0.616348 0.469162 0.239545
C23   C     C_R   0.941932 0.375285 0.501190 0.266471
C24   C     C_R   0.056097 0.624374 0.493593 0.262783
N1    N     N_R   0.500000 0.857200 0.500000 -0.221676
N2    N     N_R   0.500000 0.142800 0.500000 -0.223453
O1    O     O_R   0.316770 0.614620 0.499990 -0.546208
O2    O     O_R   0.683230 0.385380 0.500010 -0.543767
O3    O     O_R   0.683230 0.614620 0.500010 -0.538370
O4    O     O_R   0.316770 0.385380 0.499990 -0.535159
O5    O     O_R   0.499980 0.614630 0.378020 -0.549689
O6    O     O_R   0.500020 0.385370 0.621980 -0.555029
O7    O     O_R   0.500020 0.614630 0.621980 -0.546937
O8    O     O_R   0.499980 0.385370 0.378020 -0.558586
Zn1   Zn    Zn3+2 0.500000 0.653120 0.500000 1.148096
Zn2   Zn    Zn3+2 0.500000 0.346880 0.500000 1.137278
S1    S     S_3+6 0.686928 0.149793 0.648505 0.163284
O9    O     O_2   0.625316 0.127369 0.725581 -0.222312
O10   O     O_2   0.817931 0.087643 0.666151 -0.153440
O11   O     O_3   0.718184 0.312226 0.645762 -0.524370
H1    H     H_    0.762105 0.331953 0.704094 0.367927
S2    S     S_3+6 0.318041 0.850818 0.349432 0.157998
O12   O     O_2   0.188872 0.915311 0.324041 -0.166058
O13   O     O_2   0.389300 0.867828 0.276541 -0.214520
O14   O     O_3   0.282342 0.689779 0.354539 -0.521004
H2    H     H_    0.236508 0.669211 0.296893 0.376660
S3    S     S_3+6 0.290383 0.169687 0.365243 0.152055
O15   O     O_2   0.295368 0.122074 0.276838 -0.183926
O16   O     O_2   0.165940 0.134567 0.390366 -0.198685
O17   O     O_3   0.280697 0.335985 0.351383 -0.537211
H3    H     H_    0.200407 0.355476 0.311256 0.372324
S4    S     S_3+6 0.712852 0.830931 0.632632 0.170160
O18   O     O_2   0.834859 0.861883 0.602605 -0.210882
O19   O     O_2   0.716664 0.881992 0.721101 -0.140605
O20   O     O_3   0.718952 0.665055 0.648911 -0.527676
H4    H     H_    0.801737 0.644298 0.685956 0.369658
S5    S     S_3+6 0.397629 0.757491 0.076251 0.151768
O21   O     O_2   0.502010 0.829951 0.130368 -0.161504
O22   O     O_2   0.333061 0.848803 0.004511 -0.164145
O23   O     O_3   0.289587 0.712026 0.136015 -0.558246
H5    H     H_    0.230830 0.790546 0.134110 0.419505
S6    S     S_3+6 0.459453 0.212523 0.900269 0.158305
O24   O     O_2   0.586657 0.149527 0.895283 -0.162234
O25   O     O_2   0.385105 0.117483 0.945407 -0.134100
O26   O     O_3   0.378798 0.240489 0.800542 -0.538850
H6    H     H_    0.376558 0.152145 0.773495 0.422751
S7    S     S_3+6 0.533479 0.758403 0.901414 0.152758
O27   O     O_2   0.421911 0.813918 0.838842 -0.185442
O28   O     O_2   0.578825 0.863040 0.964915 -0.129121
O29   O     O_3   0.651760 0.720424 0.848156 -0.492196
H7    H     H_    0.721449 0.683516 0.892387 0.358785
S8    S     S_3+6 0.529354 0.217764 0.112554 0.146576
O30   O     O_2   0.406289 0.156974 0.123766 -0.173440
O31   O     O_2   0.606417 0.118382 0.071966 -0.137176
O32   O     O_3   0.612386 0.250102 0.209411 -0.557915
H8    H     H_    0.602342 0.170828 0.245975 0.407344
Br1   Br    Br    0.162273 0.230376 0.588016 -0.278428
Br2   Br    Br    0.833929 0.767471 0.406582 -0.277208
Br3   Br    Br    0.874368 0.198987 0.479962 -0.225119
Br4   Br    Br    0.122899 0.801652 0.511626 -0.219100

loop_
_geom_bond_atom_site_label_1
_geom_bond_atom_site_label_2
_ccdc_geom_bond_type
C6    O6    A    
O20   H4    S    
S3    O16   D    
O14   H2    S    
C7    C11   A    
S1    O9    D    
C17   N2    A    
O6    Zn2   S    
C22   C24   A    
S1    O11   S    
C18   S2    S    
C19   S3    S    
S5    O22   D    
C20   N1    A    
C17   C20   A    
C18   C19   A    
C19   N2    A    
S6    O25   D    
C24   Br4   S    
O29   H7    S    
O8    Zn2   S    
C4    O3    A    
S4    O20   S    
C1    C22   A    
C10   S6    S    
C18   N1    A    
S2    O13   D    
S8    O32   S    
C4    O2    A    
S4    O19   D    
S3    O17   S    
C8    S8    S    
S7    O27   D    
C22   Br2   S    
S8    O31   D    
S5    O23   S    
O1    Zn1   S    
C7    S7    S    
O23   H5    S    
S7    O28   D    
S2    O14   S    
C3    O4    A    
O32   H8    S    
S6    O24   D    
S3    O15   D    
C8    C12   A    
C5    O8    A    
C2    C21   A    
O17   H3    S    
C17   S1    S    
N1    Zn1   S    
N2    Zn2   S    
O11   H1    S    
C12   C14   S    
C1    C23   A    
C21   C23   A    
C2    C24   A    
O5    Zn1   S    
S2    O12   D    
S4    O18   D    
C7    C9    A    
S6    O26   S    
C8    C10   A    
S8    O30   D    
O3    Zn1   S    
C6    O7    A    
O4    Zn2   S    
C1    C4    S    
S7    O29   S    
C3    O1    A    
C2    C3    S    
C20   S4    S    
C11   C13   S    
S5    O21   D    
O7    Zn1   S    
C9    S5    S    
C9    C12   A    
C5    C15   S    
C10   C11   A    
C6    C16   S    
O2    Zn2   S    
S1    O10   D    
O26   H6    S    
C13   C16   T    
C21   Br1   S    
C14   C15   T    
C23   Br3   S    
C5    O5    A    
