data_mof_unit_2792.cif
_audit_creation_date              2012-10-26T19:29:02-0400
_audit_creation_method            fapswitch 2.2
_symmetry_space_group_name_H-M    P1
_symmetry_Int_Tables_number       1
_space_group_crystal_system       triclinic
_cell_length_a                    9.449614
_cell_length_b                    10.733546
_cell_length_c                    17.233913
_cell_angle_alpha                 89.226827
_cell_angle_beta                  83.869794
_cell_angle_gamma                 90.252567
_cell_volume                      1737.81527369

loop_
_atom_site_label
_atom_site_type_symbol
_atom_type_description
_atom_site_fract_x
_atom_site_fract_y
_atom_site_fract_z
_atom_type_partial_charge
C1    C     C_R   0.499984 0.740174 0.500775 0.609769
C2    C     C_R   0.537525 0.501311 0.263731 0.040160
C3    C     C_3   0.374361 0.925611 0.559162 -0.227508
C4    C     C_R   0.478764 0.501057 0.649816 0.559939
C5    C     C_3   0.370182 0.069303 0.558160 0.091712
C6    C     C_3   0.639220 0.928590 0.529739 -0.254072
C7    C     C_3   0.485670 0.931694 0.416291 0.439286
C8    C     C_3   0.499235 0.878648 0.500745 0.057380
C9    C     C_3   0.499239 0.122269 0.503587 0.006997
C10   C     C_3   0.639482 0.071263 0.531090 -0.240664
C11   C     C_3   0.489238 0.076857 0.419410 -0.212560
C12   C     C_R   0.369742 0.602530 0.768432 -0.126584
C13   C     C_3   0.900318 0.438466 0.569617 -0.103758
C14   C     C_3   0.067656 0.433476 0.570032 0.256002
C15   C     C_3   0.928680 0.427874 0.432003 -0.124220
C16   C     C_R   0.499405 0.260126 0.502485 0.583427
C17   C     C_3   0.921168 0.627838 0.494456 0.202631
C18   C     C_3   0.096172 0.432190 0.430049 -0.160288
C19   C     C_3   0.087261 0.625368 0.496647 -0.047195
C20   C     C_R   0.521224 0.498948 0.349614 0.629072
C21   C     C_R   0.460331 0.511252 0.734034 -0.021808
C22   C     C_R   0.532325 0.430836 0.780182 -0.120173
C23   C     C_R   0.449657 0.447689 0.141209 -0.118734
C24   C     C_R   0.514779 0.442414 0.860791 -0.125709
C25   C     C_R   0.432176 0.539473 0.895747 0.108045
C26   C     C_R   0.357974 0.619640 0.849238 0.301445
C27   C     C_3   0.589227 0.905181 0.285867 -0.019618
C28   C     C_3   0.213451 0.343084 0.233478 -0.123013
C29   C     C_3   0.086963 0.408491 0.703187 -0.108799
C30   C     C_3   0.889634 0.600832 0.223080 -0.078690
C31   C     C_3   0.334009 0.828715 0.865175 -0.113269
C32   C     C_3   0.269401 0.674135 0.061559 -0.076519
C33   C     C_R   0.439040 0.435776 0.223155 0.212545
C34   C     C_R   0.648120 0.572010 0.222202 0.198598
C35   C     C_R   0.643756 0.594270 0.142215 -0.119083
C36   C     C_R   0.544790 0.533237 0.101596 -0.023672
C37   C     C_2   0.425090 0.556388 0.980877 0.290372
C38   C     C_2   0.546664 0.554505 0.016660 0.183537
Cl1   Cl    Cl    0.365200 0.127380 0.655696 -0.706284
Cl2   Cl    Cl    0.317349 0.882116 0.384174 -0.676986
Cl3   Cl    Cl    0.884574 0.713192 0.408741 -0.567759
Cl4   Cl    Cl    0.715262 0.578350 0.962024 -0.651572
Cu1   Cu    Cu3+1 0.357600 0.500140 0.499960 0.996193
Cu2   Cu    Cu3+1 0.642400 0.499860 0.500040 0.978500
H1    H     H_    0.600122 0.358255 0.753905 0.145521
H2    H     H_    0.733690 0.897795 0.491183 0.219953
H3    H     H_    0.733125 0.106456 0.492083 0.131210
H4    H     H_    0.855164 0.342503 0.576010 0.091132
H5    H     H_    0.854367 0.489912 0.621755 0.161299
H6    H     H_    0.101381 0.333694 0.569278 0.119020
H7    H     H_    0.891951 0.329124 0.435984 0.101897
H8    H     H_    0.139154 0.335910 0.426962 0.131388
H9    H     H_    0.873287 0.682191 0.545086 0.122807
H10   H     H_    0.114512 0.677748 0.548325 0.142166
H11   H     H_    0.141871 0.675543 0.445079 0.209584
H12   H     H_    0.717901 0.659873 0.111748 0.173070
H13   H     H_    0.897878 0.463788 0.375634 0.180879
H14   H     H_    0.139496 0.481278 0.375431 0.164372
H15   H     H_    0.383354 0.391719 0.107829 0.153247
H16   H     H_    0.311203 0.662591 0.732313 0.138472
H17   H     H_    0.568500 0.377249 0.896043 0.154681
H18   H     H_    0.696652 0.904033 0.252920 0.156285
H19   H     H_    0.539153 0.995492 0.272655 0.111016
H20   H     H_    0.527352 0.827012 0.264388 0.175414
H21   H     H_    0.221813 0.277975 0.183698 0.137522
H22   H     H_    0.173089 0.435700 0.216280 0.107561
H23   H     H_    0.387663 0.889136 0.618720 0.149996
H24   H     H_    0.133484 0.302558 0.278675 0.125665
H25   H     H_    0.100718 0.460871 0.756910 0.176064
H26   H     H_    0.170517 0.335861 0.696789 0.189884
H27   H     H_    0.979645 0.364319 0.711232 0.093910
H28   H     H_    0.917345 0.668158 0.174296 0.120220
H29   H     H_    0.899285 0.503165 0.201997 0.095824
H30   H     H_    0.970394 0.612765 0.264474 0.174100
H31   H     H_    0.444082 0.833214 0.882640 0.125216
H32   H     H_    0.270378 0.900492 0.898676 0.153873
H33   H     H_    0.334310 0.852655 0.802175 0.142237
H34   H     H_    0.270208 0.889096 0.544717 0.153189
H35   H     H_    0.329272 0.753770 0.031337 0.131517
H36   H     H_    0.297620 0.665362 0.122226 0.106971
H37   H     H_    0.154638 0.697356 0.065187 0.164112
H38   H     H_    0.269549 0.099231 0.535427 0.152982
H39   H     H_    0.650631 0.891301 0.589349 0.117174
H40   H     H_    0.652616 0.103607 0.590972 0.178762
H41   H     H_    0.393140 0.117032 0.396651 0.153319
H42   H     H_    0.582507 0.114243 0.381059 0.120980
N1    N     N_3   0.856560 0.499750 0.498270 -0.246375
N2    N     N_3   0.143860 0.496700 0.498910 -0.249426
O1    O     O_R   0.379740 0.682430 0.499960 -0.509346
O2    O     O_3   0.344936 0.352577 0.265089 -0.571994
O3    O     O_3   0.102257 0.492407 0.638852 -0.564087
O4    O     O_3   0.752921 0.626281 0.261547 -0.501350
O5    O     O_3   0.270369 0.711235 0.883143 -0.537884
O6    O     O_3   0.290507 0.559575 0.022372 -0.562571
O7    O     O_R   0.620260 0.682190 0.500020 -0.456238
O8    O     O_R   0.365800 0.500150 0.613560 -0.440657
O9    O     O_R   0.606310 0.499910 0.613620 -0.537970
O10   O     O_R   0.379740 0.317810 0.499980 -0.504832
O11   O     O_R   0.620260 0.317570 0.500040 -0.532419
O12   O     O_R   0.393690 0.500090 0.386380 -0.482788
O13   O     O_R   0.634200 0.499850 0.386440 -0.445078
O14   O     O_3   0.604078 0.887193 0.366062 -0.508553

loop_
_geom_bond_atom_site_label_1
_geom_bond_atom_site_label_2
_ccdc_geom_bond_type
C15   C18   S    
C32   O6    S    
C24   H17   S    
C4    C21   S    
C1    C8    S    
C35   C36   A    
Cu1   O10   S    
C18   H8    S    
C7    C8    S    
C23   H15   S    
C32   H37   S    
Cu1   O1    S    
Cu1   N2    S    
C28   H24   S    
C9    C16   S    
C38   Cl4   S    
C30   H30   S    
Cu2   O11   S    
C11   H42   S    
C34   C35   A    
C25   C37   S    
C4    O8    A    
C31   H31   S    
C18   H14   S    
C23   C33   A    
C7    O14   S    
C7    Cl2   S    
C15   H7    S    
Cu2   N1    S    
C9    C10   S    
C2    C34   A    
C26   O5    S    
C21   C22   A    
C15   H13   S    
C31   H33   S    
C29   H25   S    
C2    C20   S    
Cu1   O12   S    
C30   O4    S    
C19   N2    S    
C30   H29   S    
C6    C8    S    
C20   O13   A    
C25   C26   A    
C31   O5    S    
C12   C21   A    
C18   N2    S    
C12   C26   A    
C28   H22   S    
Cu1   Cu2   S    
C5    C9    S    
C37   C38   D    
C27   H18   S    
C4    O9    A    
C32   H36   S    
Cu2   O9    S    
C7    C11   S    
C20   O12   A    
C1    O7    A    
C13   N1    S    
Cu1   O8    S    
C24   C25   A    
C9    C11   S    
C27   H19   S    
C13   H5    S    
C2    C33   A    
C3    C8    S    
C5    Cl1   S    
C22   C24   A    
C17   H9    S    
C29   O3    S    
C19   H10   S    
C15   N1    S    
C29   H26   S    
C19   H11   S    
C1    O1    A    
C6    H39   S    
C6    H2    S    
C35   H12   S    
C17   N1    S    
C3    H23   S    
C3    C5    S    
C6    C10   S    
C13   H4    S    
C30   H28   S    
Cu2   O13   S    
C16   O11   A    
C27   O14   S    
C36   C38   S    
C28   H21   S    
C14   N2    S    
Cu2   O7    S    
C33   O2    S    
C32   H35   S    
C5    H38   S    
C16   O10   A    
C31   H32   S    
C14   H6    S    
C11   H41   S    
C10   H40   S    
C17   C19   S    
C37   O6    S    
C17   Cl3   S    
C14   O3    S    
C27   H20   S    
C12   H16   S    
C22   H1    S    
C23   C36   A    
C10   H3    S    
C28   O2    S    
C13   C14   S    
C3    H34   S    
C29   H27   S    
C34   O4    S    
