data_mof_unit_2629.cif
_audit_creation_date              2012-12-11T15:33:51-0500
_audit_creation_method            fapswitch 2.2
_symmetry_space_group_name_H-M    P1
_symmetry_Int_Tables_number       1
_space_group_crystal_system       triclinic
_cell_length_a                    27.100699
_cell_length_b                    7.199832
_cell_length_c                    22.728955
_cell_angle_alpha                 89.999466
_cell_angle_beta                  101.308115
_cell_angle_gamma                 90.002052
_cell_volume                      4348.78972872

loop_
_atom_site_label
_atom_site_type_symbol
_atom_type_description
_atom_site_fract_x
_atom_site_fract_y
_atom_site_fract_z
_atom_type_partial_charge
O1    O     O_R   0.207310 0.594030 0.676830 -0.539936
O2    O     O_R   0.792690 0.405970 0.323170 -0.539936
O3    O     O_R   0.292690 0.094030 0.823170 -0.539923
O4    O     O_R   0.707310 0.905970 0.176830 -0.539923
O5    O     O_R   0.197320 0.262370 0.795700 -0.510126
O6    O     O_R   0.802680 0.737630 0.204300 -0.510127
O7    O     O_R   0.302680 0.762370 0.704300 -0.510170
O8    O     O_R   0.697320 0.237630 0.295700 -0.510170
C1    C     C_R   0.184127 0.432157 0.811212 0.720412
C2    C     C_R   0.815873 0.567843 0.188788 0.720412
C3    C     C_R   0.315873 0.932163 0.688789 0.720383
C4    C     C_R   0.684127 0.067837 0.311211 0.720383
O9    O     O_R   0.201410 0.264250 0.675590 -0.528076
O10   O     O_R   0.798590 0.735750 0.324410 -0.528076
O11   O     O_R   0.298590 0.764250 0.824410 -0.528054
O12   O     O_R   0.701410 0.235750 0.175590 -0.528053
O13   O     O_R   0.296810 0.094940 0.702210 -0.540343
O14   O     O_R   0.703190 0.905060 0.297790 -0.540343
O15   O     O_R   0.203190 0.594940 0.797790 -0.540343
O16   O     O_R   0.796810 0.405060 0.202210 -0.540343
C5    C     C_R   0.189698 0.432552 0.653408 0.693155
C6    C     C_R   0.810302 0.567448 0.346592 0.693155
C7    C     C_R   0.310301 0.932556 0.846592 0.693193
C8    C     C_R   0.689699 0.067444 0.153408 0.693192
O17   O     O_3   0.281300 0.427390 0.758870 -0.361074
O18   O     O_3   0.718700 0.572610 0.241130 -0.361074
O19   O     O_3   0.218700 0.927390 0.741130 -0.361057
O20   O     O_3   0.781300 0.072610 0.258870 -0.361057
V1    V     V_3+5 0.244190 0.152150 0.748350 1.557948
V2    V     V_3+5 0.755810 0.847850 0.251650 1.557948
V3    V     V_3+5 0.255810 0.652150 0.751650 1.557935
V4    V     V_3+5 0.744190 0.347850 0.248350 1.557935
C9    C     C_R   0.654832 0.062077 0.094771 -0.065683
C10   C     C_R   0.345168 0.937923 0.905229 -0.065683
C11   C     C_R   0.845169 0.562108 0.405229 -0.065683
C12   C     C_R   0.154831 0.437892 0.594770 -0.065684
C13   C     C_R   0.640682 0.100021 0.987237 -0.052500
C14   C     C_R   0.359318 0.899979 0.012763 -0.052500
C15   C     C_R   0.859336 0.600383 0.512753 -0.052530
C16   C     C_R   0.140664 0.399617 0.487247 -0.052530
C17   C     C_R   0.672617 0.108418 0.043179 -0.182231
C18   C     C_R   0.327383 0.891582 0.956821 -0.182231
C19   C     C_R   0.827398 0.608677 0.456811 -0.182206
C20   C     C_R   0.172602 0.391323 0.543188 -0.182207
C21   C     C_R   0.603600 0.020132 0.090251 -0.076867
C22   C     C_R   0.396400 0.979868 0.909749 -0.076867
C23   C     C_R   0.896394 0.520039 0.409756 -0.076936
C24   C     C_R   0.103606 0.479961 0.590244 -0.076936
C25   C     C_R   0.568958 0.033785 0.034543 0.073394
C26   C     C_R   0.431042 0.966215 0.965457 0.073394
C27   C     C_R   0.931043 0.533806 0.465456 0.073404
C28   C     C_R   0.068957 0.466194 0.534544 0.073404
C29   C     C_R   0.589274 0.055392 0.981947 -0.035278
C30   C     C_R   0.410726 0.944608 0.018052 -0.035278
C31   C     C_R   0.910737 0.555646 0.518049 -0.035288
C32   C     C_R   0.089263 0.444354 0.481951 -0.035288
C33   C     C_R   0.515392 0.016965 0.029009 -0.134397
C34   C     C_R   0.484608 0.983035 0.970991 -0.134397
C35   C     C_R   0.984607 0.516894 0.470987 -0.134421
C36   C     C_R   0.015393 0.483106 0.529013 -0.134421
C37   C     C_R   0.508813 0.962731 0.921129 0.352330
C38   C     C_R   0.491187 0.037269 0.078871 0.352331
C39   C     C_R   0.991192 0.463026 0.578886 0.352334
C40   C     C_R   0.008808 0.536974 0.421113 0.352334
C41   C     C_R   0.558960 0.018965 0.925462 0.348049
C42   C     C_R   0.441040 0.981035 0.074538 0.348048
C43   C     C_R   0.941052 0.519352 0.574543 0.348045
C44   C     C_R   0.058948 0.480648 0.425457 0.348045
H1    H     H_    0.408101 0.028443 0.869730 0.167576
H2    H     H_    0.591899 0.971557 0.130270 0.167576
H3    H     H_    0.091916 0.528695 0.630251 0.167575
H4    H     H_    0.908083 0.471305 0.369749 0.167575
H5    H     H_    0.657009 0.126291 0.948283 0.186255
H6    H     H_    0.342991 0.873709 0.051717 0.186255
H7    H     H_    0.843017 0.626833 0.551701 0.186252
H8    H     H_    0.156983 0.373167 0.448298 0.186252
C45   C     C_R   0.643580 0.902226 0.386327 -0.162368
C46   C     C_R   0.356420 0.097773 0.613673 -0.162368
C47   C     C_R   0.856474 0.402095 0.113748 -0.162203
C48   C     C_R   0.143526 0.597905 0.886252 -0.162203
C49   C     C_R   0.607984 0.887621 0.423183 -0.093969
C50   C     C_R   0.392016 0.112379 0.576816 -0.093969
C51   C     C_R   0.892071 0.387481 0.076895 -0.093873
C52   C     C_R   0.107929 0.612519 0.923105 -0.093874
C53   C     C_R   0.572138 0.028103 0.423960 -0.055479
C54   C     C_R   0.427862 0.971897 0.576040 -0.055479
C55   C     C_R   0.927864 0.528111 0.076040 -0.055479
C56   C     C_R   0.072135 0.471889 0.923960 -0.055479
C57   C     C_R   0.572583 0.182824 0.386311 -0.129560
C58   C     C_R   0.427417 0.817176 0.613689 -0.129560
C59   C     C_R   0.927368 0.682987 0.113610 -0.129586
C60   C     C_R   0.072632 0.317013 0.886390 -0.129586
C61   C     C_R   0.608000 0.198563 0.348973 0.397225
C62   C     C_R   0.392000 0.801437 0.651027 0.397225
C63   C     C_R   0.891953 0.698734 0.150949 0.397247
C64   C     C_R   0.108047 0.301266 0.849051 0.397247
C65   C     C_R   0.644671 0.057741 0.348938 -0.131189
C66   C     C_R   0.355328 0.942259 0.651062 -0.131189
C67   C     C_R   0.855331 0.557759 0.151061 -0.131224
C68   C     C_R   0.144669 0.442241 0.848939 -0.131224
N1    N     N_R   0.500152 0.150383 0.465026 -0.259245
N2    N     N_R   0.499848 0.849617 0.534974 -0.259245
N3    N     N_R   0.999786 0.650558 0.034883 -0.259247
N4    N     N_R   0.000214 0.349442 0.965117 -0.259247
N5    N     N_R   0.466518 0.137377 0.500545 -0.264943
N6    N     N_R   0.533482 0.862623 0.499455 -0.264943
N7    N     N_R   0.033419 0.637549 0.999364 -0.264928
N8    N     N_R   0.966581 0.362451 0.000636 -0.264928
C69   C     C_R   0.465574 0.986694 0.536374 0.558583
C70   C     C_R   0.534426 0.013305 0.463626 0.558583
C71   C     C_R   0.034425 0.486691 0.963626 0.558602
C72   C     C_R   0.965575 0.513309 0.036374 0.558602
Cl1   Cl    Cl    0.584731 0.023493 0.859522 -0.482256
Cl2   Cl    Cl    0.415268 0.976507 0.140478 -0.482256
Cl3   Cl    Cl    0.915290 0.524170 0.640487 -0.482242
Cl4   Cl    Cl    0.084710 0.475830 0.359513 -0.482242
H9    H     H_    0.288130 0.856048 0.954017 0.114030
H10   H     H_    0.711870 0.143952 0.045983 0.114030
H11   H     H_    0.211848 0.355682 0.545999 0.114005
H12   H     H_    0.788151 0.644318 0.454001 0.114004
Cl5   Cl    Cl    0.482098 0.830262 0.856857 -0.499291
Cl6   Cl    Cl    0.517902 0.169738 0.143143 -0.499292
Cl7   Cl    Cl    0.017898 0.330728 0.643200 -0.499404
Cl8   Cl    Cl    0.982101 0.669272 0.356800 -0.499404
H13   H     H_    0.670841 0.791468 0.387759 0.149383
H14   H     H_    0.329159 0.208532 0.612241 0.149383
H15   H     H_    0.829255 0.291212 0.112375 0.149593
H16   H     H_    0.170745 0.708788 0.887625 0.149593
H17   H     H_    0.608794 0.765911 0.451339 0.158248
H18   H     H_    0.391205 0.234089 0.548660 0.158248
H19   H     H_    0.891302 0.265648 0.048801 0.158272
H20   H     H_    0.108698 0.734352 0.951199 0.158272
H21   H     H_    0.545030 0.292270 0.385423 0.186112
H22   H     H_    0.454970 0.707730 0.614577 0.186112
H23   H     H_    0.954881 0.792553 0.114436 0.186084
H24   H     H_    0.045120 0.207447 0.885564 0.186084
Cl9   Cl    Cl    0.602660 0.394010 0.301378 -0.557831
Cl10  Cl    Cl    0.397340 0.605990 0.698622 -0.557831
Cl11  Cl    Cl    0.897235 0.894415 0.198440 -0.558181
Cl12  Cl    Cl    0.102765 0.105585 0.801560 -0.558181

loop_
_geom_bond_atom_site_label_1
_geom_bond_atom_site_label_2
_ccdc_geom_bond_type
C64   Cl12  S    
O17   V3    S    
C51   C55   A    
C25   C29   A    
O1    C5    A    
C55   C59   A    
C39   Cl7   S    
O19   V1    S    
C9    C21   A    
O3    C7    A    
C10   C18   A    
O1    V3    S    
C48   C52   A    
O15   V3    S    
C25   C33   A    
C33   C38   A    
C5    C12   S    
O7    C3    A    
C6    C11   S    
C35   C40   A    
C26   C30   A    
C3    C66   S    
C40   C44   A    
C47   C67   A    
C14   C18   A    
O16   V4    S    
C58   H22   S    
C63   C67   A    
C62   C66   A    
N4    N8    A    
C60   C64   A    
O13   V1    S    
O2    V4    S    
C32   C44   A    
O3    V1    S    
C43   Cl3   S    
C22   H1    S    
N5    C69   A    
C28   C36   A    
C56   C71   S    
C1    O15   A    
C15   C31   A    
C56   C60   A    
C2    O16   A    
C16   C32   A    
C46   C66   A    
C45   C65   A    
C10   C22   A    
C15   H7    S    
C17   H10   S    
C50   H18   S    
C11   C19   A    
C16   C20   A    
C19   H12   S    
C13   C29   A    
C34   C37   A    
O11   C7    A    
C11   C23   A    
C35   C36   A    
O12   C8    A    
C48   C68   A    
C57   C61   A    
C60   H24   S    
C41   Cl1   S    
O10   V2    S    
C45   H13   S    
C58   C62   A    
O5    V1    S    
N1    N5    A    
C39   C43   A    
C57   H21   S    
C38   C42   A    
C26   C34   A    
C54   C69   S    
O7    V3    S    
C53   C70   S    
C54   C58   A    
C53   C57   A    
O18   V4    S    
C15   C19   A    
C55   C72   S    
C48   H16   S    
C20   H11   S    
N1    C70   A    
C50   C54   A    
C52   H20   S    
C16   H8    S    
N3    C72   A    
O8    V4    S    
O2    C6    A    
C23   C27   A    
C46   C50   A    
C49   H17   S    
C14   C30   A    
C45   C49   A    
O8    C4    A    
C7    C10   S    
C21   C25   A    
O9    C5    A    
C4    C65   S    
C44   Cl4   S    
O14   V2    S    
O6    V2    S    
C1    C68   S    
C36   C39   A    
C62   Cl10  S    
C12   C20   A    
C27   C35   A    
C24   H3    S    
C46   H14   S    
C61   C65   A    
C38   Cl6   S    
C29   C41   A    
N6    C70   A    
O9    V1    S    
C13   H5    S    
C3    O13   A    
C42   Cl2   S    
C21   H2    S    
N7    C71   A    
C52   C56   A    
C37   Cl5   S    
O5    C1    A    
O6    C2    A    
N4    C71   A    
C31   C43   A    
C18   H9    S    
O11   V3    S    
C30   C42   A    
O12   V4    S    
C22   C26   A    
C63   Cl11  S    
C8    C9    S    
C9    C17   A    
O10   C6    A    
O20   V2    S    
C51   H19   S    
C47   H15   S    
C40   Cl8   S    
C47   C51   A    
C33   C34   A    
O4    C8    A    
C64   C68   A    
C14   H6    S    
C12   C24   A    
C27   C31   A    
C37   C41   A    
C13   C17   A    
C2    C67   S    
O4    V2    S    
C23   H4    S    
C61   Cl9   S    
C59   C63   A    
N8    C72   A    
C24   C28   A    
C59   H23   S    
N2    N6    A    
C4    O14   A    
N2    C69   A    
N3    N7    A    
C49   C53   A    
C28   C32   A    
