data_mof_unit_4787.cif
_audit_creation_date              2012-12-11T14:23:06-0500
_audit_creation_method            fapswitch 2.2
_symmetry_space_group_name_H-M    P1
_symmetry_Int_Tables_number       1
_space_group_crystal_system       triclinic
_cell_length_a                    11.056863
_cell_length_b                    11.024292
_cell_length_c                    18.69549
_cell_angle_alpha                 89.948876
_cell_angle_beta                  90.095846
_cell_angle_gamma                 59.601348
_cell_volume                      1965.57662865

loop_
_atom_site_label
_atom_site_type_symbol
_atom_type_description
_atom_site_fract_x
_atom_site_fract_y
_atom_site_fract_z
_atom_type_partial_charge
C1    C     C_R   0.239251 0.644591 0.610603 0.541667
C2    C     C_3   0.598482 0.616512 0.800490 -0.115305
C3    C     C_3   0.699907 0.674288 0.811676 0.059876
C4    C     C_3   0.673174 0.647325 0.675143 0.047421
C5    C     C_3   0.830566 0.573635 0.694975 -0.246553
C6    C     C_3   0.603189 0.580161 0.720249 -0.207751
C7    C     C_R   0.691683 0.149347 0.821512 -0.020318
C8    C     C_R   0.805408 0.140073 0.781347 0.016467
C9    C     C_R   0.798866 0.138174 0.705416 0.020444
C10   C     C_R   0.567298 0.165158 0.713114 -0.160026
C11   C     C_R   0.572603 0.167627 0.785502 -0.166535
C12   C     C_R   0.655444 0.623312 0.599793 0.553777
C13   C     C_R   0.924266 0.133823 0.813401 -0.097972
C14   C     C_R   0.037550 0.113436 0.771984 -0.142580
C15   C     C_R   0.034796 0.100853 0.698194 -0.134632
C16   C     C_R   0.917321 0.111885 0.665036 -0.081129
C17   C     C_R   0.674008 0.161235 0.672085 -0.011798
C18   C     C_R   0.193255 0.659538 0.837668 -0.009633
C19   C     C_R   0.203749 0.542809 0.800741 0.023213
C20   C     C_R   0.194643 0.546597 0.724933 0.019788
C21   C     C_R   0.216375 0.755649 0.726646 -0.156784
C22   C     C_R   0.210574 0.758769 0.800144 -0.157753
C23   C     C_R   0.630796 0.223909 0.601202 0.533391
C24   C     C_R   0.220378 0.423805 0.837735 -0.089789
C25   C     C_R   0.212002 0.318248 0.801801 -0.146288
C26   C     C_R   0.187840 0.328767 0.728535 -0.153907
C27   C     C_R   0.177531 0.442130 0.690366 -0.103567
C28   C     C_R   0.203622 0.654270 0.687277 -0.007501
C29   C     C_R   0.694440 0.696469 0.180245 -0.006740
C30   C     C_R   0.794553 0.581773 0.220038 0.039454
C31   C     C_R   0.749219 0.523449 0.271806 0.037737
C32   C     C_R   0.530057 0.744330 0.276517 -0.145746
C33   C     C_R   0.560946 0.780129 0.209793 -0.143261
C34   C     C_R   0.283395 0.623270 0.391606 0.545020
C35   C     C_R   0.938147 0.534610 0.216830 -0.089086
C36   C     C_R   0.030662 0.425475 0.261394 -0.129557
C37   C     C_R   0.985286 0.350689 0.300837 -0.123019
C38   C     C_R   0.845811 0.389219 0.297598 -0.093799
C39   C     C_R   0.625131 0.615159 0.308682 -0.011274
C40   C     C_R   0.660108 0.136048 0.183433 -0.002137
C41   C     C_R   0.551623 0.135336 0.223613 0.029301
C42   C     C_R   0.571131 0.108394 0.297583 0.037217
C43   C     C_R   0.780903 0.122031 0.294736 -0.163861
C44   C     C_R   0.776470 0.125011 0.220424 -0.143121
C45   C     C_R   0.615131 0.589047 0.385425 0.539897
C46   C     C_R   0.423027 0.163117 0.193838 -0.114293
C47   C     C_R   0.327680 0.146517 0.234407 -0.164362
C48   C     C_R   0.359530 0.095625 0.304001 -0.130697
C49   C     C_R   0.482456 0.073819 0.335292 -0.071859
C50   C     C_R   0.668806 0.132326 0.333283 -0.004253
C51   C     C_R   0.218799 0.640076 0.164081 -0.008231
C52   C     C_R   0.253671 0.731919 0.197623 0.047609
C53   C     C_R   0.228346 0.750641 0.271530 0.027249
C54   C     C_R   0.284486 0.508751 0.275216 -0.163236
C55   C     C_R   0.250704 0.518351 0.201613 -0.177675
C56   C     C_R   0.622705 0.218722 0.398681 0.520627
C57   C     C_R   0.265283 0.833311 0.157871 -0.076512
C58   C     C_R   0.192327 0.970558 0.181383 -0.103898
C59   C     C_R   0.134810 0.999020 0.249701 -0.157016
C60   C     C_R   0.159981 0.890288 0.296663 -0.115600
C61   C     C_R   0.257734 0.630723 0.313018 -0.011174
C62   C     C_R   0.702748 0.101242 0.895697 0.536596
C63   C     C_R   0.724650 0.689029 0.887694 0.556169
C64   C     C_R   0.121826 0.703541 0.907086 0.525844
C65   C     C_R   0.677140 0.100948 0.106614 0.534703
C66   C     C_R   0.728623 0.714833 0.106672 0.552529
C67   C     C_3   0.633903 0.820187 0.772838 -0.242937
C68   C     C_R   0.114271 0.698488 0.104093 0.523146
C69   C     C_3   0.604939 0.805273 0.693546 -0.259100
C70   C     C_3   0.845147 0.577108 0.775717 -0.220356
Cr1   Cr    Cr6+3 0.392940 0.397950 0.502230 0.998275
Cr2   Cr    Cr6+3 0.398400 0.708500 0.501260 0.988210
Cr3   Cr    Cr6+3 0.708640 0.393530 0.496460 0.985351
Cr4   Cr    Cr6+3 0.937880 0.938320 0.007620 0.994961
Cr5   Cr    Cr6+3 0.625560 0.937220 0.994510 0.986254
Cr6   Cr    Cr6+3 0.938080 0.625010 0.001190 0.988579
H1    H     H_    0.706918 0.861708 0.776343 0.142288
H2    H     H_    0.663432 0.464055 0.712193 0.141265
H3    H     H_    0.893358 0.468056 0.797038 0.149546
H4    H     H_    0.888704 0.461506 0.678025 0.155057
H5    H     H_    0.472712 0.176143 0.689603 0.157887
H6    H     H_    0.930751 0.148919 0.869899 0.138944
H7    H     H_    0.484210 0.174063 0.813265 0.157364
H8    H     H_    0.130001 0.102307 0.797596 0.092792
H9    H     H_    0.125234 0.079269 0.666444 0.096131
H10   H     H_    0.922380 0.094767 0.607920 0.131700
H11   H     H_    0.235802 0.831756 0.700806 0.143208
H12   H     H_    0.533622 0.898624 0.798488 0.127114
H13   H     H_    0.243780 0.409623 0.894384 0.126877
H14   H     H_    0.213264 0.843772 0.827591 0.136660
H15   H     H_    0.226603 0.227517 0.831241 0.096898
H16   H     H_    0.179536 0.247826 0.700639 0.106897
H17   H     H_    0.151261 0.447825 0.634435 0.138994
H18   H     H_    0.434237 0.817312 0.303328 0.154309
H19   H     H_    0.974537 0.593211 0.187844 0.150862
H20   H     H_    0.484131 0.874595 0.182777 0.159537
H21   H     H_    0.136742 0.397382 0.266789 0.128794
H22   H     H_    0.056128 0.267910 0.336587 0.100616
H23   H     H_    0.489673 0.859561 0.684295 0.125735
H24   H     H_    0.811591 0.332713 0.329956 0.152074
H25   H     H_    0.868574 0.117515 0.322526 0.108267
H26   H     H_    0.389042 0.207370 0.141127 0.139350
H27   H     H_    0.864669 0.118265 0.191875 0.157357
H28   H     H_    0.226910 0.178418 0.211801 0.117872
H29   H     H_    0.287173 0.078387 0.334956 0.109171
H30   H     H_    0.504035 0.038313 0.390365 0.134957
H31   H     H_    0.318910 0.411122 0.303664 0.157568
H32   H     H_    0.300127 0.813355 0.102710 0.119206
H33   H     H_    0.241444 0.436923 0.174929 0.114307
H34   H     H_    0.648056 0.856505 0.658904 0.120288
H35   H     H_    0.171727 0.054279 0.144353 0.101862
H36   H     H_    0.068281 0.105062 0.265539 0.102940
H37   H     H_    0.111778 0.919939 0.348628 0.149140
H38   H     H_    0.918150 0.616108 0.787737 0.149827
H39   H     H_    0.879943 0.627960 0.668154 0.118198
H40   H     H_    0.490143 0.703568 0.811912 0.137973
H41   H     H_    0.494932 0.617040 0.701182 0.127818
O1    O     O_R   0.507340 0.255690 0.581430 -0.524512
O2    O     O_R   0.524510 0.695820 0.424050 -0.513488
O3    O     O_R   0.736370 0.504260 0.414810 -0.508177
O4    O     O_R   0.691220 0.277270 0.422180 -0.537638
O5    O     O_3   0.499990 0.499990 0.499980 -0.277479
O6    O     O_R   0.089570 0.825450 0.930590 -0.528632
O7    O     O_R   0.818700 0.054260 0.929860 -0.505359
O8    O     O_R   0.606310 0.077010 0.915520 -0.533427
O9    O     O_R   0.646730 0.806540 0.917560 -0.510651
O10   O     O_R   0.837290 0.593240 0.915240 -0.526768
O11   O     O_R   0.065320 0.635310 0.931580 -0.513478
O12   O     O_R   0.280360 0.527380 0.578910 -0.501490
O13   O     O_R   0.068470 0.828620 0.091850 -0.512090
O14   O     O_R   0.799150 0.057200 0.079350 -0.499506
O15   O     O_R   0.585220 0.080180 0.076770 -0.538503
O16   O     O_R   0.627170 0.809480 0.067050 -0.509214
O17   O     O_R   0.816200 0.596410 0.076500 -0.515695
O18   O     O_R   0.045770 0.638240 0.081070 -0.533706
O19   O     O_3   0.833840 0.833520 0.001110 -0.255997
O20   O     O_R   0.260600 0.739610 0.584580 -0.526809
O21   O     O_R   0.532370 0.695050 0.573830 -0.506217
O22   O     O_R   0.744850 0.503430 0.576380 -0.521442
O23   O     O_R   0.699080 0.276500 0.571950 -0.510084
O24   O     O_R   0.498860 0.256520 0.419860 -0.533627
O25   O     O_R   0.272490 0.528150 0.429140 -0.488117
O26   O     O_R   0.252110 0.740440 0.423010 -0.537235
C71   C     C_3   0.624931 0.489876 0.848156 -0.294054
C72   C     C_3   0.554792 0.532014 0.921699 -0.431057
H42   H     H_    0.606911 0.572307 0.957065 0.188599
H43   H     H_    0.442192 0.612927 0.916382 0.140628
H44   H     H_    0.562223 0.438149 0.948087 0.140179
H45   H     H_    0.578628 0.433089 0.821150 0.158695
H46   H     H_    0.738750 0.415337 0.854962 0.160552

loop_
_geom_bond_atom_site_label_1
_geom_bond_atom_site_label_2
_ccdc_geom_bond_type
Cr2   O26   S    
Cr4   O7    S    
C21   H11   S    
C8    C13   A    
C2    C71   S    
C41   C42   A    
C54   C55   A    
Cr1   O5    S    
C32   H18   S    
C35   C36   A    
C67   H1    S    
C14   H8    S    
C24   H13   S    
C72   H44   S    
C23   O1    A    
C62   O7    A    
C72   H42   S    
Cr6   O19   S    
C7    C8    A    
C70   H38   S    
C7    C11   A    
C46   H26   S    
C26   C27   A    
C71   H45   S    
C54   H31   S    
C36   C37   A    
C9    C16   A    
C1    O12   A    
C30   C31   A    
C6    H2    S    
C10   C17   A    
C26   H16   S    
C15   C16   A    
C29   C33   A    
Cr6   O18   S    
C18   C19   A    
C32   C39   A    
C37   H22   S    
C71   H46   S    
C72   H43   S    
C66   O17   A    
C53   C61   A    
C44   H27   S    
C34   O25   A    
C19   C20   A    
C8    C9    A    
C64   O11   A    
Cr4   O19   S    
C1    C28   S    
C41   C46   A    
C36   H21   S    
C4    C12   S    
C6    H41   S    
C39   C45   S    
C45   O2    A    
Cr2   O21   S    
Cr4   O6    S    
C59   C60   A    
Cr3   O3    S    
C13   C14   A    
C55   H33   S    
C16   H10   S    
C60   H37   S    
C2    C6    S    
C2    H40   S    
C4    C69   S    
C65   O14   A    
C53   C60   A    
C54   C61   A    
Cr1   O24   S    
Cr4   O14   S    
C34   O26   A    
C25   H15   S    
C58   H35   S    
C23   O23   A    
C3    C70   S    
C24   C25   A    
C4    C6    S    
C10   C11   A    
Cr6   O17   S    
Cr5   O19   S    
C71   C72   S    
C20   C28   A    
C11   H7    S    
C58   C59   A    
C13   H6    S    
C34   C61   S    
C50   C56   S    
C51   C52   A    
Cr5   O8    S    
C37   C38   A    
C43   C44   A    
C43   H25   S    
C7    C62   S    
C29   C30   A    
Cr1   O12   S    
C66   O16   A    
C69   H34   S    
C47   C48   A    
C59   H36   S    
C22   H14   S    
C12   O22   A    
Cr3   O22   S    
C17   C23   S    
C52   C53   A    
C5    H4    S    
C68   O13   A    
C42   C50   A    
Cr1   O25   S    
C56   O24   A    
C69   H23   S    
C45   O3    A    
C9    C17   A    
C40   C41   A    
Cr3   O23   S    
C21   C28   A    
Cr3   O4    S    
C40   C65   S    
Cr4   O13   S    
Cr6   O11   S    
C12   O21   A    
C27   H17   S    
C33   H20   S    
C65   O15   A    
C1    O20   A    
Cr5   O15   S    
C67   C69   S    
C46   C47   A    
Cr2   O20   S    
C47   H28   S    
Cr1   O1    S    
Cr2   O5    S    
C70   H3    S    
C18   C22   A    
C68   O18   A    
C3    C67   S    
C4    C5    S    
C5    C70   S    
C62   O8    A    
Cr5   O16   S    
C43   C50   A    
C67   H12   S    
C49   H30   S    
C20   C27   A    
C3    C63   S    
C64   O6    A    
C30   C35   A    
C10   H5    S    
C31   C38   A    
C15   H9    S    
Cr5   O9    S    
C32   C33   A    
C19   C24   A    
C25   C26   A    
C56   O4    A    
C38   H24   S    
C18   C64   S    
C57   C58   A    
C48   C49   A    
Cr2   O2    S    
C31   C39   A    
C2    C3    S    
C51   C55   A    
C51   C68   S    
C63   O10   A    
C63   O9    A    
C52   C57   A    
C42   C49   A    
C29   C66   S    
C40   C44   A    
C57   H32   S    
Cr3   O5    S    
Cr6   O10   S    
C14   C15   A    
C48   H29   S    
C21   C22   A    
C5    H39   S    
C35   H19   S    
