data_mof_unit_4614.cif
_audit_creation_date              2012-12-11T15:21:39-0500
_audit_creation_method            fapswitch 2.2
_symmetry_space_group_name_H-M    P1
_symmetry_Int_Tables_number       1
_space_group_crystal_system       triclinic
_cell_length_a                    19.169531
_cell_length_b                    7.147833
_cell_length_c                    17.663309
_cell_angle_alpha                 90.044762
_cell_angle_beta                  109.017024
_cell_angle_gamma                 89.995891
_cell_volume                      2288.14436984

loop_
_atom_site_label
_atom_site_type_symbol
_atom_type_description
_atom_site_fract_x
_atom_site_fract_y
_atom_site_fract_z
_atom_type_partial_charge
O1    O     O_R   0.562310 0.505770 0.439670 -0.537143
O2    O     O_R   0.437690 0.005770 0.560330 -0.537328
O3    O     O_R   0.411650 0.169150 0.405330 -0.538606
O4    O     O_R   0.588350 0.669150 0.594670 -0.538185
C1    C     C_R   0.384906 0.345373 0.382745 0.640709
C2    C     C_R   0.615093 0.845498 0.617230 0.640865
O5    O     O_R   0.560140 0.175610 0.430010 -0.539816
O6    O     O_R   0.439860 0.675610 0.569990 -0.540699
O7    O     O_R   0.587240 0.012100 0.585200 -0.538013
O8    O     O_R   0.412760 0.512100 0.414800 -0.538028
C3    C     C_R   0.580838 0.344588 0.414615 0.699050
C4    C     C_R   0.418866 0.844721 0.585056 0.698890
O9    O     O_3   0.508720 0.341420 0.550890 -0.370961
O10   O     O_3   0.491280 0.841420 0.449110 -0.371362
V1    V     V_3+5 0.498380 0.063930 0.490560 1.379628
V2    V     V_3+5 0.501620 0.563930 0.509440 1.379176
C5    C     C_R   0.174259 0.753898 0.868951 -0.216727
C6    C     C_R   0.822540 0.566127 0.136506 -0.224603
C7    C     C_R   0.131311 0.915499 0.866188 -0.085452
C8    C     C_R   0.869690 0.416136 0.134895 -0.078795
C9    C     C_R   0.136729 0.065520 0.816752 -0.226731
C10   C     C_R   0.868409 0.253985 0.179747 -0.222152
C11   C     C_R   0.183485 0.053983 0.769958 0.090508
C12   C     C_R   0.821336 0.241541 0.226094 0.091221
C13   C     C_R   0.226787 0.892183 0.773867 0.053361
C14   C     C_R   0.773514 0.391403 0.226400 0.056754
C15   C     C_R   0.222421 0.742158 0.823932 0.091246
C16   C     C_R   0.773820 0.553770 0.181038 0.089747
C17   C     C_R   0.187537 0.201141 0.719006 -0.186795
C18   C     C_R   0.821247 0.081791 0.272243 -0.194596
C19   C     C_R   0.234621 0.189229 0.673024 -0.195768
C20   C     C_R   0.773740 0.069677 0.317755 -0.188137
C21   C     C_R   0.278481 0.029822 0.677092 0.088728
C22   C     C_R   0.725191 0.216708 0.317721 0.090886
C23   C     C_R   0.274394 0.880160 0.727459 0.054743
C24   C     C_R   0.725315 0.378854 0.272167 0.054243
C25   C     C_R   0.317740 0.718416 0.731414 0.090061
C26   C     C_R   0.677481 0.528685 0.272479 0.088701
C27   C     C_R   0.313699 0.571287 0.782398 -0.186737
C28   C     C_R   0.677468 0.688277 0.226175 -0.189909
C29   C     C_R   0.266363 0.582868 0.828108 -0.188863
C30   C     C_R   0.725109 0.700572 0.180798 -0.190308
C31   C     C_R   0.326114 0.017387 0.631471 -0.218075
C32   C     C_R   0.676943 0.204896 0.362813 -0.223586
C33   C     C_R   0.369229 0.856018 0.634418 -0.082743
C34   C     C_R   0.629782 0.354843 0.364469 -0.081043
C35   C     C_R   0.364358 0.706698 0.684450 -0.227288
C36   C     C_R   0.630617 0.516470 0.319111 -0.220165
H1    H     H_    0.170849 0.637372 0.906791 0.127774
H2    H     H_    0.822810 0.691221 0.101950 0.125175
H3    H     H_    0.103795 0.190319 0.813745 0.130531
H4    H     H_    0.904715 0.137947 0.179330 0.128296
H5    H     H_    0.154424 0.325967 0.714881 0.134999
H6    H     H_    0.857768 0.965614 0.272915 0.132771
H7    H     H_    0.236954 0.305306 0.634488 0.130715
H8    H     H_    0.774769 0.944666 0.352766 0.134165
H9    H     H_    0.328819 0.132929 0.592789 0.125767
H10   H     H_    0.677203 0.080376 0.397925 0.123392
H11   H     H_    0.397433 0.582106 0.687585 0.129738
H12   H     H_    0.594251 0.632386 0.319506 0.129891
H13   H     H_    0.346833 0.446487 0.786560 0.135907
H14   H     H_    0.640890 0.804369 0.225427 0.134312
H15   H     H_    0.263828 0.466550 0.866429 0.130640
H16   H     H_    0.724113 0.825602 0.145803 0.136489
C37   C     C_3   0.790564 0.699226 0.794422 -0.281462
C38   C     C_3   0.209216 0.198814 0.206191 -0.285391
H17   H     H_    0.835292 0.626578 0.778527 0.138681
H18   H     H_    0.164393 0.126330 0.221956 0.138249
H19   H     H_    0.786755 0.627599 0.848670 0.150478
H20   H     H_    0.213173 0.123961 0.152896 0.142655
C39   C     C_3   0.717461 0.673546 0.724558 -0.341313
C40   C     C_3   0.281993 0.172886 0.276297 -0.342028
H21   H     H_    0.676639 0.599418 0.746332 0.136658
H22   H     H_    0.322616 0.097062 0.254697 0.138753
H23   H     H_    0.727563 0.583812 0.677647 0.142920
H24   H     H_    0.271539 0.084884 0.323456 0.143047
H25   H     H_    0.865708 0.921796 0.720279 0.146611
H26   H     H_    0.134672 0.412244 0.281248 0.147405
H27   H     H_    0.758615 0.883345 0.614402 0.134541
H28   H     H_    0.242753 0.388868 0.387458 0.132902
C41   C     C_3   0.819434 0.992303 0.733951 -0.404535
C42   C     C_3   0.179460 0.488538 0.267014 -0.412478
C43   C     C_3   0.745596 0.015084 0.827826 0.198810
C44   C     C_3   0.253688 0.521901 0.174913 0.198493
C45   C     C_3   0.811404 0.910791 0.812100 0.065640
C46   C     C_3   0.188071 0.410984 0.188408 0.075524
H29   H     H_    0.758148 0.167452 0.828560 0.079965
H30   H     H_    0.242332 0.673072 0.181602 0.076300
C47   C     C_3   0.686217 0.865176 0.688476 0.076355
C48   C     C_3   0.313652 0.364566 0.311648 0.071262
C49   C     C_3   0.746837 0.965906 0.662285 -0.326699
C50   C     C_3   0.253234 0.467445 0.337883 -0.321202
C51   C     C_3   0.672223 0.984100 0.756186 -0.305620
C52   C     C_3   0.327717 0.479658 0.243011 -0.309397
H31   H     H_    0.628138 0.916821 0.774439 0.135221
H32   H     H_    0.367163 0.403434 0.220029 0.142676
H33   H     H_    0.649897 0.123429 0.731992 0.119972
H34   H     H_    0.354868 0.614807 0.266954 0.121458
H35   H     H_    0.833379 0.143764 0.741882 0.140957
H36   H     H_    0.163016 0.638496 0.259696 0.139988
H37   H     H_    0.726704 0.105532 0.636529 0.146534
H38   H     H_    0.273228 0.608986 0.361348 0.147265
O11   O     O_R   0.087220 0.271820 0.085230 -0.541294
O12   O     O_R   0.912780 0.771820 0.914770 -0.536783
O13   O     O_R   0.939860 0.595540 0.069990 -0.538646
O14   O     O_R   0.060140 0.095540 0.930010 -0.541116
C53   C     C_R   0.919020 0.426585 0.085218 0.702156
C54   C     C_R   0.081287 0.926494 0.915110 0.695750
O15   O     O_R   0.088340 0.601930 0.094680 -0.544493
O16   O     O_R   0.911660 0.101930 0.905320 -0.543384
O17   O     O_R   0.062310 0.765410 0.939660 -0.537978
O18   O     O_R   0.937690 0.265410 0.060340 -0.539019
C55   C     C_R   0.116009 0.431553 0.117920 0.661561
C56   C     C_R   0.883900 0.931453 0.882178 0.653848
O19   O     O_3   0.991270 0.429630 0.949130 -0.371664
O20   O     O_3   0.008730 0.929630 0.050870 -0.373936
V3    V     V_3+5 0.001620 0.707150 0.009440 1.376406
V4    V     V_3+5 0.998380 0.207150 0.990560 1.371138
N1    N     N_2   0.739959 0.973655 0.906798 -0.528069
H39   H     H_    0.783513 0.014347 0.956014 0.246555
C57   C     C_3   0.691663 0.830576 0.920206 -0.530753
H40   H     H_    0.712989 0.782072 0.983282 0.182284
H41   H     H_    0.687535 0.708052 0.880747 0.190838
H42   H     H_    0.635856 0.890229 0.909714 0.201792
N2    N     N_2   0.259932 0.504588 0.094890 -0.525714
H43   H     H_    0.224318 0.589898 0.052625 0.242783
C58   C     C_3   0.270931 0.324227 0.063175 -0.540552
H44   H     H_    0.217142 0.252361 0.036506 0.185007
H45   H     H_    0.309387 0.235113 0.109565 0.197927
H46   H     H_    0.295242 0.345719 0.014774 0.195704

loop_
_geom_bond_atom_site_label_1
_geom_bond_atom_site_label_2
_ccdc_geom_bond_type
C43   H29   S    
O4    V2    S    
C51   H33   S    
C53   O18   A    
C38   H18   S    
O1    C3    A    
C40   H24   S    
O2    C4    A    
O16   V4    S    
C2    O7    A    
O15   V3    S    
C27   C29   A    
O5    C3    A    
C18   H6    S    
C17   H5    S    
C46   C55   S    
C11   C17   A    
C45   C56   S    
O11   C55   A    
C12   C14   A    
O12   V3    S    
C52   H34   S    
C43   C51   S    
C42   C50   S    
O20   V3    S    
C6    C8    A    
C33   C35   A    
C43   N1    S    
C15   C29   A    
C51   H31   S    
C57   H42   S    
C5    C7    A    
C38   C40   S    
C32   H10   S    
C37   H17   S    
C19   C21   A    
C36   H12   S    
C25   C35   A    
O16   C56   A    
C5    C15   A    
H27   C49   S    
C1    C48   S    
O15   C55   A    
C8    C53   S    
C7    C54   S    
C28   C30   A    
C28   H14   S    
O6    V2    S    
O14   V4    S    
O13   V3    S    
C49   H37   S    
C32   C34   A    
C48   C52   S    
N1    C57   S    
C27   H13   S    
C34   C36   A    
C39   H23   S    
C21   C31   A    
C6    C16   A    
C40   H22   S    
C5    H1    S    
C39   H21   S    
O5    V1    S    
C41   H35   S    
C37   C39   S    
C20   C22   A    
H28   C50   S    
C58   H45   S    
C18   C20   A    
O18   V4    S    
O13   C53   A    
H26   C42   S    
C48   C50   S    
C39   C47   S    
H25   C41   S    
O6    C4    A    
O19   V4    S    
C22   C32   A    
O1    V2    S    
C44   C52   S    
C52   H32   S    
O2    V1    S    
C31   C33   A    
C57   H40   S    
C13   C23   A    
O12   C56   A    
O4    C2    A    
C43   C45   S    
C8    C10   A    
C9    C11   A    
N2    H43   S    
C10   C12   A    
O11   V4    S    
C47   C49   S    
C29   H15   S    
C58   H44   S    
C30   H16   S    
C9    H3    S    
C26   C36   A    
O3    V1    S    
C6    H2    S    
C10   H4    S    
C40   C48   S    
C14   C24   A    
C44   N2    S    
C23   C25   A    
C42   H36   S    
C44   H30   S    
C44   C46   S    
C4    C33   S    
O3    C1    A    
C38   C46   S    
N1    H39   S    
C37   C45   S    
C50   H38   S    
C13   C15   A    
C2    C47   S    
C14   C16   A    
C54   O17   A    
O17   V3    S    
C24   C26   A    
O7    V1    S    
C58   H46   S    
C1    O8    A    
C17   C19   A    
C42   C46   S    
C26   C28   A    
C38   H20   S    
O14   C54   A    
C37   H19   S    
C16   C30   A    
C21   C23   A    
C22   C24   A    
C11   C13   A    
C47   C51   S    
C12   C18   A    
C57   H41   S    
C31   H9    S    
C35   H11   S    
C41   C49   S    
C25   C27   A    
O9    V2    S    
N2    C58   S    
O10   V1    S    
C3    C34   S    
O8    V2    S    
C19   H7    S    
C20   H8    S    
C41   C45   S    
C7    C9    A    
