data_mof_unit_1705.cif
_audit_creation_date              2013-03-05T16:44:10-0500
_audit_creation_method            fapswitch 2.2
_symmetry_space_group_name_H-M    P1
_symmetry_Int_Tables_number       1
_space_group_crystal_system       triclinic
_cell_length_a                    12.960904
_cell_length_b                    15.751361
_cell_length_c                    16.948355
_cell_angle_alpha                 96.785393
_cell_angle_beta                  91.860208
_cell_angle_gamma                 85.102017
_cell_volume                      3422.38131631

loop_
_atom_site_label
_atom_site_type_symbol
_atom_site_description
_atom_site_fract_x
_atom_site_fract_y
_atom_site_fract_z
_atom_type_partial_charge
O1    O     O_R   0.495300 0.420890 0.382510 -0.515884
O2    O     O_R   0.504700 0.579110 0.617490 -0.528012
O3    O     O_R   0.503790 0.563430 0.388930 -0.598587
O4    O     O_R   0.496210 0.436570 0.611070 -0.588431
C1    C     C_R   0.501162 0.489312 0.347731 0.887370
C2    C     C_R   0.498410 0.510682 0.652197 0.876867
O5    O     O_R   0.345440 0.440310 0.497300 -0.574335
O6    O     O_R   0.654560 0.559690 0.502700 -0.585804
O7    O     O_R   0.353930 0.582840 0.503720 -0.598853
O8    O     O_R   0.646070 0.417160 0.496280 -0.593974
C3    C     C_R   0.301147 0.517117 0.503339 0.837044
C4    C     C_R   0.698838 0.482583 0.495720 0.841973
Cu1   Cu    Cu3+1 0.494970 0.415610 0.496200 0.996317
Cu2   Cu    Cu3+1 0.505030 0.584390 0.503800 0.985781
C5    C     C_R   0.811942 0.469567 0.491713 -0.185758
C6    C     C_R   0.188659 0.527751 0.511823 -0.191339
C7    C     C_R   0.031471 0.592219 0.577200 0.382911
C8    C     C_R   0.972861 0.392446 0.442466 0.379958
C9    C     C_R   0.137671 0.595386 0.561966 -0.152465
C10   C     C_R   0.863410 0.400234 0.443496 -0.148822
C11   C     C_R   0.133628 0.462218 0.473344 -0.165496
C12   C     C_R   0.868036 0.530670 0.536114 -0.161850
C13   C     C_R   0.027746 0.459844 0.483174 -0.035448
C14   C     C_R   0.975616 0.527458 0.533234 -0.035014
H1    H     H_    0.825166 0.583618 0.569989 0.242895
H2    H     H_    0.175406 0.414378 0.432993 0.253247
C15   C     C_R   0.510747 0.482872 0.260095 -0.275790
C16   C     C_R   0.489377 0.516934 0.739826 -0.264017
C17   C     C_R   0.571982 0.539843 0.225698 -0.244620
C18   C     C_R   0.424272 0.462855 0.774201 -0.229958
C19   C     C_R   0.585993 0.530063 0.142526 0.380453
C20   C     C_R   0.414416 0.470159 0.857826 0.325869
C21   C     C_R   0.531909 0.469028 0.094167 0.193880
C22   C     C_R   0.472922 0.528485 0.905884 0.231749
C23   C     C_R   0.473037 0.413629 0.127679 -0.249122
C24   C     C_R   0.533763 0.582325 0.872143 -0.270351
C25   C     C_R   0.460195 0.420047 0.209405 0.385180
C26   C     C_R   0.544935 0.576392 0.790323 0.348289
N1    N     N_2   0.528455 0.466648 0.010742 -0.108313
N2    N     N_2   0.476903 0.530752 0.989287 -0.125705
H3    H     H_    0.433087 0.367168 0.088542 0.268526
H4    H     H_    0.576800 0.626764 0.911125 0.221791
N3    N     N_R   0.512580 0.711160 0.509520 -0.186089
N4    N     N_R   0.487420 0.288840 0.490480 -0.185655
C27   C     C_R   0.435346 0.757200 0.472698 0.001669
C28   C     C_R   0.563107 0.243841 0.529701 -0.033795
C29   C     C_R   0.432254 0.847461 0.476588 -0.105399
C30   C     C_R   0.569753 0.153493 0.523195 -0.124684
C31   C     C_R   0.513415 0.890359 0.518409 0.300919
C32   C     C_R   0.492112 0.109320 0.478383 0.292922
C33   C     C_R   0.591217 0.840918 0.555899 -0.302768
C34   C     C_R   0.413975 0.157902 0.440314 -0.294960
C35   C     C_R   0.590110 0.751498 0.550278 0.131607
C36   C     C_R   0.412479 0.247560 0.447377 0.156072
N5    N     N_2   0.517451 0.981734 0.528118 -0.229031
N6    N     N_2   0.490720 0.017721 0.467816 -0.228500
H5    H     H_    0.621595 0.278415 0.563652 0.145467
H6    H     H_    0.373954 0.723575 0.441584 0.143624
H7    H     H_    0.653343 0.871735 0.589079 0.189577
H8    H     H_    0.354099 0.126250 0.405122 0.195091
H9    H     H_    0.651333 0.714475 0.578902 0.204324
H10   H     H_    0.351764 0.284001 0.417695 0.212739
C37   C     C_R   0.803130 0.344338 0.385918 0.163885
C38   C     C_R   0.793907 0.360398 0.306111 -0.104767
C39   C     C_R   0.734818 0.309915 0.251748 -0.120615
C40   C     C_R   0.686791 0.241667 0.276172 -0.039669
C41   C     C_R   0.698311 0.223516 0.354849 -0.099518
C42   C     C_R   0.756390 0.274543 0.409687 -0.060437
H11   H     H_    0.832975 0.411617 0.285911 0.150630
H12   H     H_    0.726762 0.323417 0.190593 0.154413
H13   H     H_    0.641469 0.202333 0.233946 0.161442
H14   H     H_    0.662358 0.169765 0.373123 0.126912
H15   H     H_    0.765991 0.259487 0.470297 0.113991
C43   C     C_R   0.192646 0.671032 0.595025 0.188341
C44   C     C_R   0.161788 0.751734 0.570624 -0.068202
C45   C     C_R   0.207105 0.824702 0.605667 -0.149115
C46   C     C_R   0.285952 0.817496 0.663254 -0.114754
C47   C     C_R   0.317850 0.737370 0.687293 -0.064511
C48   C     C_R   0.270929 0.664466 0.653846 -0.029505
H16   H     H_    0.100581 0.758348 0.526172 0.134420
H17   H     H_    0.179800 0.886954 0.588980 0.135327
H18   H     H_    0.321400 0.874100 0.689898 0.144079
H19   H     H_    0.377622 0.731894 0.732850 0.167252
H20   H     H_    0.295043 0.603404 0.674205 0.078756
S1    S     S_3+6 0.970366 0.664220 0.655192 0.003433
O9    O     O_2   0.899151 0.729952 0.618564 -0.341902
O10   O     O_2   0.908241 0.614080 0.703818 -0.190051
O11   O     O_3   0.055026 0.714910 0.717390 -0.525279
H21   H     H_    0.011907 0.757653 0.752421 0.388307
S2    S     S_3+6 0.041175 0.299217 0.390895 -0.016676
O12   O     O_2   0.081420 0.323222 0.315085 -0.220863
O13   O     O_2   0.131650 0.269100 0.441221 -0.373833
O14   O     O_3   0.967775 0.216363 0.368006 -0.512291
H22   H     H_    0.966673 0.188389 0.417345 0.338872
C49   C     C_R   0.371124 0.395586 0.723556 0.214171
C50   C     C_R   0.274205 0.414802 0.687394 -0.085506
C51   C     C_R   0.225542 0.350809 0.639430 -0.070408
C52   C     C_R   0.273233 0.267488 0.627130 -0.080462
C53   C     C_R   0.369371 0.247826 0.663239 -0.150688
C54   C     C_R   0.418386 0.311597 0.711166 -0.106350
H23   H     H_    0.235273 0.478401 0.697687 0.129193
H24   H     H_    0.150522 0.365676 0.612213 0.156323
H25   H     H_    0.235598 0.218081 0.589833 0.149208
H26   H     H_    0.406165 0.183244 0.653767 0.139796
H27   H     H_    0.493298 0.295819 0.738310 0.115328
C55   C     C_R   0.615875 0.613279 0.274954 0.225269
C56   C     C_R   0.569121 0.696780 0.272357 -0.057216
C57   C     C_R   0.609615 0.766323 0.318489 -0.136092
C58   C     C_R   0.696771 0.753020 0.367615 -0.108358
C59   C     C_R   0.743186 0.670096 0.371059 -0.099974
C60   C     C_R   0.702897 0.600428 0.324982 -0.045320
H28   H     H_    0.501294 0.707815 0.234751 0.138163
H29   H     H_    0.573141 0.830485 0.316454 0.145512
H30   H     H_    0.727792 0.806880 0.403507 0.136093
H31   H     H_    0.810064 0.659723 0.409731 0.139430
H32   H     H_    0.738718 0.536731 0.328818 0.086017
S3    S     S_3+6 0.331661 0.406384 0.904056 0.051785
O15   O     O_2   0.290911 0.454790 0.979970 -0.203948
O16   O     O_2   0.240526 0.382458 0.851552 -0.263914
O17   O     O_3   0.400459 0.316419 0.925913 -0.508980
H33   H     H_    0.409613 0.280166 0.874395 0.345387
S4    S     S_3+6 0.671267 0.592769 0.097942 0.021241
O18   O     O_2   0.612642 0.675406 0.081041 -0.303872
O19   O     O_2   0.762148 0.612451 0.152376 -0.267984
O20   O     O_3   0.716437 0.539752 0.012332 -0.497144
H34   H     H_    0.754450 0.581755 0.988155 0.396842
S5    S     S_3+6 0.372347 0.352616 0.243163 0.028588
O21   O     O_2   0.433140 0.277923 0.274778 -0.328941
O22   O     O_2   0.306220 0.401317 0.307385 -0.295174
O23   O     O_3   0.294760 0.315279 0.167751 -0.472083
H35   H     H_    0.251148 0.276367 0.191013 0.403261
S6    S     S_3+6 0.637710 0.638833 0.755709 0.038628
O24   O     O_2   0.696605 0.587854 0.688698 -0.249346
O25   O     O_2   0.583325 0.717777 0.726708 -0.341381
O26   O     O_3   0.722634 0.668422 0.829022 -0.463987
H36   H     H_    0.692144 0.723930 0.855459 0.358311
C61   C     C_R   0.662194 0.108220 0.557750 0.129053
C62   C     C_R   0.688171 0.126255 0.638754 -0.153420
C63   C     C_R   0.775674 0.083644 0.671213 -0.108444
C64   C     C_R   0.838119 0.023252 0.623047 -0.092416
C65   C     C_R   0.813447 0.005612 0.542232 -0.156926
C66   C     C_R   0.726121 0.048107 0.509511 -0.121216
H37   H     H_    0.640198 0.172637 0.676802 0.122938
H38   H     H_    0.795024 0.097391 0.733761 0.150205
H39   H     H_    0.905731 0.990256 0.648300 0.147947
H40   H     H_    0.862019 0.959036 0.504925 0.140522
H41   H     H_    0.708216 0.034075 0.446707 0.133252
C67   C     C_R   0.341725 0.893921 0.440051 0.136720
C68   C     C_R   0.284600 0.962532 0.484060 -0.128491
C69   C     C_R   0.199380 0.005770 0.449344 -0.164987
C70   C     C_R   0.170007 0.980747 0.370588 -0.081120
C71   C     C_R   0.225649 0.912274 0.326511 -0.110346
C72   C     C_R   0.310983 0.868851 0.361006 -0.163866
H42   H     H_    0.306008 0.982526 0.545316 0.134947
H43   H     H_    0.156188 0.058741 0.483505 0.151349
H44   H     H_    0.104091 0.014370 0.343751 0.164309
H45   H     H_    0.202750 0.892894 0.265504 0.152942
H46   H     H_    0.353644 0.816271 0.325854 0.122277

loop_
_geom_bond_atom_site_label_1
_geom_bond_atom_site_label_2
_geom_bond_distance
_ccdc_geom_bond_type
C61   C66   1.406604 A    
O14   H22   0.991217 S    
C15   C17   1.431888 A    
C56   H28   1.083039 S    
C24   H4    1.082167 S    
C49   C50   1.405030 A    
C20   S3    1.788302 S    
C68   H42   1.083042 S    
C51   C52   1.397558 A    
O26   H36   0.990599 S    
C29   C31   1.423123 A    
C46   C47   1.396882 A    
O5    C3    1.288276 A    
C54   H27   1.083022 S    
C6    C11   1.391408 A    
C30   C61   1.481297 S    
C22   N2    1.409137 S    
C12   C14   1.393156 A    
C23   C25   1.391224 A    
C62   H37   1.083197 S    
S3    O16   1.502539 D    
C48   H20   1.077921 S    
C55   C56   1.405299 A    
C52   H25   1.082451 S    
C72   H46   1.083140 S    
C57   C58   1.397467 A    
C41   H14   1.081018 S    
C3    C6    1.463055 S    
O4    Cu1   1.935590 S    
C59   C60   1.398437 A    
C34   H8    1.082729 S    
C21   C23   1.387518 A    
C1    C15   1.485268 S    
C35   H9    1.080710 S    
C47   H19   1.081313 S    
N3    C35   1.360469 A    
C5    C12   1.390692 A    
C2    C16   1.484532 S    
C40   H13   1.082200 S    
N4    C28   1.362654 A    
S6    O24   1.501141 D    
C31   C33   1.402962 A    
C12   H1    1.078124 S    
C32   C34   1.403351 A    
C70   C71   1.397546 A    
C19   C21   1.406755 A    
C60   H32   1.077180 S    
C44   H16   1.083239 S    
C8    C10   1.413907 A    
C51   H24   1.081930 S    
S1    O10   1.502248 D    
C53   H26   1.082376 S    
C10   C37   1.484188 S    
Cu1   Cu2   2.660539 S    
O2    C2    1.297050 A    
C65   C66   1.397931 A    
C23   H3    1.082290 S    
C11   H2    1.077643 S    
C34   C36   1.401659 A    
C55   C60   1.404102 A    
C27   C29   1.412659 A    
C6    C9    1.412873 A    
C5    C10   1.416170 A    
C28   C30   1.409759 A    
C27   H6    1.081872 S    
C7    C14   1.425255 A    
C43   C44   1.404821 A    
C8    C13   1.425860 A    
C8    S2    1.797024 S    
C40   C41   1.397137 A    
C67   C68   1.407555 A    
O4    C2    1.289004 A    
S3    O17   1.681431 S    
N1    N2    1.246587 D    
O7    Cu2   1.960584 S    
C49   C54   1.404930 A    
C36   H10   1.080364 S    
C42   H15   1.082200 S    
S1    O9    1.503598 D    
C32   N6    1.434334 S    
C41   C42   1.399218 A    
C33   C35   1.401705 A    
C26   S6    1.772411 S    
C57   H29   1.082442 S    
C64   H39   1.082441 S    
C44   C45   1.396430 A    
S5    O22   1.502917 D    
C18   C49   1.485034 S    
O7    C3    1.287953 A    
C63   H38   1.082280 S    
S2    O13   1.504427 D    
C53   C54   1.398220 A    
C4    C5    1.465421 S    
C16   C26   1.419107 A    
O6    C4    1.292229 A    
C50   C51   1.398677 A    
N5    N6    1.251486 D    
C21   N1    1.409333 S    
C70   H44   1.082442 S    
C64   C65   1.397236 A    
N3    C27   1.363756 A    
O3    Cu2   1.935590 S    
O8    C4    1.285641 A    
C58   H30   1.082514 S    
C65   H40   1.082449 S    
C52   C53   1.397300 A    
C69   H43   1.082546 S    
C11   C13   1.391934 A    
C28   H5    1.081872 S    
O20   H34   0.990567 S    
C7    S1    1.794731 S    
C17   C55   1.487252 S    
O1    Cu1   1.938601 S    
C67   C72   1.405929 A    
C56   C57   1.398500 A    
S4    O19   1.502970 D    
S5    O21   1.501802 D    
O1    C1    1.296827 A    
O17   H33   0.989895 S    
S2    O14   1.681406 S    
S1    O11   1.681770 S    
C29   C67   1.486269 S    
O6    Cu2   1.944119 S    
C47   C48   1.397455 A    
C66   H41   1.082984 S    
C9    C43   1.484142 S    
C19   S4    1.784661 S    
O3    C1    1.290070 A    
O8    Cu1   1.960584 S    
C45   H17   1.080036 S    
C63   C64   1.397955 A    
C38   H11   1.082034 S    
C61   C62   1.404648 A    
C37   C42   1.404325 A    
S3    O15   1.503069 D    
C43   C48   1.405276 A    
C38   C39   1.397413 A    
S4    O20   1.682474 S    
C24   C26   1.390237 A    
O23   H35   0.990618 S    
S5    O23   1.682431 S    
C16   C18   1.431435 A    
C17   C19   1.415726 A    
C31   N5    1.434460 S    
C68   C69   1.397873 A    
C18   C20   1.417388 A    
C45   C46   1.396939 A    
S2    O12   1.502615 D    
C46   H18   1.082251 S    
C15   C25   1.421225 A    
S6    O26   1.683637 S    
C30   C32   1.420786 A    
C7    C9    1.414774 A    
C71   H45   1.082286 S    
C22   C24   1.387844 A    
O2    Cu2   1.938601 S    
C62   C63   1.398605 A    
C13   C14   1.418237 A    
C37   C38   1.404619 A    
N4    C36   1.359925 A    
O5    Cu1   1.944119 S    
C33   H7    1.083068 S    
O11   H21   0.990422 S    
S6    O25   1.502313 D    
C39   C40   1.396639 A    
C58   C59   1.397464 A    
C69   C70   1.396510 A    
C71   C72   1.398639 A    
S4    O18   1.502918 D    
C50   H23   1.080137 S    
C59   H31   1.082518 S    
Cu1   N4    1.998299 S    
C39   H12   1.082443 S    
C20   C22   1.408719 A    
Cu2   N3    1.998299 S    
C25   S5    1.773219 S    
