data_mof_unit_289.cif
_audit_creation_date              2012-12-11T14:32:49-0500
_audit_creation_method            fapswitch 2.2
_symmetry_space_group_name_H-M    P1
_symmetry_Int_Tables_number       1
_space_group_crystal_system       triclinic
_cell_length_a                    6.95027
_cell_length_b                    13.778599
_cell_length_c                    17.930536
_cell_angle_alpha                 112.187594
_cell_angle_beta                  95.789961
_cell_angle_gamma                 90.168888
_cell_volume                      1580.28677777

loop_
_atom_site_label
_atom_site_type_symbol
_atom_type_description
_atom_site_fract_x
_atom_site_fract_y
_atom_site_fract_z
_atom_type_partial_charge
O1    O     O_R   0.484560 0.544530 0.414330 -0.533498
O2    O     O_R   0.197040 0.638810 0.585080 -0.547320
O3    O     O_R   0.026800 0.455470 0.585670 -0.543246
C1    C     C_R   0.373779 0.679578 0.608820 0.726839
O4    O     O_R   0.155000 0.556150 0.414940 -0.541195
O5    O     O_R   0.984450 0.372220 0.414320 -0.541953
C2    C     C_R   0.316746 0.562436 0.385157 0.744497
O6    O     O_R   0.526900 0.627780 0.585680 -0.535498
O7    O     O_3   0.339170 0.439750 0.499990 -0.377852
V1    V     V_3+5 0.064350 0.511180 0.500000 1.371045
O8    O     O_R   0.654880 0.361190 0.414920 -0.543615
C3    C     C_R   0.816663 0.323295 0.387404 0.716057
O9    O     O_R   0.696930 0.443850 0.585060 -0.541521
C4    C     C_R   0.873536 0.434271 0.612725 0.690724
V2    V     V_3+5 0.564340 0.488820 0.500000 1.382327
O10   O     O_3   0.839390 0.560250 0.500010 -0.369655
C5    C     C_R   0.038759 0.862201 0.823329 -0.047557
C6    C     C_R   0.907144 0.398433 0.680403 -0.052481
C7    C     C_R   0.910039 0.824378 0.684552 -0.149263
C8    C     C_R   0.965620 0.790393 0.746934 -0.141618
C9    C     C_R   0.051396 0.969728 0.837560 -0.210217
C10   C     C_R   0.993762 0.006809 0.774801 0.092125
C11   C     C_R   0.923990 0.931181 0.697530 0.093304
C12   C     C_R   0.000530 0.115647 0.785917 0.069899
C13   C     C_R   0.940487 0.146056 0.719085 0.057043
C14   C     C_R   0.874265 0.066857 0.643667 -0.185069
C15   C     C_R   0.865744 0.962151 0.633528 -0.187251
C16   C     C_R   0.064163 0.195102 0.861612 -0.178783
C17   C     C_R   0.071341 0.300050 0.871878 -0.223128
C18   C     C_R   0.015879 0.330651 0.807433 0.122528
C19   C     C_R   0.948319 0.254712 0.729962 0.099534
C20   C     C_R   0.029475 0.437376 0.820157 -0.129441
C21   C     C_R   0.977099 0.470782 0.757095 -0.143744
C22   C     C_R   0.893483 0.291223 0.666667 -0.210393
H1    H     H_    0.811667 0.904445 0.574532 0.152918
H2    H     H_    0.843939 0.238940 0.605752 0.089356
H3    H     H_    0.993376 0.553327 0.768017 0.091990
H4    H     H_    0.122664 0.358110 0.931122 0.112707
H5    H     H_    0.853733 0.766846 0.625892 0.143727
H6    H     H_    0.949345 0.707762 0.735738 0.093683
H7    H     H_    0.103638 0.021761 0.898243 0.091347
H8    H     H_    0.825401 0.082925 0.590794 0.128333
H9    H     H_    0.110626 0.178969 0.914684 0.120144
H10   H     H_    0.083214 0.495204 0.879058 0.137094
H11   H     H_    0.099239 0.229239 0.299732 0.135001
H12   H     H_    0.856869 0.015803 0.209360 0.162448
C23   C     C_2   0.134548 0.038815 0.181920 -0.360887
C24   C     C_2   0.979401 0.070744 0.223026 -0.135108
C25   C     C_2   0.810466 0.214965 0.324062 -0.090315
C26   C     C_2   0.970237 0.178036 0.285618 -0.160725
H13   H     H_    0.261450 0.090988 0.195541 0.127349
C27   C     C_R   0.405931 0.787821 0.672984 -0.133621
C28   C     C_R   0.539894 0.475291 0.825223 -0.053918
C29   C     C_R   0.511717 0.890398 0.814098 -0.129625
C30   C     C_R   0.458150 0.794672 0.751980 -0.215280
C31   C     C_R   0.408764 0.882121 0.656243 0.386498
C32   C     C_R   0.449170 0.983522 0.722096 0.018424
C33   C     C_R   0.505926 0.983927 0.800559 0.068861
C34   C     C_R   0.440585 0.084673 0.713990 0.080050
C35   C     C_R   0.500896 0.180542 0.782284 0.062372
C36   C     C_R   0.560853 0.173269 0.857142 -0.175600
C37   C     C_R   0.560555 0.077585 0.866038 -0.190349
C38   C     C_R   0.365062 0.094628 0.641444 -0.144637
C39   C     C_R   0.362493 0.190362 0.632780 -0.249090
C40   C     C_R   0.426641 0.282672 0.697203 0.123017
C41   C     C_R   0.495293 0.280848 0.773769 0.098165
C42   C     C_R   0.415815 0.377456 0.685457 -0.122877
C43   C     C_R   0.470856 0.472330 0.748587 -0.144889
C44   C     C_R   0.551910 0.379943 0.838054 -0.212197
H14   H     H_    0.606065 0.076854 0.925470 0.113457
H15   H     H_    0.602386 0.386035 0.898537 0.086740
H16   H     H_    0.456489 0.544116 0.737685 0.090062
H17   H     H_    0.303163 0.192446 0.575110 0.123069
H18   H     H_    0.557562 0.891359 0.873937 0.151332
H19   H     H_    0.463520 0.724533 0.765514 0.114046
H20   H     H_    0.607269 0.240943 0.910888 0.116723
H21   H     H_    0.295803 0.030960 0.590707 0.181692
H22   H     H_    0.361370 0.378263 0.627005 0.146984
H23   H     H_    0.340103 0.674459 0.198247 0.137653
H24   H     H_    0.611399 0.583081 0.305481 0.193521
C45   C     C_2   0.313580 0.601442 0.318302 -0.386822
C46   C     C_2   0.475644 0.607878 0.284228 -0.092891
C47   C     C_2   0.636410 0.649953 0.181089 0.290534
C48   C     C_2   0.475598 0.647493 0.217772 -0.225417
H25   H     H_    0.177301 0.625642 0.297023 0.183420
O11   O     O_R   0.421600 0.630430 0.917010 -0.539847
O12   O     O_R   0.793840 0.702190 0.087630 -0.522575
O13   O     O_R   0.964010 0.886170 0.088190 -0.534183
C49   C     C_R   0.631548 0.692012 0.115508 0.650943
O14   O     O_R   0.751460 0.619510 0.917500 -0.540593
O15   O     O_R   0.921330 0.802900 0.916840 -0.539971
C50   C     C_R   0.574684 0.579773 0.892534 0.681642
O16   O     O_R   0.464290 0.713700 0.088350 -0.555345
O17   O     O_3   0.609200 0.818520 0.002630 -0.372121
V3    V     V_3+5 0.884140 0.747190 0.002530 1.391135
O18   O     O_R   0.251150 0.814630 0.917340 -0.543503
C51   C     C_R   0.074275 0.825329 0.890389 0.690562
O19   O     O_R   0.293530 0.897310 0.087470 -0.543847
C52   C     C_R   0.131746 0.933847 0.115955 0.762968
V4    V     V_3+5 0.384070 0.769710 0.002370 1.362711
O20   O     O_3   0.109180 0.698190 0.002460 -0.373259
C53   C     C_3   0.626061 0.146779 0.307266 -0.351255
C54   C     C_3   0.641723 0.075670 0.355844 -0.303170
C55   C     C_3   0.460282 0.004388 0.337670 -0.758415
H26   H     H_    0.330601 0.051970 0.352836 0.232404
H27   H     H_    0.440633 0.951733 0.272601 0.228428
H28   H     H_    0.474919 0.955336 0.374693 0.224584
H29   H     H_    0.768999 0.026019 0.341086 0.198615
H30   H     H_    0.661779 0.124998 0.421749 0.183730
H31   H     H_    0.499245 0.196215 0.324052 0.177630
H32   H     H_    0.593607 0.100065 0.241447 0.168267
O21   O     O_3   0.416642 0.874339 0.577214 -0.575693
C56   C     C_3   0.245145 0.826815 0.526887 -0.280382
H33   H     H_    0.194445 0.874586 0.491569 0.146491
H34   H     H_    0.123957 0.816051 0.559188 0.126538
H35   H     H_    0.279161 0.750315 0.482715 0.161123
O22   O     O_3   0.810131 0.617754 0.207254 -0.550987
C57   C     C_3   0.840514 0.515600 0.152474 -0.287103
H36   H     H_    0.858946 0.514332 0.091195 0.133804
H37   H     H_    0.720555 0.459542 0.148597 0.129893
H38   H     H_    0.975793 0.488059 0.174857 0.160683

loop_
_geom_bond_atom_site_label_1
_geom_bond_atom_site_label_2
_ccdc_geom_bond_type
C33   C37   A    
C13   C19   A    
C4    C6    S    
O2    C1    A    
C7    C8    A    
C1    O6    A    
C28   C44   A    
C55   H27   S    
C3    C25   S    
O14   V3    S    
C14   C15   A    
C1    C27   S    
C16   C17   A    
O5    C3    A    
H23   C48   S    
C8    H6    S    
C32   C34   A    
C41   C44   A    
V2    O10   S    
O19   C52   A    
C5    C8    A    
C23   C52   S    
C31   C32   A    
C37   H14   S    
C44   H15   S    
C28   C43   A    
C57   H36   S    
O21   C56   S    
C53   C54   S    
C29   H18   S    
O8    V2    S    
C23   C24   D    
C40   C42   A    
O12   V3    S    
C17   H4    S    
C39   H17   S    
C54   H29   S    
O1    V2    S    
C11   C15   A    
O11   V4    S    
O7    V1    S    
C27   C30   A    
C56   H35   S    
C30   H19   S    
C24   C26   S    
O13   V3    S    
C35   C41   A    
C34   C35   A    
O9    C4    A    
C53   H32   S    
O17   V3    S    
C42   H22   S    
C55   H26   S    
C45   C46   D    
C36   H20   S    
C47   C49   S    
H12   C24   S    
C42   C43   A    
C12   C13   A    
H24   C46   S    
C25   C53   S    
O4    C2    A    
C23   H13   S    
C15   H1    S    
C13   C14   A    
C21   H3    S    
C35   C36   A    
C57   H38   S    
C7    C11   A    
C17   C18   A    
O14   C50   A    
C47   C48   D    
O17   V4    S    
C43   H16   S    
O18   C51   A    
C28   C50   S    
C20   H10   S    
C19   C22   A    
O15   C51   A    
C6    C22   A    
O16   V4    S    
O3    C4    A    
C7    H5    S    
C9    H7    S    
C2    C45   S    
C25   C26   D    
O6    V2    S    
C46   C48   S    
O12   C49   A    
C10   C12   A    
C53   H31   S    
O2    V1    S    
C54   C55   S    
C14   H8    S    
C56   H33   S    
C29   C33   A    
C29   C30   A    
O1    C2    A    
C34   C38   A    
C12   C16   A    
O5    V1    S    
O8    C3    A    
C16   H9    S    
O19   V4    S    
C54   H30   S    
C20   C21   A    
C47   O22   S    
O9    V2    S    
O7    V2    S    
O4    V1    S    
O3    V1    S    
O11   C50   A    
O22   C57   S    
C39   C40   A    
C18   C20   A    
C32   C33   A    
C18   C19   A    
H11   C26   S    
O18   V4    S    
V4    O20   S    
C22   H2    S    
C49   O16   A    
C36   C37   A    
C6    C21   A    
C57   H37   S    
O13   C52   A    
O15   V3    S    
C38   C39   A    
V3    O20   S    
C40   C41   A    
C38   H21   S    
C10   C11   A    
V1    O10   S    
C9    C10   A    
C5    C51   S    
C31   O21   S    
C55   H28   S    
C45   H25   S    
C27   C31   A    
C56   H34   S    
C5    C9    A    
