data_mof_unit_2474.cif
_audit_creation_date              2012-12-11T16:14:54-0500
_audit_creation_method            fapswitch 2.2
_symmetry_space_group_name_H-M    P1
_symmetry_Int_Tables_number       1
_space_group_crystal_system       triclinic
_cell_length_a                    13.615869
_cell_length_b                    13.616477
_cell_length_c                    28.437096
_cell_angle_alpha                 90.42109
_cell_angle_beta                  90.481182
_cell_angle_gamma                 60.043824
_cell_volume                      4567.71938218

loop_
_atom_site_label
_atom_site_type_symbol
_atom_type_description
_atom_site_fract_x
_atom_site_fract_y
_atom_site_fract_z
_atom_type_partial_charge
C1    C     C_R   0.281016 0.620304 0.566917 0.543584
C2    C     C_1   0.663842 0.649627 0.649969 -0.020214
C3    C     C_1   0.633556 0.230511 0.611505 -0.012646
C4    C     C_R   0.622827 0.601073 0.566038 0.544024
C5    C     C_R   0.773947 0.105017 0.721845 0.020192
C6    C     C_R   0.780174 0.085527 0.770790 0.296534
C7    C     C_R   0.578018 0.215095 0.778021 -0.198206
C8    C     C_R   0.569896 0.231233 0.729559 -0.169953
C9    C     C_R   0.666917 0.178285 0.701467 -0.008645
C10   C     C_R   0.683447 0.146643 0.798885 0.026652
C11   C     C_1   0.692159 0.129222 0.848842 -0.022012
C12   C     C_1   0.645489 0.633609 0.610355 -0.003884
C13   C     C_1   0.652676 0.201818 0.651945 -0.059819
C14   C     C_1   0.704156 0.103085 0.889627 -0.004544
C15   C     C_1   0.235511 0.637197 0.613515 -0.015950
C16   C     C_R   0.600692 0.279450 0.565852 0.544525
C17   C     C_R   0.186126 0.570299 0.727945 -0.114666
C18   C     C_R   0.173772 0.573731 0.776904 -0.002589
C19   C     C_R   0.168764 0.756663 0.778950 -0.003511
C20   C     C_R   0.180455 0.750952 0.729704 -0.119402
C21   C     C_R   0.188913 0.658400 0.704379 0.007560
C22   C     C_R   0.165166 0.667173 0.802472 0.041212
C23   C     C_3   0.760815 0.713066 0.753385 -0.143314
C24   C     C_1   0.140381 0.677638 0.851888 -0.089258
C25   C     C_1   0.209603 0.648867 0.654487 -0.065279
C26   C     C_1   0.109662 0.695479 0.892001 -0.036104
C27   C     C_1   0.635348 0.632437 0.388241 0.004275
C28   C     C_R   0.276756 0.621100 0.434504 0.543773
C29   C     C_R   0.725196 0.567663 0.270765 0.291716
C30   C     C_R   0.730948 0.578676 0.221885 0.284012
C31   C     C_R   0.578172 0.776140 0.226868 -0.038156
C32   C     C_R   0.577271 0.765021 0.275888 -0.166873
C33   C     C_R   0.651132 0.662383 0.297766 -0.011924
C34   C     C_3   0.691434 0.691311 0.790768 0.015149
C35   C     C_R   0.656178 0.681990 0.199746 0.006914
C36   C     C_1   0.669793 0.692157 0.150123 -0.020057
C37   C     C_1   0.643715 0.650490 0.347569 -0.012708
C38   C     C_1   0.690314 0.701614 0.109887 -0.008079
C39   C     C_1   0.635509 0.222069 0.389742 -0.009929
C40   C     C_R   0.620076 0.600348 0.434115 0.542481
C41   C     C_R   0.573162 0.184602 0.274691 -0.116099
C42   C     C_R   0.580264 0.174838 0.225982 -0.119588
C43   C     C_R   0.779352 0.120061 0.230211 -0.102488
C44   C     C_R   0.772497 0.129069 0.279107 -0.103072
C45   C     C_3   0.789321 0.599229 0.728929 -0.163091
C46   C     C_R   0.669086 0.162202 0.301191 0.035832
C47   C     C_R   0.682612 0.144585 0.203750 0.038737
C48   C     C_1   0.690567 0.126981 0.154218 -0.057792
C49   C     C_1   0.655898 0.188253 0.350097 -0.060735
C50   C     C_1   0.699073 0.101900 0.113477 -0.010828
C51   C     C_1   0.223650 0.639009 0.389943 0.003195
C52   C     C_R   0.600258 0.277282 0.433927 0.546380
C53   C     C_R   0.104966 0.759252 0.279169 0.293949
C54   C     C_R   0.092762 0.763121 0.230283 -0.107602
C55   C     C_R   0.216139 0.557914 0.225137 0.003262
C56   C     C_3   0.679653 0.661993 0.699609 0.036478
C57   C     C_R   0.225250 0.554142 0.274222 -0.154803
C58   C     C_R   0.169402 0.653821 0.300908 0.035303
C59   C     C_R   0.149309 0.663875 0.203431 -0.004860
C60   C     C_1   0.130768 0.674420 0.153915 -0.066965
C61   C     C_1   0.192560 0.647983 0.350010 -0.007605
C62   C     C_1   0.103309 0.692821 0.113535 -0.017535
C63   C     C_R   0.720044 0.055443 0.935467 0.539057
C64   C     C_3   0.651351 0.774243 0.723403 0.308131
C65   C     C_R   0.732409 0.719157 0.931317 0.541501
C66   C     C_R   0.057964 0.728914 0.936924 0.542436
C67   C     C_3   0.722155 0.577223 0.767309 -0.150458
C68   C     C_R   0.715056 0.055196 0.067617 0.544752
C69   C     C_R   0.725590 0.717328 0.064724 0.543804
C70   C     C_R   0.053912 0.727543 0.068431 0.544189
C71   C     C_3   0.583215 0.753043 0.760563 0.321096
C72   C     C_1   0.707830 0.708405 0.883326 -0.012984
C73   C     C_3   0.397281 0.887042 0.743826 -0.135992
C74   C     C_3   0.167139 0.478345 0.800907 -0.259344
C75   C     C_3   0.043268 0.511253 0.809160 -0.288308
C76   C     C_3   0.034366 0.416999 0.833850 -0.438971
C77   C     C_3   0.153899 0.861374 0.805162 -0.250314
C78   C     C_3   0.612977 0.639497 0.737280 -0.009335
C79   C     C_3   0.251216 0.837302 0.839508 -0.315121
C80   C     C_3   0.226122 0.943607 0.867278 -0.428018
C81   C     C_3   0.745807 0.397984 0.291539 -0.093747
C82   C     C_3   0.912076 0.479703 0.195937 -0.103295
C83   C     C_3   0.494793 0.889104 0.205145 -0.243844
C84   C     C_3   0.375420 0.904030 0.203655 -0.296101
C85   C     C_3   0.288875 0.019978 0.184337 -0.459040
C86   C     C_3   0.618264 0.956795 0.722866 -0.128588
C87   C     C_3   0.098687 0.925425 0.297714 -0.129688
C88   C     C_3   0.278542 0.449392 0.196943 -0.239672
C89   C     C_1   0.697282 0.701484 0.841664 -0.039094
C90   C     C_3   0.198195 0.406912 0.181304 -0.300907
C91   C     C_3   0.258938 0.300905 0.150694 -0.455341
C92   C     C_3   0.539029 0.585968 0.729373 -0.254518
C93   C     C_3   0.473583 0.594547 0.774300 -0.286333
C94   C     C_3   0.466160 0.488814 0.782890 -0.453094
C95   C     C_3   0.880127 0.047961 0.692064 -0.237455
C96   C     C_3   0.923832 0.130034 0.682327 -0.297268
C97   C     C_3   0.030994 0.073976 0.652553 -0.449773
C98   C     C_3   0.877820 0.903153 0.795536 -0.149556
Cr1   Cr    Cr6+3 0.413560 0.417690 0.499580 1.034185
Cr2   Cr    Cr6+3 0.418030 0.668340 0.500400 1.033663
Cr3   Cr    Cr6+3 0.668390 0.413960 0.499990 1.034035
Cr4   Cr    Cr6+3 0.919710 0.916540 0.003080 1.027473
Cr5   Cr    Cr6+3 0.665300 0.919470 0.999630 1.024420
Cr6   Cr    Cr6+3 0.916060 0.665490 0.000390 1.022276
H1    H     H_    0.487419 0.285566 0.713849 0.123642
H2    H     H_    0.277461 0.473709 0.291713 0.111648
H3    H     H_    0.751546 0.495961 0.786115 0.118731
H4    H     H_    0.872645 0.535257 0.714446 0.115752
H5    H     H_    0.822684 0.741379 0.760733 0.085549
H6    H     H_    0.502150 0.257015 0.799263 0.121098
H7    H     H_    0.388501 0.824607 0.721506 0.112770
H8    H     H_    0.416354 0.942324 0.721936 0.170707
H9    H     H_    0.313735 0.943129 0.760076 0.120618
H10   H     H_    0.074293 0.338370 0.812244 0.144250
H11   H     H_    0.076749 0.399509 0.868795 0.162021
H12   H     H_    0.193632 0.498614 0.708073 0.107921
H13   H     H_    0.943661 0.443604 0.839009 0.151646
H14   H     H_    0.999716 0.589579 0.830855 0.174717
H15   H     H_    0.999015 0.528254 0.774756 0.161060
H16   H     H_    0.208490 0.400343 0.778837 0.128706
H17   H     H_    0.214611 0.457080 0.834776 0.147897
H18   H     H_    0.213629 0.012581 0.843040 0.155246
H19   H     H_    0.148762 0.972618 0.888868 0.166241
H20   H     H_    0.298533 0.924493 0.891084 0.159648
H21   H     H_    0.265788 0.769811 0.864807 0.172515
H22   H     H_    0.330696 0.808593 0.820203 0.206966
H23   H     H_    0.184464 0.817923 0.711079 0.095450
H24   H     H_    0.144529 0.927292 0.779784 0.140367
H25   H     H_    0.074618 0.898494 0.825644 0.210525
H26   H     H_    0.736851 0.374169 0.254898 0.156143
H27   H     H_    0.661905 0.440575 0.309304 0.109324
H28   H     H_    0.801052 0.318772 0.311059 0.139335
H29   H     H_    0.948603 0.464386 0.232072 0.152580
H30   H     H_    0.906943 0.557526 0.181014 0.113127
H31   H     H_    0.971021 0.407043 0.173672 0.136790
H32   H     H_    0.283940 0.088138 0.207618 0.149700
H33   H     H_    0.312614 0.031158 0.148313 0.158200
H34   H     H_    0.518004 0.836555 0.297038 0.126517
H35   H     H_    0.203987 0.027196 0.182826 0.144526
H36   H     H_    0.375705 0.837062 0.180940 0.172467
H37   H     H_    0.349034 0.895537 0.239597 0.155896
H38   H     H_    0.494273 0.958449 0.226285 0.145449
H39   H     H_    0.519923 0.897257 0.168986 0.153504
H40   H     H_    0.706860 0.939435 0.724510 0.125238
H41   H     H_    0.583287 0.965396 0.758903 0.137168
H42   H     H_    0.566026 0.038761 0.704814 0.157232
H43   H     H_    0.075274 0.964463 0.262230 0.100168
H44   H     H_    0.192616 0.877202 0.302100 0.114205
H45   H     H_    0.492549 0.211553 0.291611 0.106463
H46   H     H_    0.064760 0.995445 0.323850 0.144492
H47   H     H_    0.198158 0.273137 0.139641 0.142578
H48   H     H_    0.293553 0.318929 0.118744 0.162985
H49   H     H_    0.329101 0.231103 0.170664 0.144588
H50   H     H_    0.163919 0.386798 0.212847 0.153197
H51   H     H_    0.126096 0.473526 0.160859 0.168670
H52   H     H_    0.318892 0.463678 0.165902 0.152329
H53   H     H_    0.347979 0.382723 0.218486 0.132139
H54   H     H_    0.428596 0.469777 0.751825 0.167681
H55   H     H_    0.552648 0.417541 0.790086 0.167615
H56   H     H_    0.506412 0.190348 0.205645 0.098577
H57   H     H_    0.412535 0.501401 0.814073 0.147131
H58   H     H_    0.512715 0.609556 0.806032 0.182238
H59   H     H_    0.387427 0.666952 0.770347 0.178934
H60   H     H_    0.478834 0.629110 0.699894 0.133197
H61   H     H_    0.595182 0.496091 0.718761 0.153901
H62   H     H_    0.100039 0.000719 0.671499 0.141521
H63   H     H_    0.014160 0.044588 0.618473 0.165758
H64   H     H_    0.059220 0.136094 0.645408 0.147076
H65   H     H_    0.858003 0.205980 0.663458 0.172471
H66   H     H_    0.943103 0.158344 0.716207 0.169722
H67   H     H_    0.859590 0.093886 0.213123 0.110214
H68   H     H_    0.948210 0.971715 0.709880 0.178328
H69   H     H_    0.862013 0.017675 0.658464 0.140964
H70   H     H_    0.912515 0.851622 0.763116 0.122975
H71   H     H_    0.792303 0.915053 0.803119 0.102178
H72   H     H_    0.931707 0.854421 0.825594 0.147373
H73   H     H_    0.846569 0.112913 0.299512 0.123372
H74   H     H_    0.039068 0.843756 0.213210 0.116815
O1    O     O_R   0.503010 0.303330 0.550820 -0.504693
O2    O     O_R   0.827060 0.642880 0.947470 -0.512461
O3    O     O_R   0.013800 0.673690 0.954100 -0.499058
O4    O     O_R   0.320040 0.522690 0.547470 -0.494240
O5    O     O_R   0.031250 0.825430 0.055080 -0.508382
O6    O     O_R   0.814180 0.011990 0.050320 -0.493995
O7    O     O_R   0.640680 0.032900 0.051920 -0.513283
O8    O     O_R   0.671090 0.815590 0.046300 -0.499765
O9    O     O_R   0.822940 0.642440 0.050310 -0.502163
O10   O     O_R   0.009970 0.673280 0.049430 -0.498920
O11   O     O_3   0.833690 0.833830 0.001040 -0.252847
O12   O     O_R   0.522480 0.657560 0.452870 -0.499342
O13   O     O_R   0.303930 0.694040 0.551750 -0.508748
O14   O     O_R   0.523510 0.657900 0.548240 -0.494302
O15   O     O_R   0.694770 0.503160 0.551780 -0.510964
O16   O     O_R   0.657990 0.319990 0.547370 -0.498631
O17   O     O_R   0.501900 0.302960 0.447930 -0.506971
O18   O     O_R   0.319020 0.522350 0.452090 -0.497753
O19   O     O_R   0.302820 0.693680 0.448870 -0.504717
O20   O     O_3   0.478475 0.834488 0.779943 -0.592632
O21   O     O_3   0.797233 0.465750 0.292488 -0.557883
O22   O     O_3   0.805541 0.486030 0.195297 -0.557605
O23   O     O_R   0.693670 0.502790 0.448900 -0.497991
O24   O     O_3   0.613265 0.872515 0.696023 -0.580280
O25   O     O_3   0.050014 0.856888 0.306180 -0.557274
O26   O     O_3   0.880258 0.005436 0.791486 -0.595348
O27   O     O_R   0.656970 0.319650 0.452000 -0.495989
O28   O     O_3   0.499990 0.499990 0.499990 -0.257583
O29   O     O_R   0.035380 0.825870 0.952240 -0.509527
O30   O     O_R   0.818010 0.012400 0.954990 -0.491809
O31   O     O_R   0.644810 0.033340 0.949080 -0.511250
O32   O     O_R   0.674910 0.816000 0.950960 -0.492149

loop_
_geom_bond_atom_site_label_1
_geom_bond_atom_site_label_2
_ccdc_geom_bond_type
C7    C10   A    
C30   O22   S    
C93   C94   S    
C23   C45   S    
C55   C59   A    
C41   C42   A    
C4    O14   A    
C95   C96   S    
Cr5   O7    S    
C75   C76   S    
C2    C12   T    
C8    H1    S    
Cr5   O31   S    
C57   C58   A    
C86   H40   S    
C7    C8    A    
C80   H18   S    
C53   C54   A    
C6    O26   S    
C52   O17   A    
C46   C49   S    
C5    C9    A    
C94   H55   S    
C34   C67   S    
C87   H43   S    
C30   C35   A    
C71   O20   S    
C83   C84   S    
Cr4   O5    S    
C88   H52   S    
C98   O26   S    
C24   C26   T    
C91   H49   S    
C5    C6    A    
C98   H70   S    
C11   C14   T    
C15   C25   T    
C41   H45   S    
C93   H59   S    
C97   H62   S    
Cr1   O17   S    
C55   C88   S    
Cr4   O11   S    
C73   H9    S    
C62   C70   S    
Cr4   O29   S    
C60   C62   T    
C64   C71   S    
C82   H31   S    
C19   C77   S    
C9    C13   S    
Cr1   O4    S    
C64   O24   S    
C28   O18   A    
C92   H61   S    
C85   H35   S    
C35   C36   S    
C45   C56   S    
C44   C46   A    
C8    C9    A    
C29   O21   S    
C87   H46   S    
C51   C61   T    
C14   C63   S    
C45   C67   S    
C76   H10   S    
C41   C46   A    
C56   C64   S    
C1    C15   S    
C90   H50   S    
C95   H68   S    
C86   O24   S    
C3    C13   T    
C45   H4    S    
C70   O10   A    
Cr2   O19   S    
C92   H60   S    
C58   C61   S    
C48   C50   T    
Cr6   O3    S    
C79   H21   S    
C38   C69   S    
C59   C60   S    
C29   C33   A    
C16   O16   A    
C96   H66   S    
C96   C97   S    
C32   H34   S    
Cr2   O14   S    
Cr5   O8    S    
C76   H11   S    
C63   O31   A    
C23   H5    S    
C86   H42   S    
Cr5   O32   S    
C87   O25   S    
C5    C95   S    
Cr3   O15   S    
C73   H7    S    
C54   C59   A    
C77   C79   S    
C4    O15   A    
Cr6   O10   S    
Cr2   O12   S    
C87   H44   S    
Cr1   O28   S    
C52   O27   A    
C26   C66   S    
C19   C22   A    
C75   H15   S    
C84   C85   S    
C20   H23   S    
C10   C11   S    
Cr2   O28   S    
C81   H28   S    
C77   H25   S    
C56   C78   S    
C78   C92   S    
C97   H63   S    
Cr1   O18   S    
C33   C37   S    
C54   H74   S    
C39   C52   S    
C82   H30   S    
C43   C44   A    
Cr1   O1    S    
C29   C30   A    
C98   H72   S    
C18   C74   S    
C47   C48   S    
C27   C40   S    
C53   C58   A    
C23   C34   S    
C73   O20   S    
C83   H39   S    
C17   C18   A    
C31   C83   S    
C53   O25   S    
C88   H53   S    
C40   O23   A    
C94   H57   S    
C65   O32   A    
C77   H24   S    
Cr3   O27   S    
C2    C56   S    
Cr5   O11   S    
C1    O13   A    
C23   C64   S    
C39   C49   T    
C79   H22   S    
C88   C90   S    
C68   O7    A    
C96   H65   S    
C55   C57   A    
C75   H14   S    
C22   C24   S    
Cr2   O13   S    
C4    C12   S    
C90   C91   S    
C97   H64   S    
C86   H41   S    
C85   H33   S    
Cr3   O16   S    
C73   H8    S    
C80   H20   S    
Cr6   O9    S    
C21   C25   S    
C68   O6    A    
C43   H67   S    
C20   C21   A    
C18   C22   A    
C66   O3    A    
C31   C32   A    
C42   H56   S    
C76   H13   S    
C44   H73   S    
C6    C10   A    
C83   H38   S    
C1    O4    A    
C16   O1    A    
Cr4   O30   S    
Cr6   O2    S    
Cr3   O28   S    
C65   O2    A    
C65   C72   S    
C74   H16   S    
C28   O19   A    
C7    H6    S    
C67   C78   S    
C63   O30   A    
Cr4   O6    S    
C32   C33   A    
C19   C20   A    
C36   C38   T    
C95   H69   S    
C34   C89   S    
C69   O9    A    
Cr3   O23   S    
C91   H47   S    
C66   O29   A    
C67   H3    S    
C81   H26   S    
C91   H48   S    
C43   C47   A    
C84   H37   S    
C82   H29   S    
Cr6   O11   S    
C34   C71   S    
C92   C93   S    
C28   C51   S    
C57   H2    S    
C31   C35   A    
C42   C47   A    
C81   O21   S    
C93   H58   S    
C81   H27   S    
C82   O22   S    
C85   H32   S    
C79   C80   S    
C70   O5    A    
C74   H17   S    
C40   O12   A    
C74   C75   S    
C84   H36   S    
C94   H54   S    
C72   C89   T    
C90   H51   S    
C50   C68   S    
C69   O8    A    
C71   C78   S    
C3    C16   S    
C27   C37   T    
C17   H12   S    
C98   H71   S    
C80   H19   S    
C17   C21   A    
