data_mof_unit_1121.cif
_audit_creation_date              2012-12-10T20:52:58-0500
_audit_creation_method            fapswitch 2.2
_symmetry_space_group_name_H-M    P1
_symmetry_Int_Tables_number       1
_space_group_crystal_system       triclinic
_cell_length_a                    18.35778
_cell_length_b                    18.357819
_cell_length_c                    18.357904
_cell_angle_alpha                 59.844334
_cell_angle_beta                  59.84394
_cell_angle_gamma                 59.844192
_cell_volume                      4359.23809038

loop_
_atom_site_label
_atom_site_type_symbol
_atom_type_description
_atom_site_fract_x
_atom_site_fract_y
_atom_site_fract_z
_atom_type_partial_charge
C1    C     C_R   0.389939 0.110106 0.110223 0.783467
C2    C     C_R   0.384041 0.805250 0.775090 -0.148602
C3    C     C_R   0.035508 0.551253 0.909848 0.011284
C4    C     C_R   0.448757 0.090157 0.964489 0.011281
C5    C     C_R   0.551241 0.909843 0.035511 0.011284
C6    C     C_R   0.945924 0.946001 0.553775 -0.094439
C7    C     C_R   0.054079 0.053996 0.446225 -0.094440
C8    C     C_R   0.946004 0.553772 0.945921 -0.094459
C9    C     C_R   0.053996 0.446228 0.054079 -0.094460
C10   C     C_R   0.553771 0.945922 0.946003 -0.094458
C11   C     C_R   0.446229 0.054079 0.053996 -0.094458
C12   C     C_R   0.194748 0.224913 0.615956 -0.148610
C13   C     C_R   0.805253 0.775091 0.384041 -0.148611
C14   C     C_R   0.182562 0.574865 0.285097 0.425176
C15   C     C_R   0.817440 0.425133 0.714904 0.425179
C16   C     C_R   0.574862 0.285101 0.182565 0.425171
C17   C     C_R   0.425135 0.714900 0.817438 0.425169
C18   C     C_R   0.285098 0.182564 0.574862 0.425171
C19   C     C_R   0.714902 0.817439 0.425135 0.425171
C20   C     C_R   0.091958 0.584006 0.315341 0.026154
C21   C     C_R   0.610060 0.889894 0.889776 0.783466
C22   C     C_R   0.908044 0.415994 0.684660 0.026153
C23   C     C_R   0.584006 0.315342 0.091961 0.026153
C24   C     C_R   0.415994 0.684658 0.908041 0.026152
C25   C     C_R   0.315340 0.091961 0.584005 0.026152
C26   C     C_R   0.684660 0.908042 0.415994 0.026151
C27   C     C_R   0.045224 0.634234 0.254415 -0.196131
C28   C     C_R   0.954778 0.365768 0.745586 -0.196131
C29   C     C_R   0.634238 0.254414 0.045228 -0.196133
C30   C     C_R   0.365763 0.745586 0.954774 -0.196131
C31   C     C_R   0.254412 0.045227 0.634238 -0.196129
C32   C     C_R   0.110108 0.110221 0.389939 0.783455
C33   C     C_R   0.745588 0.954774 0.365766 -0.196128
C34   C     C_R   0.087963 0.675107 0.164499 -0.107800
C35   C     C_R   0.912039 0.324897 0.835502 -0.107797
C36   C     C_R   0.675112 0.164499 0.087968 -0.107805
C37   C     C_R   0.324889 0.835501 0.912035 -0.107803
C38   C     C_R   0.164497 0.087966 0.675112 -0.107800
C39   C     C_R   0.835504 0.912035 0.324891 -0.107798
C40   C     C_R   0.177649 0.665960 0.134703 -0.197260
C41   C     C_R   0.822353 0.334042 0.865298 -0.197258
C42   C     C_R   0.665962 0.134706 0.177654 -0.197260
C43   C     C_R   0.889894 0.889777 0.610061 0.783461
C44   C     C_R   0.334037 0.865295 0.822350 -0.197259
C45   C     C_R   0.134703 0.177652 0.665963 -0.197258
C46   C     C_R   0.865298 0.822351 0.334037 -0.197260
C47   C     C_R   0.990173 0.590539 0.465083 -0.240348
C48   C     C_R   0.009828 0.409461 0.534917 -0.240345
C49   C     C_R   0.590539 0.465084 0.990174 -0.240354
C50   C     C_R   0.409461 0.534916 0.009826 -0.240353
C51   C     C_R   0.465082 0.990173 0.590539 -0.240350
C52   C     C_R   0.534918 0.009828 0.409461 -0.240350
C53   C     C_R   0.944614 0.552534 0.555008 -0.022794
C54   C     C_R   0.110222 0.389939 0.110107 0.783464
C55   C     C_R   0.055386 0.447466 0.444992 -0.022795
C56   C     C_R   0.552533 0.555008 0.944614 -0.022793
C57   C     C_R   0.447466 0.444992 0.055386 -0.022793
C58   C     C_R   0.555008 0.944614 0.552534 -0.022792
C59   C     C_R   0.444992 0.055387 0.447466 -0.022792
C60   C     C_R   0.954388 0.460815 0.590394 0.055812
C61   C     C_R   0.045613 0.539185 0.409606 0.055813
C62   C     C_R   0.460815 0.590393 0.954387 0.055814
C63   C     C_R   0.539185 0.409606 0.045614 0.055814
C64   C     C_R   0.590395 0.954388 0.460815 0.055819
C65   C     C_R   0.889778 0.610061 0.889893 0.783465
C66   C     C_R   0.409606 0.045614 0.539184 0.055818
C67   C     C_R   0.110773 0.390400 0.389785 0.843144
C68   C     C_R   0.889227 0.609600 0.610215 0.843141
C69   C     C_R   0.390400 0.389785 0.110773 0.843147
C70   C     C_R   0.609600 0.610215 0.889227 0.843145
C71   C     C_R   0.389785 0.110773 0.390399 0.843148
C72   C     C_R   0.610215 0.889227 0.609600 0.843149
C73   C     C_R   0.180463 0.927327 0.399438 -0.220189
C74   C     C_R   0.819535 0.072675 0.600555 -0.220218
C75   C     C_R   0.927346 0.399387 0.180441 -0.220171
C76   C     C_R   0.224910 0.615957 0.194746 -0.148610
C77   C     C_R   0.072652 0.600616 0.819561 -0.220167
C78   C     C_R   0.399404 0.180449 0.927343 -0.220184
C79   C     C_R   0.600592 0.819549 0.072659 -0.220181
C80   C     C_R   0.215371 0.838779 0.403060 0.457852
C81   C     C_R   0.784620 0.161231 0.596909 0.457828
C82   C     C_R   0.838811 0.402980 0.215334 0.457841
C83   C     C_R   0.161187 0.597023 0.784667 0.457842
C84   C     C_R   0.403002 0.215346 0.838807 0.457831
C85   C     C_R   0.596992 0.784650 0.161196 0.457833
C86   C     C_R   0.161601 0.785306 0.456387 -0.100283
C87   C     C_R   0.775092 0.384042 0.805255 -0.148614
C88   C     C_R   0.838386 0.214708 0.543566 -0.100241
C89   C     C_R   0.785344 0.456301 0.161560 -0.100363
C90   C     C_R   0.214656 0.543700 0.838440 -0.100365
C91   C     C_R   0.456321 0.161573 0.785338 -0.100335
C92   C     C_R   0.543674 0.838424 0.214664 -0.100340
C93   C     C_R   0.072915 0.820030 0.506266 -0.209566
C94   C     C_R   0.927076 0.179980 0.493701 -0.209557
C95   C     C_R   0.820056 0.506204 0.072887 -0.209571
C96   C     C_R   0.179945 0.493795 0.927112 -0.209567
C97   C     C_R   0.506217 0.072896 0.820051 -0.209597
C98   C     C_R   0.615956 0.194751 0.224914 -0.148600
C99   C     C_R   0.493779 0.927102 0.179950 -0.209581
C100  C     C_R   0.035642 0.910065 0.502960 0.069332
C101  C     C_R   0.964358 0.089936 0.497031 0.069322
C102  C     C_R   0.910079 0.502928 0.035626 0.069350
C103  C     C_R   0.089921 0.497072 0.964373 0.069350
C104  C     C_R   0.502935 0.035631 0.910076 0.069326
C105  C     C_R   0.497063 0.964368 0.089924 0.069331
C106  C     C_R   0.090166 0.964479 0.448777 0.011284
C107  C     C_R   0.909836 0.035519 0.551221 0.011289
C108  C     C_R   0.964491 0.448748 0.090152 0.011288
Cl1   Cl    Cl    0.327281 0.794611 0.340909 -0.549239
Cl2   Cl    Cl    0.488403 0.641563 0.755421 -0.511195
Cl3   Cl    Cl    0.358435 0.244582 0.511591 -0.511191
Cl4   Cl    Cl    0.641566 0.755422 0.488401 -0.511200
Cl5   Cl    Cl    0.672699 0.205408 0.659042 -0.549209
Cl6   Cl    Cl    0.794647 0.340809 0.327239 -0.549332
Cl7   Cl    Cl    0.205347 0.659199 0.672766 -0.549309
Cl8   Cl    Cl    0.340840 0.327254 0.794643 -0.549238
Cl9   Cl    Cl    0.659152 0.672740 0.205362 -0.549232
Cl10  Cl    Cl    0.244580 0.511599 0.358431 -0.511200
Cl11  Cl    Cl    0.755422 0.488397 0.641570 -0.511204
Cl12  Cl    Cl    0.511592 0.358438 0.244581 -0.511188
H1    H     H_    0.811346 0.283669 0.540105 0.206114
H2    H     H_    0.339555 0.562111 0.016041 0.167275
H3    H     H_    0.437886 0.983957 0.660445 0.167274
H4    H     H_    0.562115 0.016044 0.339555 0.167274
H5    H     H_    0.225068 0.966055 0.358115 0.157152
H6    H     H_    0.774932 0.033945 0.641886 0.157161
H7    H     H_    0.966067 0.358071 0.225051 0.157163
H8    H     H_    0.033930 0.641933 0.774952 0.157170
H9    H     H_    0.358089 0.225058 0.966066 0.157168
H10   H     H_    0.641906 0.774940 0.033936 0.157166
H11   H     H_    0.034387 0.775250 0.547723 0.153814
H12   H     H_    0.188632 0.716354 0.459822 0.206089
H13   H     H_    0.965603 0.224764 0.452233 0.153800
H14   H     H_    0.775276 0.547657 0.034357 0.153840
H15   H     H_    0.224725 0.452342 0.965640 0.153840
H16   H     H_    0.547667 0.034366 0.775272 0.153845
H17   H     H_    0.452329 0.965632 0.224730 0.153839
H18   H     H_    0.210454 0.697418 0.064922 0.151903
H19   H     H_    0.789548 0.302585 0.935080 0.151902
H20   H     H_    0.697422 0.064925 0.210459 0.151902
H21   H     H_    0.302577 0.935076 0.789545 0.151901
H22   H     H_    0.064921 0.210458 0.697423 0.151905
H23   H     H_    0.283598 0.540287 0.811419 0.206073
H24   H     H_    0.935080 0.789546 0.302577 0.151904
H25   H     H_    0.294596 0.608791 0.170942 0.174135
H26   H     H_    0.705406 0.391207 0.829060 0.174132
H27   H     H_    0.608787 0.170948 0.294599 0.174142
H28   H     H_    0.391208 0.829053 0.705404 0.174140
H29   H     H_    0.170944 0.294599 0.608789 0.174136
H30   H     H_    0.829057 0.705406 0.391206 0.174134
H31   H     H_    0.975926 0.640911 0.276502 0.153262
H32   H     H_    0.024075 0.359092 0.723498 0.153263
H33   H     H_    0.640919 0.276499 0.975930 0.153257
H34   H     H_    0.716403 0.459714 0.188579 0.206075
H35   H     H_    0.359085 0.723500 0.024071 0.153260
H36   H     H_    0.276498 0.975929 0.640917 0.153266
H37   H     H_    0.723502 0.024072 0.359089 0.153267
H38   H     H_    0.051635 0.713557 0.117803 0.150724
H39   H     H_    0.948367 0.286449 0.882198 0.150725
H40   H     H_    0.713566 0.117801 0.051641 0.150720
H41   H     H_    0.286437 0.882199 0.948363 0.150722
H42   H     H_    0.117799 0.051638 0.713566 0.150725
H43   H     H_    0.882202 0.948363 0.286440 0.150725
H44   H     H_    0.540256 0.811400 0.283607 0.206091
H45   H     H_    0.459738 0.188596 0.716395 0.206098
H46   H     H_    0.983956 0.660445 0.437887 0.167279
H47   H     H_    0.016044 0.339554 0.562113 0.167282
H48   H     H_    0.660445 0.437889 0.983959 0.167274
O1    O     O_3   0.250000 0.250000 0.250000 -0.497170
O2    O     O_R   0.865800 0.694910 0.573470 -0.642193
O3    O     O_R   0.305090 0.426530 0.134200 -0.642196
O4    O     O_R   0.694910 0.573470 0.865800 -0.642196
O5    O     O_R   0.426530 0.134200 0.305090 -0.642197
O6    O     O_R   0.573470 0.865800 0.694910 -0.642197
O7    O     O_R   0.134190 0.426530 0.134200 -0.642174
O8    O     O_R   0.865810 0.573470 0.865800 -0.642174
O9    O     O_R   0.426530 0.134200 0.134190 -0.642174
O10   O     O_R   0.573470 0.865800 0.865810 -0.642173
O11   O     O_R   0.134200 0.134190 0.426530 -0.642153
O12   O     O_3   0.750000 0.750000 0.750000 -0.497169
O13   O     O_R   0.865800 0.865810 0.573470 -0.642161
O14   O     O_R   0.426530 0.305080 0.134210 -0.634054
O15   O     O_R   0.573470 0.694920 0.865790 -0.634053
O16   O     O_R   0.305080 0.134210 0.426530 -0.634052
O17   O     O_R   0.694920 0.865790 0.573470 -0.634051
O18   O     O_R   0.134210 0.426530 0.305080 -0.634054
O19   O     O_R   0.865790 0.573470 0.694920 -0.634053
O20   O     O_R   0.305080 0.134200 0.134200 -0.632338
O21   O     O_R   0.694920 0.865800 0.865800 -0.632341
O22   O     O_R   0.134200 0.134200 0.305080 -0.632343
O23   O     O_R   0.865800 0.865800 0.694920 -0.632342
O24   O     O_R   0.134200 0.305080 0.134200 -0.632341
O25   O     O_R   0.865800 0.694920 0.865800 -0.632343
O26   O     O_R   0.134200 0.305090 0.426530 -0.642191
Zn1   Zn    Zn3+2 0.206620 0.206630 0.380140 1.000770
Zn2   Zn    Zn3+2 0.793380 0.793370 0.619860 1.000767
Zn3   Zn    Zn3+2 0.206630 0.380140 0.206620 1.000758
Zn4   Zn    Zn3+2 0.793370 0.619860 0.793380 1.000758
Zn5   Zn    Zn3+2 0.380140 0.206620 0.206630 1.000760
Zn6   Zn    Zn3+2 0.619860 0.793380 0.793370 1.000762
Zn7   Zn    Zn3+2 0.206620 0.206620 0.206620 0.981164
Zn8   Zn    Zn3+2 0.793380 0.793380 0.793380 0.981164

loop_
_geom_bond_atom_site_label_1
_geom_bond_atom_site_label_2
_ccdc_geom_bond_type
C25   C31   A    
C48   C55   A    
C101  C107  A    
C49   C63   A    
C87   H26   S    
O5    Zn5   S    
C51   H3    S    
C36   C42   A    
C1    C11   S    
C75   C82   A    
C86   H12   S    
C17   Cl2   S    
C31   H36   S    
C89   H34   S    
O1    Zn1   S    
O11   Zn1   S    
C19   Cl4   S    
C9    C108  A    
C29   C36   A    
C33   C39   A    
C82   C89   A    
C54   O24   A    
C34   C40   A    
C23   C29   A    
C37   H41   S    
C86   C93   A    
C78   H9    S    
C13   H30   S    
O12   Zn8   S    
C16   Cl12  S    
C59   C66   A    
C22   C60   S    
C13   C46   A    
C98   H27   S    
C77   C83   A    
C2    H28   S    
C4    C104  A    
O20   Zn7   S    
C6    C100  A    
C94   H13   S    
C55   C67   S    
C69   O3    A    
C20   C61   S    
C19   C26   A    
C53   C68   S    
C70   O4    A    
O7    Zn3   S    
C38   C45   A    
C80   C86   A    
C74   C107  A    
C25   C66   S    
C1    O9    A    
C85   C92   A    
C15   C22   A    
C94   C101  A    
C2    C44   A    
C44   H21   S    
C14   Cl10  S    
C50   H2    S    
C80   Cl1   S    
C11   C105  A    
C27   H31   S    
O24   Zn7   S    
O18   Zn3   S    
O4    Zn4   S    
O23   Zn8   S    
C72   O6    A    
C5    C79   A    
C67   O26   A    
C90   H23   S    
O12   Zn2   S    
C95   C102  A    
C9    C103  A    
C69   O14   A    
O1    Zn5   S    
C92   H44   S    
C23   C63   S    
O26   Zn1   S    
C43   O23   A    
C8    C65   S    
C10   C21   S    
C22   C28   A    
C71   O5    A    
C2    C17   A    
C18   C25   A    
C68   O2    A    
C41   C87   A    
C71   O16   A    
C53   C60   A    
C33   H37   S    
C48   C60   A    
C96   H15   S    
C65   O25   A    
C27   C34   A    
C58   C64   A    
C99   C105  A    
C88   C94   A    
C17   C24   A    
C13   C19   A    
O19   Zn4   S    
C42   H20   S    
C97   C104  A    
C14   C20   A    
C18   Cl3   S    
C28   C35   A    
C49   H48   S    
C3    C8    A    
C52   C64   A    
C47   H46   S    
C88   H1    S    
C5    C105  A    
C79   H10   S    
C43   O13   A    
C95   H14   S    
O25   Zn8   S    
C40   C76   A    
C30   C37   A    
C40   H18   S    
C51   C66   A    
C14   C76   A    
C54   O7    A    
C89   C95   A    
C85   Cl9   S    
C4    C78   A    
O12   Zn6   S    
C52   C59   A    
C83   Cl7   S    
C26   C33   A    
C21   O21   A    
C38   H42   S    
C6    C107  A    
C12   C18   A    
C7    C106  A    
C32   O22   A    
C32   O11   A    
C51   C58   A    
C91   C97   A    
C4    C11   A    
C102  C108  A    
C93   C100  A    
C82   Cl6   S    
C77   H8    S    
C39   C46   A    
C34   H38   S    
C21   O10   A    
C84   C91   A    
C76   H25   S    
C28   H32   S    
C16   C23   A    
C56   C70   S    
C6    C43   S    
C58   C72   S    
C65   O8    A    
O9    Zn5   S    
C45   H22   S    
C50   C62   A    
C56   C62   A    
C96   C103  A    
C24   C30   A    
C74   C81   A    
C39   H43   S    
C3    C77   A    
C79   C85   A    
O1    Zn3   S    
C1    O20   A    
C3    C103  A    
C83   C90   A    
O10   Zn6   S    
C30   H35   S    
C24   C62   S    
C7    C32   S    
C50   C57   A    
C100  C106  A    
C12   H29   S    
C91   H45   S    
O14   Zn5   S    
C57   C63   A    
O8    Zn4   S    
C12   C45   A    
C47   C61   A    
C46   H24   S    
C67   O18   A    
O22   Zn7   S    
C90   C96   A    
C20   C27   A    
C26   C64   S    
O21   Zn8   S    
O13   Zn2   S    
C49   C56   A    
O6    Zn6   S    
O15   Zn6   S    
C31   C38   A    
C47   C53   A    
C37   C44   A    
C42   C98   A    
C29   H33   S    
C5    C10   A    
O3    Zn3   S    
O2    Zn2   S    
C52   H4    S    
C16   C98   A    
C73   C106  A    
C74   H6    S    
C48   H47   S    
C73   H5    S    
C55   C61   A    
C10   C104  A    
C73   C80   A    
C15   Cl11  S    
O16   Zn1   S    
C75   H7    S    
C35   C41   A    
C35   H39   S    
C72   O17   A    
C41   H19   S    
C81   C88   A    
O12   Zn4   S    
C36   H40   S    
O1    Zn7   S    
C68   O19   A    
C78   C84   A    
C70   O15   A    
C75   C108  A    
C84   Cl8   S    
C7    C101  A    
C15   C87   A    
C81   Cl5   S    
C99   H17   S    
C9    C54   S    
O17   Zn2   S    
C97   H16   S    
C57   C69   S    
C93   H11   S    
C8    C102  A    
C92   C99   A    
C59   C71   S    
