data_mof_unit_204.cif
_audit_creation_date              2012-12-11T17:07:29-0500
_audit_creation_method            fapswitch 2.2
_symmetry_space_group_name_H-M    P1
_symmetry_Int_Tables_number       1
_space_group_crystal_system       triclinic
_cell_length_a                    6.971978
_cell_length_b                    14.445599
_cell_length_c                    16.155373
_cell_angle_alpha                 90.011701
_cell_angle_beta                  89.774676
_cell_angle_gamma                 90.298452
_cell_volume                      1627.04398978

loop_
_atom_site_label
_atom_site_type_symbol
_atom_type_description
_atom_site_fract_x
_atom_site_fract_y
_atom_site_fract_z
_atom_type_partial_charge
O1    O     O_R   0.505720 0.583900 0.413310 -0.541416
O2    O     O_R   0.175940 0.594920 0.586080 -0.541509
O3    O     O_R   0.005640 0.416100 0.586690 -0.535762
C1    C     C_R   0.344999 0.617351 0.614450 0.710772
O4    O     O_R   0.176000 0.594930 0.413930 -0.535078
O5    O     O_R   0.005700 0.416110 0.413310 -0.546781
C2    C     C_R   0.345105 0.617205 0.385436 0.714974
O6    O     O_R   0.505660 0.583890 0.586690 -0.540101
O7    O     O_3   0.339200 0.441330 0.500000 -0.365118
V1    V     V_3+5 0.064350 0.510880 0.500000 1.467118
O8    O     O_R   0.675980 0.405080 0.413920 -0.528250
C3    C     C_R   0.844676 0.386231 0.382893 0.750069
O9    O     O_R   0.675920 0.405070 0.586070 -0.526673
C4    C     C_R   0.843566 0.380516 0.612883 0.759984
V2    V     V_3+5 0.564340 0.489120 0.500000 1.485779
O10   O     O_3   0.839360 0.558670 0.500000 -0.365211
H1    H     H_    0.070874 0.069941 0.517011 0.175698
C5    C     C_R   0.697710 0.423676 0.776502 -0.211701
C6    C     C_R   0.632180 0.448495 0.854970 -0.106906
C7    C     C_R   0.649156 0.387218 0.920834 0.331471
C8    C     C_R   0.731423 0.300562 0.908410 -0.172570
C9    C     C_R   0.797647 0.273162 0.829184 0.028771
C10   C     C_R   0.781322 0.336110 0.761711 0.064537
C11   C     C_R   0.884898 0.185825 0.817255 -0.141547
C12   C     C_R   0.956050 0.161512 0.737944 0.049081
C13   C     C_R   0.918060 0.219264 0.668438 0.020802
C14   C     C_R   0.845968 0.310463 0.681279 -0.151630
C15   C     C_R   0.056674 0.077678 0.725445 -0.170820
C16   C     C_R   0.110014 0.049244 0.646556 -0.164681
C17   C     C_R   0.048951 0.098742 0.578206 -0.060281
C18   C     C_R   0.944743 0.180253 0.588422 0.219763
H2    H     H_    0.679612 0.473624 0.727585 0.122098
H3    H     H_    0.567919 0.515758 0.864460 0.170458
H4    H     H_    0.744633 0.255762 0.961715 0.123060
H5    H     H_    0.094452 0.032551 0.775933 0.122199
H6    H     H_    0.186715 0.984904 0.638188 0.143560
C19   C     C_R   0.716438 0.240872 0.194262 0.108747
C20   C     C_R   0.880611 0.187655 0.181333 -0.078964
C21   C     C_R   0.034804 0.202431 0.235168 -0.142474
H7    H     H_    0.157442 0.158394 0.230701 0.176099
C22   C     C_R   0.024227 0.267776 0.299642 -0.122192
H8    H     H_    0.141661 0.272937 0.342839 0.149371
C23   C     C_R   0.857571 0.320578 0.312424 -0.064562
C24   C     C_R   0.706427 0.307853 0.256669 0.081288
C25   C     C_3   0.503606 0.283872 0.276129 -0.424866
C26   C     C_3   0.517623 0.207928 0.211496 0.089895
H9    H     H_    0.405418 0.340703 0.258036 0.157384
H10   H     H_    0.484621 0.258375 0.340592 0.232142
H11   H     H_    0.422014 0.218002 0.157393 0.129019
C27   C     C_R   0.506419 0.683003 0.740881 0.053525
C28   C     C_R   0.354061 0.683692 0.684437 -0.093716
C29   C     C_R   0.204309 0.746631 0.699520 -0.151218
H12   H     H_    0.083168 0.749516 0.658089 0.141114
C30   C     C_R   0.215313 0.810718 0.765135 -0.140673
H13   H     H_    0.101697 0.860725 0.772323 0.123376
C31   C     C_R   0.375817 0.813479 0.817998 -0.116524
C32   C     C_R   0.516105 0.745739 0.806306 0.124147
C33   C     C_3   0.727631 0.756577 0.798249 0.001862
C34   C     C_3   0.717332 0.689848 0.725556 -0.438863
H14   H     H_    0.770167 0.828058 0.780285 0.111224
H15   H     H_    0.793357 0.623790 0.736502 0.188560
H16   H     H_    0.749926 0.723123 0.665045 0.174256
C35   C     C_R   0.503326 0.752205 0.312610 0.112998
C36   C     C_R   0.352894 0.687825 0.318850 -0.127287
C37   C     C_R   0.202912 0.695407 0.260912 -0.122302
H17   H     H_    0.081851 0.648440 0.263876 0.129406
C38   C     C_R   0.213956 0.759396 0.195053 -0.154249
H18   H     H_    0.100524 0.760281 0.149582 0.143343
C39   C     C_R   0.376037 0.817094 0.184826 -0.107070
C40   C     C_R   0.515026 0.814591 0.247107 0.142771
C41   C     C_3   0.727487 0.806084 0.241453 -0.422475
C42   C     C_3   0.715022 0.738786 0.313966 -0.004285
H19   H     H_    0.801876 0.872316 0.255937 0.223025
H20   H     H_    0.772810 0.772635 0.182681 0.159382
H21   H     H_    0.756010 0.666794 0.297723 0.113682
O11   O     O_R   0.229140 0.916090 0.913340 -0.538527
O12   O     O_R   0.558860 0.905090 0.086080 -0.530747
O13   O     O_R   0.729100 0.083920 0.086690 -0.525663
C43   C     C_R   0.389458 0.882940 0.114645 0.764752
O14   O     O_R   0.558860 0.905090 0.913930 -0.537954
O15   O     O_R   0.729100 0.083920 0.913310 -0.541073
C44   C     C_R   0.389780 0.883350 0.885019 0.704907
O16   O     O_R   0.229140 0.916080 0.086720 -0.537532
O17   O     O_3   0.395570 0.058660 0.000020 -0.370071
V3    V     V_3+5 0.670450 0.989140 0.000000 1.491403
O18   O     O_R   0.058810 0.094980 0.913910 -0.544600
C45   C     C_R   0.891082 0.117387 0.885948 0.678385
O19   O     O_R   0.058810 0.094980 0.086060 -0.544337
C46   C     C_R   0.890008 0.116855 0.114896 0.723537
V4    V     V_3+5 0.170450 0.010950 0.999970 1.474326
O20   O     O_3   0.895460 0.941370 0.999990 -0.361150
Br1   Br    Br    0.512179 0.084484 0.261663 -0.540951
I1    I     I_    0.869704 0.700736 0.904478 -0.380730
I2    I     I_    0.838050 0.792488 0.425580 -0.366031
Br2   Br    Br    0.560727 0.421986 0.028528 -0.571508
Br3   Br    Br    0.783796 0.209796 0.497117 -0.555489

loop_
_geom_bond_atom_site_label_1
_geom_bond_atom_site_label_2
_ccdc_geom_bond_type
C22   H8    S    
C6    C7    A    
C1    O6    A    
V3    O20   S    
C21   C22   A    
C25   C26   S    
C29   H12   S    
C12   C15   A    
C16   H6    S    
C13   C14   A    
O14   V3    S    
C27   C34   S    
C15   C16   A    
C33   I1    S    
C3    C23   S    
O5    C3    A    
C20   C21   A    
C26   Br1   S    
C33   H14   S    
C18   Br3   S    
C31   C32   A    
C5    C6    A    
O8    V2    S    
O17   V3    S    
C15   H5    S    
C37   C38   A    
C40   C41   S    
O1    V2    S    
C10   C14   A    
C4    C14   S    
C16   C17   A    
O7    V1    S    
C42   I2    S    
C25   H9    S    
O12   V3    S    
C13   C18   A    
O9    C4    A    
H1    C17   S    
C22   C23   A    
O17   V4    S    
C42   H21   S    
C29   C30   A    
O12   C43   A    
O13   C46   A    
C30   C31   A    
C34   H15   S    
C1    C28   S    
C5    C10   A    
C11   C12   A    
O14   C44   A    
O18   V4    S    
O11   C44   A    
C21   H7    S    
O4    C2    A    
O18   C45   A    
C8    H4    S    
C12   C13   A    
C28   C29   A    
C38   C39   A    
O2    C1    A    
C23   C24   A    
C19   C20   A    
C20   C46   S    
C35   C40   A    
C7    C8    A    
C27   C28   A    
C35   C42   S    
O15   C45   A    
O3    C4    A    
O13   V3    S    
C38   H18   S    
C7    Br2   S    
O19   V4    S    
O6    V2    S    
O9    V2    S    
C6    H3    S    
C26   H11   S    
C39   C43   S    
C5    H2    S    
V4    O20   S    
O2    V1    S    
C24   C25   S    
C41   H19   S    
C25   H10   S    
O16   V4    S    
C30   H13   S    
C34   H16   S    
O1    C2    A    
C27   C32   A    
O5    V1    S    
C41   H20   S    
O8    C3    A    
C31   C44   S    
C36   C37   A    
C19   C24   A    
O7    V2    S    
C41   C42   S    
O3    V1    S    
V1    O10   S    
C43   O16   A    
C32   C33   S    
C17   C18   A    
C9    C11   A    
C39   C40   A    
C11   C45   S    
C33   C34   S    
C2    C36   S    
C35   C36   A    
O4    V1    S    
O19   C46   A    
C37   H17   S    
C9    C10   A    
C19   C26   S    
C8    C9    A    
O15   V3    S    
V2    O10   S    
O11   V4    S    
