data_mof_unit_3782.cif
_audit_creation_date              2013-03-05T16:39:54-0500
_audit_creation_method            fapswitch 2.2
_symmetry_space_group_name_H-M    P1
_symmetry_Int_Tables_number       1
_space_group_crystal_system       triclinic
_cell_length_a                    10.862984
_cell_length_b                    15.975424
_cell_length_c                    14.725688
_cell_angle_alpha                 90.44058
_cell_angle_beta                  91.36151
_cell_angle_gamma                 89.780102
_cell_volume                      2554.69322611

loop_
_atom_site_label
_atom_site_type_symbol
_atom_site_description
_atom_site_fract_x
_atom_site_fract_y
_atom_site_fract_z
_atom_type_partial_charge
O1    O     O_R   0.500060 0.380310 0.575320 -0.576396
O2    O     O_R   0.499940 0.619690 0.424680 -0.586029
O3    O     O_R   0.500000 0.380310 0.424640 -0.556326
O4    O     O_R   0.500000 0.619690 0.575360 -0.554615
C1    C     C_R   0.499908 0.340781 0.499602 0.859471
C2    C     C_R   0.500404 0.659131 0.500365 0.853533
O5    O     O_R   0.319670 0.500010 0.575340 -0.593076
O6    O     O_R   0.680330 0.499990 0.424660 -0.591516
O7    O     O_R   0.319610 0.500010 0.424650 -0.575605
O8    O     O_R   0.680390 0.499990 0.575350 -0.573889
C3    C     C_R   0.261617 0.500038 0.498808 0.850686
C4    C     C_R   0.738400 0.500234 0.501155 0.844303
Cu1   Cu    Cu3+1 0.500040 0.500000 0.589220 1.011709
Cu2   Cu    Cu3+1 0.499960 0.500000 0.410780 1.001953
H1    H     H_    0.189020 0.420592 0.075409 0.167359
H2    H     H_    0.790248 0.594845 0.916027 0.163936
C5    C     C_R   0.132121 0.514298 0.171888 0.443035
C6    C     C_R   0.853784 0.495323 0.826731 0.478422
C7    C     C_R   0.103664 0.529242 0.262460 -0.270337
C8    C     C_R   0.885419 0.477500 0.737230 -0.234292
H3    H     H_    0.069275 0.590344 0.281863 0.174393
H4    H     H_    0.911714 0.414115 0.719372 0.180185
C9    C     C_R   0.111141 0.465272 0.327022 -0.097634
C10   C     C_R   0.888545 0.540141 0.671237 -0.112305
C11   C     C_R   0.150206 0.384240 0.300781 0.301486
C12   C     C_R   0.855769 0.623209 0.693963 0.289669
C13   C     C_R   0.184591 0.369528 0.209864 0.242653
C14   C     C_R   0.817173 0.641686 0.782958 0.250888
C15   C     C_R   0.171543 0.433951 0.145922 -0.366868
C16   C     C_R   0.818702 0.578353 0.848632 -0.408885
C17   C     C_R   0.930736 0.482133 0.421468 -0.240639
C18   C     C_R   0.069286 0.517944 0.578352 -0.235816
H5    H     H_    0.877455 0.467887 0.360050 0.165268
H6    H     H_    0.122488 0.532600 0.639681 0.161891
C19   C     C_R   0.871990 0.500291 0.502875 -0.047368
C20   C     C_R   0.128066 0.499821 0.496950 -0.048490
C21   C     C_R   0.942141 0.518999 0.582355 0.102651
C22   C     C_R   0.057935 0.481876 0.417193 0.104520
C23   C     C_R   0.605878 0.955918 0.530649 -0.272622
C24   C     C_R   0.400826 0.043438 0.461510 -0.276260
H7    H     H_    0.683992 0.922045 0.559407 0.211183
H8    H     H_    0.320208 0.077219 0.436720 0.203673
C25   C     C_R   0.502633 0.912459 0.497504 -0.036561
C26   C     C_R   0.504308 0.087004 0.494719 -0.039426
C27   C     C_R   0.400208 0.955937 0.461165 0.443073
C28   C     C_R   0.608672 0.043282 0.527544 0.465752
C29   C     C_1   0.502479 0.823047 0.500464 0.058337
C30   C     C_1   0.501893 0.176585 0.496712 0.055244
C31   C     C_1   0.500636 0.251657 0.498405 -0.110773
C32   C     C_1   0.501631 0.748078 0.501059 -0.113676
C33   C     C_R   0.534560 0.572183 0.953301 -0.341005
C34   C     C_R   0.462392 0.429445 0.046760 -0.309417
H9    H     H_    0.561652 0.628213 0.918078 0.212181
H10   H     H_    0.434422 0.373625 0.081946 0.218027
C35   C     C_R   0.498192 0.500919 0.902926 -0.129297
C36   C     C_R   0.499594 0.500483 0.097144 -0.154106
C37   C     C_R   0.459133 0.429727 0.950726 0.475268
C38   C     C_R   0.537368 0.572067 0.049395 0.435549
C39   C     C_1   0.499711 0.500849 0.802772 0.219015
C40   C     C_1   0.499304 0.499870 0.197243 0.189159
N1    N     N_1   0.500040 0.499980 0.276710 -0.158665
N2    N     N_1   0.499960 0.500020 0.723290 -0.160272
O9    O     O_3   0.099942 0.574727 0.108565 -0.629064
C41   C     C_3   0.201801 0.596362 0.056018 0.037450
H11   H     H_    0.231065 0.543000 0.012617 0.139328
H12   H     H_    0.280267 0.617165 0.100703 0.174631
C42   C     C_3   0.163597 0.668328 0.993530 -0.328421
H13   H     H_    0.083634 0.648617 0.949987 0.234816
H14   H     H_    0.134962 0.723025 0.035161 0.235335
C43   C     C_3   0.268506 0.694287 0.932887 -0.836037
H15   H     H_    0.349336 0.714728 0.974918 0.279004
H16   H     H_    0.237915 0.747214 0.889341 0.274669
H17   H     H_    0.295511 0.641243 0.888308 0.246559
O10   O     O_3   0.858165 0.428322 0.887303 -0.598257
C44   C     C_3   0.843400 0.451599 0.979157 0.023456
H18   H     H_    0.747642 0.473614 0.989441 0.158566
H19   H     H_    0.910883 0.500858 0.000091 0.171350
C45   C     C_3   0.866182 0.375257 0.039190 -0.271329
H20   H     H_    0.807292 0.322598 0.014661 0.248420
H21   H     H_    0.964135 0.355626 0.034693 0.235460
C46   C     C_3   0.836831 0.394306 0.138172 -0.902954
H22   H     H_    0.888317 0.450088 0.163065 0.257043
H23   H     H_    0.863262 0.340003 0.181118 0.278098
H24   H     H_    0.736696 0.406202 0.144950 0.254538
N3    N     N_R   0.142200 0.315551 0.362774 0.141585
O11   O     O_R   0.191134 0.320565 0.444074 -0.397906
O12   O     O_R   0.082669 0.248154 0.338596 -0.354148
N4    N     N_R   0.870368 0.689302 0.629486 0.144556
O13   O     O_R   0.821977 0.683312 0.548071 -0.392462
O14   O     O_R   0.933422 0.755701 0.651942 -0.312825
N5    N     N_R   0.231058 0.289265 0.181474 0.151312
O15   O     O_R   0.300248 0.245003 0.236352 -0.308637
O16   O     O_R   0.216283 0.264324 0.097593 -0.373822
N6    N     N_R   0.774146 0.724028 0.807195 0.157356
O17   O     O_R   0.712050 0.768904 0.748512 -0.295943
O18   O     O_R   0.783831 0.750460 0.890884 -0.363626
O19   O     O_3   0.709079 0.085613 0.564488 -0.586506
C47   C     C_3   0.793728 0.103385 0.495603 0.053209
H25   H     H_    0.840713 0.162808 0.514877 0.190583
H26   H     H_    0.748921 0.114250 0.427613 0.128660
C48   C     C_3   0.890903 0.033761 0.489375 -0.375287
H27   H     H_    0.929185 0.020051 0.558369 0.262706
H28   H     H_    0.847614 0.975920 0.461369 0.215653
C49   C     C_3   0.995982 0.058648 0.428237 -0.779474
H29   H     H_    0.959952 0.073483 0.358963 0.267917
H30   H     H_    0.062622 0.006025 0.423198 0.270774
H31   H     H_    0.045050 0.114000 0.457101 0.286977
O20   O     O_3   0.294737 0.913611 0.433786 -0.600016
C50   C     C_3   0.306296 0.887077 0.342613 0.041721
H32   H     H_    0.398692 0.859197 0.329667 0.138002
H33   H     H_    0.291202 0.941290 0.296570 0.168414
C51   C     C_3   0.208876 0.820428 0.321382 -0.304324
H34   H     H_    0.219362 0.768425 0.370777 0.230874
H35   H     H_    0.115555 0.848203 0.328488 0.228386
C52   C     C_3   0.220970 0.784966 0.225459 -0.906608
H36   H     H_    0.208877 0.835405 0.174491 0.267902
H37   H     H_    0.149028 0.736868 0.212752 0.265244
H38   H     H_    0.312658 0.755066 0.217514 0.267416
O21   O     O_3   0.569312 0.644522 0.095944 -0.607504
C53   C     C_3   0.694323 0.639152 0.124087 0.066642
H39   H     H_    0.754486 0.644722 0.064395 0.162763
H40   H     H_    0.715501 0.578982 0.159167 0.133440
C54   C     C_3   0.723158 0.710999 0.190187 -0.296087
H41   H     H_    0.712240 0.771609 0.154252 0.236444
H42   H     H_    0.657304 0.709797 0.246846 0.228813
C55   C     C_3   0.853986 0.704138 0.229476 -0.881823
H43   H     H_    0.863639 0.646233 0.270323 0.259030
H44   H     H_    0.873958 0.758828 0.274359 0.261668
H45   H     H_    0.921635 0.702874 0.174075 0.273782
O22   O     O_3   0.423510 0.358108 0.904067 -0.580523
C56   C     C_3   0.299203 0.366713 0.874731 0.049513
H46   H     H_    0.277120 0.430838 0.849261 0.115520
H47   H     H_    0.237845 0.352828 0.932019 0.176464
C57   C     C_3   0.273208 0.304299 0.797554 -0.280752
H48   H     H_    0.341110 0.313348 0.743174 0.239547
H49   H     H_    0.283312 0.239469 0.823646 0.242663
C58   C     C_3   0.143786 0.315937 0.757008 -0.870066
H50   H     H_    0.073880 0.308695 0.810225 0.275107
H51   H     H_    0.126548 0.268253 0.702986 0.271967
H52   H     H_    0.134644 0.379037 0.726373 0.250759

loop_
_geom_bond_atom_site_label_1
_geom_bond_atom_site_label_2
_geom_bond_distance
_ccdc_geom_bond_type
C48   H27   1.111651 S    
C35   C39   1.475307 S    
C13   C15   1.404753 A    
C5    C15   1.404702 A    
C44   H18   1.110202 S    
C56   C57   1.528079 S    
C57   C58   1.525603 S    
C51   H35   1.111932 S    
C46   H22   1.109224 S    
C54   H41   1.111591 S    
C23   H7    1.084026 S    
N3    O11   1.300327 A    
O5    C3    1.278291 A    
C58   H51   1.110355 S    
C55   H43   1.110567 S    
O1    C1    1.277139 A    
C18   C20   1.399295 A    
C3    C20   1.450391 S    
C19   C21   1.412035 A    
C10   C12   1.412444 A    
C50   H33   1.113254 S    
C45   H21   1.111502 S    
C54   H42   1.112184 S    
H2    C16   1.076951 S    
C52   H36   1.110689 S    
O19   C47   1.416287 S    
O20   C50   1.413086 S    
C14   N6    1.439536 S    
O4    Cu1   1.924517 S    
C49   H29   1.110857 S    
Cu1   N2    1.974293 S    
C8    C10   1.401347 A    
C26   C28   1.407084 A    
C52   H37   1.109784 S    
O6    Cu2   1.965153 S    
C17   H5    1.085233 S    
C13   N5    1.438925 S    
C43   H15   1.110832 S    
C6    C16   1.415662 A    
C33   C35   1.406780 A    
C27   O20   1.382855 S    
C24   H8    1.084282 S    
C6    O10   1.398501 S    
Cu1   Cu2   2.627630 S    
C1    C31   1.423764 S    
O2    C2    1.275991 A    
C49   H30   1.110505 S    
C51   H34   1.112127 S    
C46   H23   1.110345 S    
C34   H10   1.082908 S    
H1    C15   1.079549 S    
C29   C32   1.197841 T    
N3    O12   1.301051 A    
C24   C27   1.397866 A    
C58   H52   1.110688 S    
O10   C44   1.412688 S    
C42   H13   1.112355 S    
C41   C42   1.528143 S    
C37   O22   1.381869 S    
O4    C2    1.275764 A    
C50   C51   1.529435 S    
N5    O15   1.301462 A    
C45   H20   1.111701 S    
C54   C55   1.525525 S    
C23   C25   1.397446 A    
C55   H45   1.110910 S    
O3    C1    1.275968 A    
Cu2   N1    1.974291 S    
C36   C40   1.474204 S    
C40   N1    1.170034 T    
C33   H9    1.083176 S    
C18   H6    1.085086 S    
C7    C9    1.401964 A    
O7    Cu2   1.974576 S    
N5    O16   1.301448 A    
O7    C3    1.273604 A    
C24   C26   1.400662 A    
O6    C4    1.277894 A    
C52   H38   1.111262 S    
C43   H17   1.110747 S    
C11   N3    1.437012 S    
C10   C21   1.481230 S    
C33   C38   1.414664 A    
C18   C21   1.383867 A    
C2    C32   1.421021 S    
C4    C19   1.450807 S    
N6    O18   1.301651 A    
C44   H19   1.114290 S    
C49   H31   1.110758 S    
O3    Cu2   1.924518 S    
O8    C4    1.274216 A    
C23   C28   1.397256 A    
C30   C31   1.199408 T    
C28   O19   1.383751 S    
N4    O14   1.301206 A    
C48   C49   1.526236 S    
C47   H26   1.117283 S    
C35   C37   1.413935 A    
C17   C19   1.399298 A    
O1    Cu1   1.921457 S    
C56   H46   1.116865 S    
C47   C48   1.534233 S    
C46   H24   1.110215 S    
C53   H39   1.112036 S    
C53   H40   1.115377 S    
C48   H28   1.110551 S    
C39   N2    1.170470 T    
C55   H44   1.110395 S    
C7    H3    1.082589 S    
C8    H4    1.083223 S    
C56   H47   1.111704 S    
O8    Cu1   1.974578 S    
C57   H49   1.111555 S    
O21   C53   1.412861 S    
C53   C54   1.527773 S    
C57   H48   1.112149 S    
C11   C13   1.416133 A    
C9    C22   1.482378 S    
C58   H50   1.111089 S    
C12   C14   1.414060 A    
C17   C22   1.384677 A    
C42   C43   1.525081 S    
C41   H11   1.111510 S    
C14   C16   1.404769 A    
O22   C56   1.414474 S    
C25   C27   1.406503 A    
C50   H32   1.116467 S    
C5    O9    1.385422 S    
C45   C46   1.527515 S    
C20   C22   1.412776 A    
C38   O21   1.381912 S    
C5    C7    1.394815 A    
C36   C38   1.414301 A    
C6    C8    1.396843 A    
C9    C11   1.414587 A    
N6    O17   1.301484 A    
O2    Cu2   1.921457 S    
C44   C45   1.527753 S    
C34   C37   1.413814 A    
O9    C41   1.410773 S    
C34   C36   1.406417 A    
O5    Cu1   1.965152 S    
N4    O13   1.300590 A    
C12   N4    1.437135 S    
C47   H25   1.111272 S    
C43   H16   1.110232 S    
C42   H14   1.111250 S    
C25   C29   1.429405 S    
C51   C52   1.526243 S    
C26   C30   1.431316 S    
C41   H12   1.114507 S    
