data_mof_unit_4372.cif
_audit_creation_date              2012-12-10T17:18:52-0500
_audit_creation_method            fapswitch 2.2
_symmetry_space_group_name_H-M    P1
_symmetry_Int_Tables_number       1
_space_group_crystal_system       triclinic
_cell_length_a                    9.624532
_cell_length_b                    10.845146
_cell_length_c                    13.389798
_cell_angle_alpha                 93.373179
_cell_angle_beta                  71.761913
_cell_angle_gamma                 89.388972
_cell_volume                      1324.48614685

loop_
_atom_site_label
_atom_site_type_symbol
_atom_type_description
_atom_site_fract_x
_atom_site_fract_y
_atom_site_fract_z
_atom_type_partial_charge
C1    C     C_R   0.502989 0.736324 0.490072 0.871721
C2    C     C_R   0.436051 0.469653 0.979198 0.028510
C3    C     C_R   0.469522 0.437922 0.869615 -0.083555
C4    C     C_R   0.546310 0.457877 0.028342 -0.123014
C5    C     C_R   0.679377 0.392698 0.973245 -0.263851
C6    C     C_R   0.700939 0.342634 0.870483 0.698206
C7    C     C_R   0.596076 0.360452 0.819891 0.070218
C8    C     C_R   0.528544 0.509968 0.130847 0.607876
C9    C     C_R   0.756408 0.413468 0.129812 -0.239718
C10   C     C_R   0.371291 0.480510 0.816726 -0.152119
C11   C     C_R   0.266096 0.889236 0.438826 -0.014291
C12   C     C_R   0.420725 0.493608 0.700546 0.825391
C13   C     C_R   0.129017 0.951362 0.468251 0.519878
C14   C     C_R   0.105471 0.060724 0.531798 0.593432
C15   C     C_R   0.222862 0.117392 0.553209 -0.280547
C16   C     C_R   0.365056 0.062691 0.513987 -0.078411
C17   C     C_R   0.378915 0.937935 0.475982 0.032236
C18   C     C_R   0.505070 0.869676 0.477251 -0.169204
C19   C     C_R   0.628393 0.932624 0.483708 -0.173347
C20   C     C_R   0.625782 0.060129 0.493723 0.672416
C21   C     C_R   0.494250 0.127379 0.509735 -0.199690
C22   C     C_R   0.911947 0.334257 0.362096 -0.237960
C23   C     C_R   0.497660 0.262471 0.505576 0.837641
C24   C     C_R   0.007264 0.247801 0.295037 0.516123
C25   C     C_R   0.150220 0.242553 0.292804 0.486824
C26   C     C_R   0.200260 0.324230 0.357044 0.453658
C27   C     C_R   0.104359 0.414983 0.431158 -0.034898
C28   C     C_R   0.954149 0.417033 0.432072 -0.022070
C29   C     C_R   0.897260 0.580549 0.563232 0.683627
C30   C     C_R   0.045262 0.581160 0.563205 0.144702
C31   C     C_R   0.579441 0.498395 0.299512 0.927518
C32   C     C_R   0.785021 0.373329 0.024338 0.731355
C33   C     C_R   0.626301 0.478936 0.184192 -0.223714
C34   C     C_R   0.227955 0.521765 0.878215 0.085763
C35   C     C_R   0.187389 0.526874 0.987908 0.623341
C36   C     C_R   0.290027 0.503312 0.037652 -0.133894
Cu1   Cu    Cu3+1 0.359340 0.500010 0.500010 1.053063
Cu2   Cu    Cu3+1 0.640660 0.499990 0.499990 1.041879
H1    H     H_    0.834171 0.389976 0.169617 0.216168
H2    H     H_    0.200296 0.202758 0.602102 0.220059
H3    H     H_    0.805763 0.332065 0.355135 0.245789
H4    H     H_    0.250491 0.506054 0.122591 0.212219
H5    H     H_    0.728066 0.883185 0.480785 0.256503
N1    N     N_R   0.852480 0.498790 0.499000 -0.220387
N2    N     N_R   0.148360 0.498710 0.498970 -0.185946
O1    O     O_R   0.381190 0.680360 0.500010 -0.558076
O2    O     O_R   0.618760 0.680340 0.500000 -0.533432
O3    O     O_R   0.323240 0.499990 0.650990 -0.533626
O4    O     O_R   0.560820 0.499960 0.650980 -0.557028
O5    O     O_R   0.381240 0.319660 0.500000 -0.530502
O6    O     O_R   0.618810 0.319640 0.499990 -0.578377
O7    O     O_R   0.439180 0.500040 0.349020 -0.474464
O8    O     O_R   0.676760 0.500010 0.349010 -0.627438
N3    N     N_3   0.296055 0.787781 0.360752 -0.457322
H6    H     H_    0.215356 0.722504 0.385601 0.268868
H7    H     H_    0.286462 0.820904 0.291360 0.304805
F1    F     F_    0.018608 0.904504 0.436316 -0.616015
F2    F     F_    0.970649 0.115970 0.568292 -0.555036
F3    F     F_    0.751951 0.116631 0.490037 -0.573123
F4    F     F_    0.798476 0.663336 0.628226 -0.639986
F5    F     F_    0.960168 0.169260 0.230597 -0.555024
F6    F     F_    0.243999 0.157970 0.225433 -0.555459
F7    F     F_    0.344080 0.307424 0.338205 -0.607697
F8    F     F_    0.821244 0.269937 0.819711 -0.563280
N4    N     N_3   0.087385 0.670580 0.630020 -0.491453
H8    H     H_    0.072147 0.757837 0.605413 0.230780
H9    H     H_    0.013934 0.666947 0.705878 0.244068
F9    F     F_    0.912873 0.310001 0.974690 -0.572043
F10   F     F_    0.421773 0.596704 0.178306 -0.671987
N5    N     N_3   0.122748 0.560020 0.830066 -0.530892
H10   H     H_    0.032337 0.503602 0.853483 0.281769
H11   H     H_    0.087969 0.650677 0.858681 0.253065
F11   F     F_    0.048660 0.561370 0.047039 -0.657910
N6    N     N_3   0.608474 0.278685 0.729057 -0.460487
H12   H     H_    0.690830 0.309082 0.664760 0.306852
H13   H     H_    0.509263 0.271080 0.713346 0.190950

loop_
_geom_bond_atom_site_label_1
_geom_bond_atom_site_label_2
_ccdc_geom_bond_type
C16   C21   A    
C30   N2    A    
C36   H4    S    
C35   C36   A    
C31   O7    A    
C12   O3    A    
C12   O4    A    
Cu2   O4    S    
C1    C18   S    
C24   F5    S    
N6    H13   S    
Cu1   Cu2   S    
C18   C19   A    
C3    C7    A    
C5    C6    A    
C1    O1    A    
C22   H3    S    
C13   F1    S    
C15   C16   A    
C9    H1    S    
C34   C35   A    
C6    F8    S    
C9    C32   A    
C11   C17   A    
C19   C20   A    
C16   C17   A    
N4    H9    S    
C31   C33   S    
N5    H10   S    
C34   N5    S    
C4    C8    A    
C25   F6    S    
C5    C32   A    
C27   N2    A    
C22   C28   A    
C13   C14   A    
C9    C33   A    
C19   H5    S    
C7    N6    S    
C14   F2    S    
N3    H7    S    
N6    H12   S    
C24   C25   A    
Cu1   O7    S    
C1    O2    A    
C23   O5    A    
Cu2   O6    S    
C25   C26   A    
C28   N1    A    
C20   F3    S    
C2    C4    A    
C26   F7    S    
Cu2   N1    S    
C29   C30   A    
C23   O6    A    
C29   F4    S    
C17   C18   A    
C8    F10   S    
C10   C34   A    
C31   O8    A    
Cu1   O3    S    
Cu2   O2    S    
C11   N3    S    
C10   C12   S    
C21   C23   S    
C29   N1    A    
C26   C27   A    
C22   C24   A    
Cu1   N2    S    
C2    C36   A    
N3    H6    S    
C35   F11   S    
C4    C5    A    
C6    C7    A    
C32   F9    S    
C2    C3    A    
C3    C10   A    
Cu1   O5    S    
C11   C13   A    
Cu2   O8    S    
C8    C33   A    
C15   H2    S    
C30   N4    S    
C20   C21   A    
N4    H8    S    
C27   C28   A    
C14   C15   A    
N5    H11   S    
Cu1   O1    S    
