data_mof_unit_2233.cif
_audit_creation_date              2013-03-05T16:10:40-0500
_audit_creation_method            fapswitch 2.2
_symmetry_space_group_name_H-M    P1
_symmetry_Int_Tables_number       1
_space_group_crystal_system       triclinic
_cell_length_a                    9.901227
_cell_length_b                    10.804619
_cell_length_c                    15.342516
_cell_angle_alpha                 90.995308
_cell_angle_beta                  67.296905
_cell_angle_gamma                 91.046772
_cell_volume                      1513.80482318

loop_
_atom_site_label
_atom_site_type_symbol
_atom_site_description
_atom_site_fract_x
_atom_site_fract_y
_atom_site_fract_z
_atom_type_partial_charge
O1    O     O_R   0.385370 0.683250 0.500010 -0.626554
O2    O     O_R   0.614630 0.316750 0.499990 -0.626554
O3    O     O_R   0.614700 0.683220 0.500000 -0.613715
O4    O     O_R   0.385300 0.316780 0.500000 -0.613714
C1    C     C_R   0.502282 0.739939 0.498977 0.909678
C2    C     C_R   0.497718 0.260060 0.501023 0.909680
O5    O     O_R   0.319830 0.500020 0.632250 -0.605777
O6    O     O_R   0.680170 0.499980 0.367750 -0.605779
O7    O     O_R   0.549160 0.499990 0.632240 -0.613853
O8    O     O_R   0.450840 0.500010 0.367760 -0.613851
C3    C     C_R   0.407108 0.497574 0.676552 0.948329
C4    C     C_R   0.592892 0.502427 0.323448 0.948331
Zn1   Zn    Zn3+2 0.346870 0.500020 0.500000 0.993824
Zn2   Zn    Zn3+2 0.653130 0.499980 0.500000 0.993823
C5    C     C_R   0.343312 0.479356 0.779034 -0.188054
C6    C     C_R   0.656689 0.520644 0.220966 -0.188056
C7    C     C_R   0.214660 0.345680 0.911293 -0.191492
C8    C     C_R   0.785346 0.654319 0.088706 -0.191493
C9    C     C_R   0.243116 0.381774 0.819097 -0.069411
C10   C     C_R   0.756888 0.618224 0.180902 -0.069411
C11   C     C_R   0.396913 0.549462 0.836573 0.200468
C12   C     C_R   0.603088 0.450539 0.163427 0.200468
C13   C     C_R   0.400343 0.492631 0.918091 -0.002582
C14   C     C_R   0.599661 0.507371 0.081908 -0.002580
C15   C     C_R   0.298038 0.395686 0.959950 0.056174
C16   C     C_R   0.701967 0.604314 0.040049 0.056175
C17   C     C_R   0.505707 0.525671 0.956541 0.076977
C18   C     C_R   0.494297 0.474330 0.043458 0.076975
C19   C     C_R   0.373635 0.396492 0.092105 -0.166182
C20   C     C_R   0.626369 0.603510 0.907894 -0.166180
C21   C     C_R   0.281713 0.351555 0.049158 -0.016389
C22   C     C_R   0.718291 0.648447 0.950841 -0.016391
H1    H     H_    0.134713 0.272516 0.941888 0.173887
H2    H     H_    0.865296 0.727481 0.058110 0.173886
H3    H     H_    0.352120 0.366717 0.163112 0.166810
H4    H     H_    0.647883 0.633286 0.836887 0.166812
C23   C     C_R   0.634214 0.942096 0.483382 -0.007060
C24   C     C_R   0.365786 0.057904 0.516618 -0.007059
C25   C     C_R   0.627119 0.068736 0.485130 -0.188731
C26   C     C_R   0.372881 0.931264 0.514869 -0.188731
H5    H     H_    0.726835 0.121530 0.473111 0.173949
H6    H     H_    0.273165 0.878470 0.526889 0.173949
C27   C     C_R   0.494832 0.127423 0.501332 -0.071881
C28   C     C_R   0.505168 0.872576 0.498668 -0.071881
C29   C     C_R   0.961265 0.423183 0.440575 -0.013211
C30   C     C_R   0.038734 0.576817 0.559424 -0.013211
C31   C     C_R   0.104892 0.422231 0.441134 0.001979
C32   C     C_R   0.895107 0.577768 0.558866 0.001981
N1    N     N_R   0.142780 0.500030 0.500020 -0.120900
N2    N     N_R   0.857220 0.499970 0.499980 -0.120900
C33   C     C_1   0.174500 0.257278 0.097262 0.206161
N3    N     N_1   0.089308 0.181140 0.135130 -0.133483
C34   C     C_1   0.825504 0.742724 0.902738 0.206164
N4    N     N_1   0.910694 0.818864 0.864871 -0.133482
N5    N     N_R   0.587255 0.317558 0.175026 0.201784
O9    O     O_R   0.599004 0.265888 0.247768 -0.389554
O10   O     O_R   0.599564 0.246699 0.102898 -0.361749
N6    N     N_R   0.412744 0.682443 0.824974 0.201785
O11   O     O_R   0.400445 0.753302 0.897100 -0.361752
O12   O     O_R   0.400986 0.734113 0.752235 -0.389552
C35   C     C_1   0.833457 0.682011 0.231792 0.221833
N7    N     N_1   0.896339 0.732898 0.271757 -0.169496
C36   C     C_1   0.166556 0.317981 0.768206 0.221831
N8    N     N_1   0.103681 0.267087 0.728240 -0.169497
C37   C     C_1   0.776331 0.889870 0.464623 0.244951
N9    N     N_1   0.890996 0.850067 0.449636 -0.187297
C38   C     C_1   0.223669 0.110129 0.535375 0.244955
N10   N     N_1   0.109005 0.149932 0.550362 -0.187299
C39   C     C_1   0.923729 0.344022 0.376469 0.219300
N11   N     N_1   0.893613 0.280586 0.324979 -0.150099
C40   C     C_1   0.076271 0.655977 0.623532 0.219299
N12   N     N_1   0.106386 0.719413 0.675022 -0.150097
C41   C     C_1   0.209269 0.334765 0.381679 0.227091
N13   N     N_1   0.290440 0.262533 0.334251 -0.135727
C42   C     C_1   0.790730 0.665234 0.618322 0.227088
N14   N     N_1   0.709558 0.737464 0.665750 -0.135731

loop_
_geom_bond_atom_site_label_1
_geom_bond_atom_site_label_2
_geom_bond_distance
_ccdc_geom_bond_type
C15   C21   1.405645 A    
C20   C22   1.390655 A    
N5    O9    1.301918 A    
C16   C22   1.405647 A    
C41   N13   1.155962 T    
C8    C16   1.405759 A    
O7    Zn2   1.887832 S    
C11   N6    1.449066 S    
C25   H5    1.084758 S    
C34   N4    1.157044 T    
C5    C9    1.409687 A    
C30   N1    1.363992 A    
O1    C1    1.294472 A    
C18   C19   1.410132 A    
C14   C16   1.420598 A    
N6    O12   1.301922 A    
O4    Zn1   2.022886 S    
C10   C35   1.441693 S    
C3    C5    1.466131 S    
C4    C6    1.466131 S    
C9    C36   1.441687 S    
C23   C37   1.446390 S    
O6    Zn2   1.941492 S    
C13   C17   1.420524 A    
C35   N7    1.156015 T    
C6    C10   1.409689 A    
C32   N2    1.373775 A    
C17   C20   1.410134 A    
C32   C42   1.439193 S    
O2    C2    1.294471 A    
C7    H1    1.083989 S    
C29   C31   1.425637 A    
C30   C32   1.425636 A    
C29   C39   1.441661 S    
C38   N10   1.157435 T    
C31   C41   1.439191 S    
C31   N1    1.373775 A    
C25   C27   1.397495 A    
N6    O11   1.302105 A    
C33   N3    1.157045 T    
O5    C3    1.290086 A    
C42   N14   1.155962 T    
C8    H2    1.083990 S    
C26   C28   1.397495 A    
O6    C4    1.290083 A    
O7    C3    1.304707 A    
C30   C40   1.441661 S    
O3    Zn2   2.022886 S    
O8    C4    1.304709 A    
Zn1   N1    2.020626 S    
O4    C2    1.285884 A    
C1    C28   1.432910 S    
C2    C27   1.432911 S    
N5    O10   1.302113 A    
C12   C14   1.415155 A    
O1    Zn1   2.009255 S    
C22   C34   1.446035 S    
C6    C12   1.399453 A    
C14   C18   1.420523 A    
C21   C33   1.446035 S    
O3    C1    1.285883 A    
O8    Zn1   1.887835 S    
C12   N5    1.449070 S    
C19   H3    1.079939 S    
C20   H4    1.079944 S    
C7    C15   1.405758 A    
C23   C28   1.411204 A    
C11   C13   1.415153 A    
C24   C27   1.411204 A    
C19   C21   1.390653 A    
C24   C26   1.370649 A    
Zn2   N2    2.020625 S    
C5    C11   1.399458 A    
C29   N2    1.363992 A    
C26   H6    1.084758 S    
C7    C9    1.392784 A    
C8    C10   1.392788 A    
C13   C15   1.420598 A    
C39   N11   1.156856 T    
O2    Zn2   2.009255 S    
C36   N8    1.156010 T    
O5    Zn1   1.941490 S    
C40   N12   1.156856 T    
C24   C38   1.446389 S    
C23   C25   1.370649 A    
C37   N9    1.157436 T    
C17   C18   1.416301 A    
