data_mof_unit_327.cif
_audit_creation_date              2012-12-10T19:15:21-0500
_audit_creation_method            fapswitch 2.2
_symmetry_space_group_name_H-M    P1
_symmetry_Int_Tables_number       1
_space_group_crystal_system       triclinic
_cell_length_a                    10.636899
_cell_length_b                    9.826942
_cell_length_c                    23.459287
_cell_angle_alpha                 89.461239
_cell_angle_beta                  89.992031
_cell_angle_gamma                 90.31111
_cell_volume                      2452.01219763

loop_
_atom_site_label
_atom_site_type_symbol
_atom_type_description
_atom_site_fract_x
_atom_site_fract_y
_atom_site_fract_z
_atom_type_partial_charge
C1    C     C_R   0.258167 0.499417 0.501410 0.886889
C2    C     C_R   0.620527 0.540968 0.119561 0.520435
C3    C     C_R   0.579581 0.421540 0.237145 -0.054149
C4    C     C_R   0.500103 0.500716 0.389606 0.836154
C5    C     C_R   0.581925 0.417029 0.296640 -0.041846
C6    C     C_R   0.500321 0.503610 0.327344 -0.226019
C7    C     C_R   0.421208 0.596452 0.297834 -0.041208
C8    C     C_R   0.429475 0.605618 0.238640 -0.052713
C9    C     C_R   0.506018 0.517129 0.208278 0.188424
C10   C     C_R   0.447030 0.417504 0.765765 -0.125384
C11   C     C_R   0.437685 0.409631 0.706531 0.067702
C12   C     C_R   0.283842 0.530871 0.968701 -0.157108
C13   C     C_R   0.506081 0.502754 0.672540 -0.052405
C14   C     C_R   0.577568 0.605745 0.698264 -0.293576
C15   C     C_R   0.580534 0.617233 0.757094 -0.089811
C16   C     C_R   0.742078 0.499966 0.500715 0.850316
C17   C     C_R   0.515698 0.522808 0.791103 0.271436
C18   C     C_3   0.071385 0.594448 0.550497 -0.041353
C19   C     C_3   0.069585 0.349054 0.510345 -0.031750
C20   C     C_3   0.926619 0.580984 0.553857 -0.449311
C21   C     C_3   0.926220 0.350070 0.507126 -0.439737
C22   C     C_3   0.073343 0.553921 0.444843 -0.521136
C23   C     C_R   0.282533 0.522218 0.027920 -0.148930
C24   C     C_3   0.121498 0.498007 0.503043 0.161222
C25   C     C_3   0.878422 0.498913 0.501889 0.136166
C26   C     C_3   0.929243 0.562588 0.445763 -0.389740
C27   C     C_3   0.390999 0.080843 0.466459 -0.254434
C28   C     C_3   0.385270 0.919959 0.470911 -0.283360
C29   C     C_3   0.613288 0.081164 0.470251 -0.300109
C30   C     C_3   0.606872 0.920587 0.465423 -0.290536
C31   C     C_3   0.493167 0.080228 0.558581 0.320988
C32   C     C_3   0.507346 0.917046 0.558566 0.352151
C33   C     C_R   0.500362 0.499901 0.610432 0.894500
C34   C     C_R   0.395757 0.524498 0.058636 -0.015074
C35   C     C_R   0.627219 0.538158 0.880783 0.507406
C36   C     C_R   0.402332 0.540766 0.879758 0.503282
C37   C     C_R   0.398536 0.538008 0.939191 -0.012418
C38   C     C_R   0.512521 0.540067 0.969605 -0.021212
C39   C     C_R   0.628012 0.544018 0.940301 -0.013007
C40   C     C_2   0.675164 0.327168 0.325402 0.412853
C41   C     C_2   0.325341 0.680116 0.327444 0.417981
C42   C     C_R   0.510982 0.536504 0.029482 -0.022245
C43   C     C_R   0.624676 0.543333 0.060020 -0.015998
C44   C     C_R   0.739314 0.551885 0.030460 -0.147980
C45   C     C_R   0.741051 0.550492 0.971096 -0.156167
C46   C     C_R   0.396896 0.513658 0.117986 0.518599
H1    H     H_    0.194987 0.528958 0.946157 0.193480
H2    H     H_    0.112901 0.657004 0.435779 0.188141
H3    H     H_    0.103742 0.486489 0.409587 0.182223
H4    H     H_    0.900251 0.671058 0.442268 0.187699
H5    H     H_    0.889933 0.508266 0.408271 0.172557
H6    H     H_    0.397471 0.112112 0.420812 0.176077
H7    H     H_    0.374356 0.876916 0.427509 0.179387
H8    H     H_    0.192698 0.514241 0.049482 0.195662
H9    H     H_    0.300977 0.124104 0.481629 0.168711
H10   H     H_    0.298582 0.889309 0.494094 0.151490
H11   H     H_    0.623184 0.126589 0.426885 0.185447
H12   H     H_    0.630252 0.678557 0.672778 0.167986
H13   H     H_    0.597430 0.892548 0.419734 0.187231
H14   H     H_    0.700444 0.110439 0.493114 0.144350
H15   H     H_    0.697460 0.874919 0.478747 0.154216
H16   H     H_    0.827998 0.557157 0.053045 0.196138
H17   H     H_    0.831019 0.554520 0.949490 0.192394
H18   H     H_    0.638325 0.353663 0.212765 0.199999
H19   H     H_    0.373068 0.679015 0.215426 0.200514
H20   H     H_    0.396822 0.344954 0.792478 0.151039
H21   H     H_    0.279180 0.368718 0.663098 0.201519
H22   H     H_    0.313496 0.249611 0.712177 0.183674
H23   H     H_    0.632639 0.700029 0.776219 0.165121
H24   H     H_    0.080036 0.512788 0.633423 0.194568
H25   H     H_    0.144731 0.666498 0.625745 0.183989
H26   H     H_    0.057932 0.308916 0.597647 0.193943
H27   H     H_    0.103579 0.177437 0.558315 0.177289
H28   H     H_    0.649265 0.210998 0.574507 0.225803
H29   H     H_    0.562564 0.172586 0.634174 0.214206
H30   H     H_    0.703947 0.936237 0.569813 0.159077
H31   H     H_    0.652867 0.778934 0.575547 0.229891
H32   H     H_    0.367617 0.093279 0.627144 0.194747
H33   H     H_    0.348812 0.216494 0.577384 0.268715
H34   H     H_    0.092776 0.701068 0.536505 0.144221
H35   H     H_    0.435671 0.827177 0.634254 0.209960
H36   H     H_    0.350728 0.785346 0.574560 0.235960
H37   H     H_    0.701589 0.343195 0.369454 0.062758
H38   H     H_    0.296658 0.655890 0.370660 0.060769
H39   H     H_    0.103943 0.287970 0.473651 0.145822
H40   H     H_    0.895114 0.529314 0.593792 0.161361
H41   H     H_    0.883770 0.298661 0.545073 0.165983
H42   H     H_    0.885290 0.684828 0.554022 0.158734
H43   H     H_    0.895896 0.290762 0.469205 0.170426
N1    N     N_R   0.515370 0.535890 0.851802 -0.351157
N2    N     N_3   0.369550 0.114483 0.583414 -0.477519
N3    N     N_3   0.404445 0.860234 0.594194 -0.471581
N4    N     N_R   0.507992 0.523855 0.147292 -0.349650
N5    N     N_3   0.499750 0.138610 0.498760 -0.082604
N6    N     N_3   0.499750 0.861390 0.498760 -0.089049
N7    N     N_3   0.353207 0.313688 0.681135 -0.484075
N8    N     N_3   0.134271 0.572460 0.605722 -0.471633
N9    N     N_3   0.113946 0.282686 0.562971 -0.458118
N10   N     N_3   0.594278 0.137340 0.594842 -0.483337
N11   N     N_3   0.628784 0.878034 0.585368 -0.476172
O1    O     O_R   0.314910 0.616040 0.499990 -0.656713
O2    O     O_2   0.293873 0.547779 0.850000 -0.561469
O3    O     O_2   0.287983 0.491401 0.146217 -0.541031
O4    O     O_2   0.727875 0.556536 0.149537 -0.540114
O5    O     O_2   0.725806 0.234843 0.299720 -0.556812
O6    O     O_2   0.275351 0.776461 0.303443 -0.559294
O7    O     O_R   0.314910 0.383960 0.499990 -0.629724
O8    O     O_R   0.500080 0.616070 0.416130 -0.618097
O9    O     O_R   0.500080 0.383930 0.416130 -0.621806
O10   O     O_R   0.685320 0.616040 0.499970 -0.646665
O11   O     O_R   0.685320 0.383960 0.499970 -0.652503
O12   O     O_R   0.500150 0.616010 0.583820 -0.651454
O13   O     O_R   0.500150 0.383990 0.583820 -0.634602
O14   O     O_2   0.737114 0.531854 0.852186 -0.561153
Zn1   Zn    Zn3+2 0.500150 0.654960 0.499970 0.888623
Zn2   Zn    Zn3+2 0.500150 0.345040 0.499970 0.896640

loop_
_geom_bond_atom_site_label_1
_geom_bond_atom_site_label_2
_ccdc_geom_bond_type
C11   N7    S    
C22   H2    S    
C4    O9    A    
C21   H41   S    
C1    O1    A    
C34   C42   A    
C28   H10   S    
C16   O10   A    
C7    C8    A    
C21   H43   S    
C3    H18   S    
C27   H6    S    
H25   N8    S    
C12   C23   A    
C29   C30   S    
C35   O14   S    
C28   N6    S    
C18   C24   S    
O8    Zn1   S    
C36   C37   A    
C19   C21   S    
C38   C42   A    
C26   H4    S    
C38   C39   A    
C27   H9    S    
C20   C25   S    
C10   C17   A    
H36   N3    S    
H31   N11   S    
C36   O2    S    
C12   C37   A    
O9    Zn2   S    
H35   N3    S    
N6    Zn1   S    
C8    C9    A    
C20   H40   S    
O11   Zn2   S    
C34   C46   A    
C18   N8    S    
C31   N10   S    
H33   N2    S    
H24   N8    S    
C39   C45   A    
O13   Zn2   S    
C8    H19   S    
C13   C14   A    
C40   H37   S    
C12   H1    S    
C15   H23   S    
C19   N9    S    
C10   H20   S    
H27   N9    S    
C14   H12   S    
C41   O6    D    
C4    C6    S    
N5    Zn2   S    
H26   N9    S    
C44   H16   S    
C25   C26   S    
C41   H38   S    
C45   H17   S    
C32   N11   S    
C35   C39   A    
C43   C44   A    
C13   C33   S    
C37   C38   A    
C3    C9    A    
C4    O8    A    
C31   C32   S    
C29   H14   S    
C2    O4    S    
C2    C43   A    
C23   C34   A    
C30   H13   S    
C3    C5    A    
H29   N10   S    
C33   O12   A    
H22   N7    S    
H28   N10   S    
C1    O7    A    
C22   H3    S    
C29   H11   S    
C31   N2    S    
H21   N7    S    
O1    Zn1   S    
C22   C24   S    
C30   H15   S    
C42   C43   A    
C9    N4    S    
C44   C45   A    
C23   H8    S    
C36   N1    A    
C16   C25   S    
C15   C17   A    
C21   C25   S    
C2    N4    A    
C17   N1    S    
C19   H39   S    
C28   H7    S    
C6    C7    A    
H32   N2    S    
H30   N11   S    
C31   N5    S    
C46   O3    S    
C33   O13   A    
C19   C24   S    
C26   H5    S    
C11   C13   A    
C5    C6    A    
C46   N4    A    
C20   H42   S    
C29   N5    S    
C30   N6    S    
C18   C20   S    
C7    C41   S    
O7    Zn2   S    
C10   C11   A    
C32   N3    S    
C35   N1    A    
C32   N6    S    
C1    C24   S    
C18   H34   S    
C22   C26   S    
C5    C40   S    
C27   C28   S    
C14   C15   A    
C27   N5    S    
O10   Zn1   S    
O12   Zn1   S    
C16   O11   A    
C40   O5    D    
