data_mof_unit_3270.cif
_audit_creation_date              2012-12-10T19:44:54-0500
_audit_creation_method            fapswitch 2.2
_symmetry_space_group_name_H-M    P1
_symmetry_Int_Tables_number       1
_space_group_crystal_system       triclinic
_cell_length_a                    15.039993
_cell_length_b                    10.831336
_cell_length_c                    13.753189
_cell_angle_alpha                 89.830778
_cell_angle_beta                  88.737725
_cell_angle_gamma                 88.45571
_cell_volume                      2239.07526344

loop_
_atom_site_label
_atom_site_type_symbol
_atom_type_description
_atom_site_fract_x
_atom_site_fract_y
_atom_site_fract_z
_atom_type_partial_charge
C1    C     C_R   0.498123 0.262339 0.500050 0.794314
C2    C     C_R   0.501877 0.737661 0.499949 0.794314
C3    C     C_R   0.044438 0.388950 0.655063 0.592512
C4    C     C_R   0.955562 0.611050 0.344936 0.592513
C5    C     C_R   0.289261 0.263406 0.289633 -0.102200
C6    C     C_R   0.710739 0.736594 0.710368 -0.102200
C7    C     C_R   0.331435 0.197783 0.364085 -0.110542
C8    C     C_R   0.668565 0.802216 0.635915 -0.110541
C9    C     C_R   0.409139 0.126660 0.343791 0.128648
C10   C     C_R   0.590861 0.873340 0.656209 0.128649
C11   C     C_R   0.443094 0.120607 0.247977 -0.174864
C12   C     C_R   0.556905 0.879394 0.752023 -0.174865
C13   C     C_R   0.400793 0.186523 0.173768 -0.155206
C14   C     C_R   0.599207 0.813477 0.826232 -0.155206
C15   C     C_R   0.324155 0.258241 0.194640 -0.101362
C16   C     C_R   0.675844 0.741759 0.805360 -0.101362
C17   C     C_R   0.462667 0.935319 0.423853 -0.235945
C18   C     C_R   0.537333 0.064681 0.576147 -0.235944
C19   C     C_R   0.503903 0.871551 0.499997 -0.077982
C20   C     C_R   0.496097 0.128449 0.500003 -0.077982
C21   C     C_R   0.542597 0.936503 0.576602 0.002469
C22   C     C_R   0.457403 0.063497 0.423398 0.002469
C23   C     C_R   0.328690 0.499641 0.500714 0.803360
C24   C     C_R   0.671310 0.500359 0.499286 0.803361
C25   C     C_R   0.554929 0.419813 0.791896 -0.041725
C26   C     C_R   0.445071 0.580187 0.208104 -0.041724
C27   C     C_R   0.444074 0.580596 0.794486 0.424836
C28   C     C_R   0.555926 0.419404 0.205514 0.424836
C29   C     C_R   0.445441 0.585201 0.897957 -0.069771
C30   C     C_R   0.554559 0.414799 0.102042 -0.069770
C31   C     C_R   0.500021 0.500084 0.948169 0.003498
C32   C     C_R   0.499979 0.499916 0.051831 0.003498
C33   C     C_R   0.554881 0.415493 0.894779 -0.024191
C34   C     C_R   0.445119 0.584507 0.105221 -0.024191
C35   C     C_R   0.393446 0.671813 0.952286 -0.274787
C36   C     C_R   0.606554 0.328187 0.047714 -0.274788
C37   C     C_R   0.391743 0.671006 0.054473 0.267384
C38   C     C_R   0.608256 0.328994 0.945527 0.267384
C39   C     C_R   0.814791 0.556410 0.422272 -0.218981
C40   C     C_R   0.185209 0.443590 0.577728 -0.218982
C41   C     C_R   0.767990 0.500382 0.498749 -0.101819
C42   C     C_R   0.232010 0.499619 0.501251 -0.101819
C43   C     C_R   0.813433 0.445785 0.576325 -0.208437
C44   C     C_R   0.186567 0.554215 0.423675 -0.208438
C45   C     C_R   0.905967 0.445145 0.577312 0.044110
C46   C     C_R   0.094033 0.554855 0.422688 0.044110
C47   C     C_R   0.953384 0.500320 0.499719 -0.016348
C48   C     C_R   0.046616 0.499680 0.500281 -0.016348
C49   C     C_R   0.907607 0.556305 0.421705 0.010616
C50   C     C_R   0.092393 0.443695 0.578295 0.010616
C51   C     C_R   0.951730 0.389928 0.654438 -0.283457
C52   C     C_R   0.048270 0.610072 0.345562 -0.283457
Cu1   Cu    Cu3+1 0.500010 0.499980 0.597420 0.966141
Cu2   Cu    Cu3+1 0.499990 0.500020 0.402580 0.966141
H1    H     H_    0.778693 0.601515 0.364230 0.193721
H2    H     H_    0.221307 0.398485 0.635769 0.193720
H3    H     H_    0.431701 0.885062 0.366098 0.152424
H4    H     H_    0.568299 0.114938 0.633902 0.152424
H5    H     H_    0.598003 0.358163 0.749378 0.172295
H6    H     H_    0.401997 0.641837 0.250622 0.172295
H7    H     H_    0.354513 0.742939 0.916450 0.149387
H8    H     H_    0.645487 0.257061 0.083550 0.149387
H9    H     H_    0.776681 0.402816 0.635541 0.151206
H10   H     H_    0.223319 0.597185 0.364459 0.151207
H11   H     H_    0.915690 0.347390 0.714269 0.174565
H12   H     H_    0.084310 0.652610 0.285731 0.174565
H13   H     H_    0.291872 0.309858 0.137231 0.136120
H14   H     H_    0.708127 0.690142 0.862770 0.136120
H15   H     H_    0.229902 0.318971 0.305724 0.138240
H16   H     H_    0.770098 0.681028 0.694277 0.138240
H17   H     H_    0.304497 0.203860 0.437667 0.108412
H18   H     H_    0.695502 0.796139 0.562334 0.108412
H19   H     H_    0.503069 0.066576 0.231127 0.124166
H20   H     H_    0.496930 0.933425 0.768872 0.124166
H21   H     H_    0.427764 0.182564 0.100186 0.140531
H22   H     H_    0.572235 0.817437 0.899814 0.140531
N1    N     N_R   0.499960 0.499900 0.743810 -0.200170
N2    N     N_R   0.500040 0.500100 0.256190 -0.200170
O1    O     O_R   0.500000 0.319630 0.582270 -0.596845
O2    O     O_R   0.500000 0.680370 0.417730 -0.596845
O3    O     O_R   0.499990 0.319660 0.417730 -0.550390
O4    O     O_R   0.500010 0.680340 0.582270 -0.550390
O5    O     O_R   0.370260 0.499960 0.582280 -0.556556
O6    O     O_R   0.629740 0.500040 0.417720 -0.556556
O7    O     O_R   0.370250 0.499990 0.417740 -0.588841
O8    O     O_R   0.629750 0.500010 0.582260 -0.588841
N3    N     N_2   0.384373 0.658653 0.742045 -0.387136
H23   H     H_    0.394057 0.751683 0.751016 0.228475
C53   C     C_3   0.291424 0.626539 0.748701 -0.626892
H24   H     H_    0.257296 0.659911 0.682526 0.234008
H25   H     H_    0.257531 0.671036 0.812343 0.199892
H26   H     H_    0.284309 0.524987 0.754820 0.240532
N4    N     N_2   0.615627 0.341347 0.257955 -0.387135
H27   H     H_    0.605943 0.248317 0.248984 0.228475
C54   C     C_3   0.708576 0.373461 0.251298 -0.626895
H28   H     H_    0.742704 0.340090 0.317473 0.234009
H29   H     H_    0.715691 0.475013 0.245179 0.240532
H30   H     H_    0.742469 0.328964 0.187656 0.199893
N5    N     N_2   0.334987 0.757003 0.105524 -0.448125
H31   H     H_    0.275801 0.775941 0.071251 0.261132
C55   C     C_3   0.378180 0.868474 0.133818 -0.720704
H32   H     H_    0.398486 0.922048 0.068313 0.226800
H33   H     H_    0.437740 0.846245 0.177575 0.228786
H34   H     H_    0.331124 0.926070 0.178824 0.248784
N6    N     N_2   0.665012 0.242997 0.894476 -0.448124
H35   H     H_    0.724199 0.224059 0.928750 0.261132
C56   C     C_3   0.621820 0.131526 0.866182 -0.720704
H36   H     H_    0.601513 0.077952 0.931687 0.226800
H37   H     H_    0.668876 0.073930 0.821176 0.248784
H38   H     H_    0.562260 0.153756 0.822424 0.228786
F1    F     F_    0.087081 0.334845 0.730770 -0.674088
F2    F     F_    0.912919 0.665155 0.269230 -0.674088

loop_
_geom_bond_atom_site_label_1
_geom_bond_atom_site_label_2
_ccdc_geom_bond_type
N3    H23   S    
N4    H27   S    
C12   H20   S    
C27   C29   A    
C34   C37   A    
C56   H37   S    
C54   H28   S    
Cu2   O6    S    
C54   H30   S    
C43   H9    S    
C47   C49   A    
Cu1   Cu2   S    
C44   H10   S    
N6    C56   S    
C26   N2    A    
C23   C42   S    
C23   O5    A    
C4    C52   A    
C25   N1    A    
Cu1   O1    S    
C7    H17   S    
C9    C22   S    
C45   C51   A    
C1    O3    A    
C18   C21   A    
C46   C52   A    
C6    H16   S    
C51   H11   S    
C5    H15   S    
C18   H4    S    
C39   H1    S    
C13   H21   S    
C3    F1    S    
C40   H2    S    
C47   C48   A    
C56   H36   S    
C31   C33   A    
Cu1   O8    S    
C16   H14   S    
C53   H25   S    
C28   N2    A    
C48   C50   A    
C4    F2    S    
C55   H33   S    
C26   C34   A    
C24   C41   S    
C41   C43   A    
C42   C44   A    
C36   H8    S    
C3    C50   A    
C44   C46   A    
Cu2   O2    S    
C45   C47   A    
C10   C21   S    
C46   C48   A    
C8    H18   S    
C55   H32   S    
C39   C41   A    
C11   H19   S    
C5    C7    A    
C3    C51   A    
C6    C8    A    
C28   N4    S    
C32   C34   A    
Cu1   N1    S    
C43   C45   A    
N5    H31   S    
C15   H13   S    
C35   H7    S    
C53   H26   S    
C27   N3    S    
C9    C11   A    
C10   C12   A    
C8    C10   A    
C39   C49   A    
C12   C14   A    
C55   H34   S    
C13   C15   A    
C1    O1    A    
C56   H38   S    
C14   C16   A    
C2    O4    A    
C36   C38   A    
C37   N5    S    
C52   H12   S    
C7    C9    A    
C1    C20   S    
C35   C37   A    
C2    C19   S    
C31   C32   A    
C33   C38   A    
C20   C22   A    
C27   N1    A    
Cu2   O7    S    
C54   H29   S    
N6    H35   S    
C29   C35   A    
C17   C22   A    
C30   C36   A    
C4    C49   A    
Cu1   O5    S    
C38   N6    S    
C28   C30   A    
C24   O6    A    
C29   C31   A    
C30   C32   A    
C11   C13   A    
C24   O8    A    
C40   C50   A    
C40   C42   A    
C17   C19   A    
C18   C20   A    
C5    C15   A    
C2    O2    A    
C6    C16   A    
N4    C54   S    
C23   O7    A    
C25   C33   A    
N3    C53   S    
Cu1   O4    S    
C25   H5    S    
Cu2   N2    S    
C53   H24   S    
C17   H3    S    
C26   H6    S    
N5    C55   S    
Cu2   O3    S    
C14   H22   S    
C19   C21   A    
