data_mof_unit_1750.cif
_audit_creation_date              2012-12-11T17:10:31-0500
_audit_creation_method            fapswitch 2.2
_symmetry_space_group_name_H-M    P1
_symmetry_Int_Tables_number       1
_space_group_crystal_system       triclinic
_cell_length_a                    14.863346
_cell_length_b                    14.888871
_cell_length_c                    14.926773
_cell_angle_alpha                 109.395102
_cell_angle_beta                  110.086463
_cell_angle_gamma                 109.069727
_cell_volume                      2538.37483512

loop_
_atom_site_label
_atom_site_type_symbol
_atom_type_description
_atom_site_fract_x
_atom_site_fract_y
_atom_site_fract_z
_atom_type_partial_charge
C1    C     C_R   0.185615 0.279541 0.253384 -0.141635
C2    C     C_R   0.405222 0.496328 0.195246 -0.141115
C3    C     C_R   0.563975 0.815301 0.591893 -0.125014
C4    C     C_R   0.525905 0.432878 0.746923 -0.141030
C5    C     C_R   0.725689 0.471885 0.410542 -0.125333
C6    C     C_R   0.549037 0.825843 0.499363 0.069257
C7    C     C_R   0.830148 0.548932 0.504977 0.057512
C8    C     C_R   0.436043 0.434917 0.132658 0.081495
C9    C     C_R   0.801076 0.804038 0.868060 0.083459
C10   C     C_R   0.102507 0.574146 0.180795 -0.083205
C11   C     C_R   0.103522 0.612603 0.280409 -0.139181
C12   C     C_R   0.452371 0.450509 0.777170 0.070626
C13   C     C_R   0.018000 0.548279 0.290229 0.108359
C14   C     C_R   0.927813 0.449006 0.196400 -0.171036
C15   C     C_R   0.925184 0.413363 0.095807 -0.117001
C16   C     C_R   0.506167 0.201471 0.408873 -0.153834
C17   C     C_R   0.013041 0.475305 0.088302 -0.087634
C18   C     C_R   0.933684 0.573978 0.407730 -0.232723
C19   C     C_R   0.936244 0.597252 0.508185 0.060539
C20   C     C_R   0.040880 0.656230 0.606060 0.037773
C21   C     C_R   0.134199 0.673019 0.597828 -0.227226
C22   C     C_R   0.123883 0.617080 0.496093 0.042164
C23   C     C_R   0.567569 0.198204 0.499924 0.077965
C24   C     C_R   0.026548 0.581300 0.399517 0.037222
C25   C     C_R   0.085862 0.786809 0.792274 -0.197410
C26   C     C_R   0.113532 0.813523 0.900722 -0.170330
C27   C     C_R   0.115791 0.736511 0.934180 0.256375
C28   C     C_R   0.293630 0.600868 0.588938 -0.132512
C29   C     C_R   0.088664 0.632311 0.859231 -0.160156
C30   C     C_R   0.060941 0.605325 0.751038 -0.203544
C31   C     C_R   0.059048 0.682308 0.716943 0.108742
C32   C     C_R   0.454437 0.349079 0.879836 0.160870
C33   C     C_R   0.408735 0.402875 0.834299 0.033894
C34   C     C_R   0.201678 0.575286 0.496221 0.068994
C35   C     C_R   0.335230 0.427349 0.862746 -0.196645
C36   C     C_R   0.331890 0.424732 0.954506 -0.202870
C37   C     C_R   0.401320 0.396630 0.016613 0.031528
C38   C     C_R   0.450322 0.345645 0.969536 0.159890
C39   C     C_3   0.563316 0.358928 0.020130 -0.521871
C40   C     C_R   0.596177 0.290879 0.591404 -0.138661
C41   C     C_3   0.568349 0.363374 0.922569 -0.512564
C42   C     C_R   0.558270 0.930068 0.398964 0.142313
C43   C     C_R   0.596470 0.927976 0.497715 0.042495
C44   C     C_R   0.666348 0.029533 0.596773 -0.197587
C45   C     C_R   0.474969 0.721850 0.407768 -0.148246
C46   C     C_R   0.670486 0.125083 0.597330 -0.199844
C47   C     C_R   0.605749 0.118900 0.498597 0.040875
C48   C     C_R   0.563598 0.024638 0.399521 0.128294
C49   C     C_3   0.455371 0.961928 0.294466 -0.463497
C50   C     C_3   0.448957 0.858716 0.294015 -0.475760
C51   C     C_R   0.967377 0.077889 0.117908 0.166453
C52   C     C_R   0.200430 0.505551 0.406931 -0.156947
C53   C     C_R   0.065727 0.076567 0.166825 0.015830
C54   C     C_R   0.059292 0.974305 0.142446 -0.182015
C55   C     C_R   0.964272 0.878560 0.050399 -0.180846
C56   C     C_R   0.814957 0.565571 0.594524 -0.134607
C57   C     C_R   0.876780 0.886321 0.984278 0.013943
C58   C     C_R   0.873943 0.983694 0.027868 0.169462
C59   C     C_3   0.839980 0.045022 0.974079 -0.532741
C60   C     C_3   0.942329 0.148140 0.072157 -0.518918
C61   C     C_R   0.436108 0.527646 0.751157 -0.124322
C62   C     C_R   0.275228 0.184790 0.248905 -0.130574
C63   C     C_R   0.172070 0.175913 0.223416 0.073395
C64   C     C_R   0.496325 0.404406 0.196864 -0.156090
C65   C     C_R   0.706658 0.799451 0.802931 -0.154870
C66   C     C_R   0.800900 0.710820 0.805968 -0.141099
H1    H     H_    0.124385 0.303673 0.249956 0.111922
H2    H     H_    0.172304 0.619936 0.176029 0.140381
H3    H     H_    0.173980 0.689042 0.351467 0.123615
H4    H     H_    0.553340 0.374935 0.750177 0.110381
H5    H     H_    0.861229 0.397432 0.201688 0.109774
H6    H     H_    0.856215 0.336388 0.024310 0.115464
H7    H     H_    0.857656 0.542636 0.333805 0.123502
H8    H     H_    0.212017 0.714209 0.673403 0.127903
H9    H     H_    0.086633 0.847464 0.767380 0.132752
H10   H     H_    0.134983 0.894405 0.959044 0.146149
H11   H     H_    0.090978 0.572968 0.885285 0.134818
H12   H     H_    0.872741 0.621620 0.680256 0.130518
H13   H     H_    0.042413 0.525158 0.694073 0.131665
H14   H     H_    0.291468 0.461621 0.824135 0.129419
H15   H     H_    0.487296 0.154641 0.325678 0.102636
H16   H     H_    0.285710 0.457120 0.983284 0.127760
H17   H     H_    0.624680 0.437777 0.098776 0.203039
H18   H     H_    0.561428 0.284492 0.022451 0.187400
H19   H     H_    0.632628 0.445034 0.946438 0.206002
H20   H     H_    0.570028 0.291818 0.869286 0.189184
H21   H     H_    0.705827 0.033908 0.675125 0.124172
H22   H     H_    0.712563 0.198883 0.676092 0.122882
H23   H     H_    0.516353 0.340768 0.169206 0.101139
H24   H     H_    0.390222 0.976665 0.305412 0.221185
H25   H     H_    0.464391 0.969060 0.225834 0.196990
H26   H     H_    0.379924 0.815859 0.304679 0.212366
H27   H     H_    0.329514 0.662981 0.673099 0.087282
H28   H     H_    0.453672 0.806008 0.224765 0.198286
H29   H     H_    0.131288 0.969671 0.185272 0.169031
H30   H     H_    0.964746 0.801968 0.024250 0.167809
H31   H     H_    0.842384 0.025022 0.896489 0.201450
H32   H     H_    0.762628 0.042555 0.968640 0.189015
H33   H     H_    0.002648 0.186471 0.049845 0.202910
H34   H     H_    0.669718 0.846345 0.829895 0.101948
H35   H     H_    0.923647 0.205062 0.122653 0.194124
H36   H     H_    0.657576 0.323524 0.675697 0.087101
H37   H     H_    0.146982 0.473853 0.321129 0.118783
H38   H     H_    0.383049 0.560041 0.762143 0.097216
H39   H     H_    0.295418 0.119919 0.237343 0.108381
H40   H     H_    0.448281 0.697858 0.322759 0.110818
H41   H     H_    0.853991 0.680051 0.836558 0.107538
H42   H     H_    0.344116 0.519505 0.165832 0.088233
H43   H     H_    0.616693 0.879174 0.677242 0.092062
H44   H     H_    0.704884 0.438708 0.325513 0.091407
H45   H     H_    0.012340 0.446235 0.011144 0.105917
I1    I     I_    0.165232 0.777828 0.098331 -0.611551
N1    N     N_R   0.291070 0.347930 0.293870 -0.040480
N2    N     N_R   0.497240 0.291100 0.443210 -0.037591
N3    N     N_R   0.347890 0.554050 0.556810 -0.039200
N4    N     N_R   0.554050 0.347900 0.556830 -0.038432
N5    N     N_R   0.291070 0.497250 0.443190 -0.039547
N6    N     N_R   0.497240 0.554030 0.706140 -0.040693
N7    N     N_R   0.347890 0.291110 0.293870 -0.040374
N8    N     N_R   0.445950 0.652100 0.443170 -0.039332
N9    N     N_R   0.708930 0.502750 0.556810 -0.042756
N10   N     N_R   0.502760 0.445970 0.293860 -0.037383
N11   N     N_R   0.652110 0.708890 0.706130 -0.038117
N12   N     N_R   0.708930 0.652070 0.706130 -0.041210
N13   N     N_R   0.445950 0.502780 0.293850 -0.038050
N14   N     N_R   0.502760 0.708900 0.556790 -0.039931
N15   N     N_R   0.652110 0.445950 0.443190 -0.040091
N16   N     N_R   0.554050 0.497220 0.706150 -0.040235
Ni1   Ni    Ni4+2 0.369690 0.500010 0.369700 0.210657
Ni2   Ni    Ni4+2 0.630310 0.499990 0.630300 0.214157
Ni3   Ni    Ni4+2 0.500000 0.369720 0.369720 0.209513
Ni4   Ni    Ni4+2 0.500000 0.630280 0.630280 0.209083

loop_
_geom_bond_atom_site_label_1
_geom_bond_atom_site_label_2
_ccdc_geom_bond_type
C25   C31   A    
C52   H37   S    
C6    C45   A    
N11   Ni4   S    
C27   C29   A    
C11   C13   A    
N2    Ni3   S    
C35   C36   A    
C66   H41   S    
C60   H33   S    
C4    H4    S    
C3    N14   A    
N11   N12   A    
C39   C41   S    
C62   H39   S    
C40   N4    A    
C53   C54   A    
C15   H6    S    
C26   C27   A    
C37   C38   A    
N1    Ni1   S    
C18   C24   A    
C7    C56   A    
C36   C37   A    
C39   H18   S    
N9    N15   A    
C30   C31   A    
N8    N14   A    
C5    H44   S    
C10   C17   A    
C23   C40   A    
N15   Ni3   S    
C17   H45   S    
C35   H14   S    
C56   H12   S    
C18   C19   A    
C14   H5    S    
C9    C66   A    
C1    H1    S    
N1    N7    A    
N6    N16   A    
C19   C20   A    
C36   H16   S    
N3    N5    A    
C26   H10   S    
C32   C41   S    
C32   C38   A    
C4    C12   A    
C44   H21   S    
N5    Ni1   S    
N9    Ni2   S    
C9    C57   S    
C52   N5    A    
C3    C6    A    
C28   C34   A    
C59   C60   S    
C21   C22   A    
C1    N1    A    
C64   H23   S    
C49   H25   S    
C1    C63   A    
C44   C46   A    
C46   H22   S    
N3    Ni4   S    
C22   C34   S    
C23   C47   S    
C4    N16   A    
N8    Ni1   S    
C61   H38   S    
C5    C7    A    
C50   H28   S    
C25   C26   A    
C40   H36   S    
C21   H8    S    
C13   C24   S    
C16   N2    A    
C28   H27   S    
C25   H9    S    
N4    Ni2   S    
C43   C44   A    
C62   C63   A    
C41   H20   S    
C28   N3    A    
N7    Ni3   S    
C47   C48   A    
N14   Ni4   S    
C5    N15   A    
C54   H29   S    
N12   Ni2   S    
C51   C58   A    
C42   C48   A    
C62   N7    A    
C42   C50   S    
C30   H13   S    
C45   N8    A    
C50   H26   S    
C48   C49   S    
C8    C64   A    
C27   I1    S    
C18   H7    S    
C7    C19   S    
C6    C43   S    
C55   C57   A    
C59   H31   S    
C66   N12   A    
C8    C37   S    
C60   H35   S    
N10   Ni3   S    
C45   H40   S    
C15   C17   A    
C54   C55   A    
C61   N6    A    
C2    C8    A    
C65   H34   S    
C55   H30   S    
N16   Ni2   S    
N2    N4    A    
C11   H3    S    
C10   H2    S    
C16   C23   A    
C41   H19   S    
C34   C52   A    
C56   N9    A    
N10   N13   A    
C58   C59   S    
C39   H17   S    
C32   C33   A    
C12   C61   A    
C53   C63   S    
C57   C58   A    
C38   C39   S    
C3    H43   S    
C64   N10   A    
C2    H42   S    
C16   H15   S    
C33   C35   A    
C22   C24   A    
C65   N11   A    
C9    C65   A    
C46   C47   A    
N6    Ni4   S    
C10   C11   A    
C29   C30   A    
C2    N13   A    
N13   Ni1   S    
C29   H11   S    
C20   C21   A    
C49   C50   S    
C42   C43   A    
C59   H32   S    
C14   C15   A    
C51   C60   S    
C51   C53   A    
C12   C33   S    
C13   C14   A    
C49   H24   S    
C20   C31   S    
