data_mof_unit_3882.cif
_audit_creation_date              2012-12-10T17:57:22-0500
_audit_creation_method            fapswitch 2.2
_symmetry_space_group_name_H-M    P1
_symmetry_Int_Tables_number       1
_space_group_crystal_system       triclinic
_cell_length_a                    9.504514
_cell_length_b                    10.83225
_cell_length_c                    13.439519
_cell_angle_alpha                 90.205666
_cell_angle_beta                  71.984118
_cell_angle_gamma                 89.972237
_cell_volume                      1315.81883444

loop_
_atom_site_label
_atom_site_type_symbol
_atom_type_description
_atom_site_fract_x
_atom_site_fract_y
_atom_site_fract_z
_atom_type_partial_charge
C1    C     C_R   0.499820 0.737977 0.500432 0.784347
C2    C     C_R   0.367024 0.499354 0.817874 -0.146803
C3    C     C_R   0.628645 0.936101 0.498025 -0.190262
C4    C     C_R   0.419411 0.501719 0.701210 0.787197
C5    C     C_R   0.628690 0.063806 0.497929 -0.183070
C6    C     C_R   0.499538 0.128229 0.501052 -0.019806
C7    C     C_R   0.370089 0.063964 0.504865 -0.192635
C8    C     C_R   0.370087 0.936242 0.504850 -0.183614
C9    C     C_R   0.499486 0.871813 0.501134 -0.017342
C10   C     C_R   0.899238 0.581810 0.560561 -0.009944
C11   C     C_R   0.047875 0.581308 0.561028 -0.036872
C12   C     C_R   0.432691 0.505581 0.981282 0.085847
C13   C     C_R   0.101184 0.418750 0.438792 -0.023211
C14   C     C_R   0.952192 0.418688 0.438915 -0.033792
C15   C     C_R   0.499865 0.262037 0.500275 0.780464
C16   C     C_R   0.579476 0.501236 0.299677 0.803602
C17   C     C_R   0.783971 0.608027 0.027532 -0.213615
C18   C     C_R   0.625320 0.515546 0.185905 -0.054423
C19   C     C_R   0.225516 0.449109 0.874524 0.150662
C20   C     C_R   0.189750 0.433464 0.982554 -0.180450
C21   C     C_R   0.291541 0.457865 0.034536 -0.228868
C22   C     C_3   0.108785 0.408167 0.825443 -0.380788
C23   C     C_R   0.464035 0.538116 0.874540 0.054397
C24   C     C_3   0.145588 0.281912 0.772518 -0.766205
C25   C     C_R   0.542264 0.525406 0.031735 0.088875
C26   C     C_R   0.675394 0.587535 0.978274 0.166154
C27   C     C_R   0.695981 0.632645 0.877911 -0.254657
C28   C     C_R   0.590328 0.611128 0.828009 -0.189295
C29   C     C_R   0.523189 0.485671 0.134259 -0.244362
C30   C     C_R   0.758390 0.573286 0.131449 -0.201962
Cu1   Cu    Cu3+1 0.359340 0.499980 0.500000 0.933979
Cu2   Cu    Cu3+1 0.640660 0.500020 0.500000 0.938417
H1    H     H_    0.839108 0.596536 0.170372 0.155776
H2    H     H_    0.886133 0.655048 0.986917 0.137062
H3    H     H_    0.427933 0.433007 0.177335 0.138894
H4    H     H_    0.253625 0.441555 0.117583 0.134854
H5    H     H_    0.082699 0.397292 0.027472 0.142800
H6    H     H_    0.606858 0.656190 0.753839 0.154425
H7    H     H_    0.729725 0.888003 0.495324 0.146478
H8    H     H_    0.257540 0.280361 0.714470 0.255796
H9    H     H_    0.140893 0.210087 0.832237 0.233495
H10   H     H_    0.063454 0.258726 0.731914 0.232936
H11   H     H_    0.998978 0.399667 0.886205 0.190719
H12   H     H_    0.729821 0.111793 0.495095 0.146599
H13   H     H_    0.089910 0.478826 0.771552 0.214878
H14   H     H_    0.268945 0.112095 0.507769 0.147623
H15   H     H_    0.268961 0.888241 0.507694 0.146333
H16   H     H_    0.822565 0.648110 0.608323 0.106170
H17   H     H_    0.082735 0.646374 0.609939 0.107363
H18   H     H_    0.178808 0.353746 0.389729 0.114119
H19   H     H_    0.917348 0.353683 0.389957 0.115193
H20   H     H_    0.793475 0.686034 0.838103 0.131472
N1    N     N_R   0.147940 0.499970 0.499970 -0.151248
N2    N     N_R   0.852060 0.500060 0.499990 -0.153673
O1    O     O_R   0.381250 0.680340 0.500010 -0.586502
O2    O     O_R   0.618820 0.680370 0.500010 -0.594139
O3    O     O_R   0.323240 0.499950 0.650980 -0.576808
O4    O     O_R   0.560810 0.499980 0.650980 -0.574732
O5    O     O_R   0.381180 0.319630 0.499990 -0.591816
O6    O     O_R   0.618750 0.319660 0.499990 -0.584203
O7    O     O_R   0.439190 0.500020 0.349020 -0.578423
O8    O     O_R   0.676760 0.500050 0.349020 -0.583406

loop_
_geom_bond_atom_site_label_1
_geom_bond_atom_site_label_2
_ccdc_geom_bond_type
C4    O3    A    
C2    C4    S    
C24   H9    S    
C6    C7    A    
C3    C9    A    
C28   H6    S    
C24   H10   S    
C15   O6    A    
C29   H3    S    
C22   H11   S    
C11   N1    A    
Cu2   O4    S    
C12   C25   A    
C25   C26   A    
Cu1   O1    S    
Cu1   O3    S    
C19   C20   A    
C1    O2    A    
C1    O1    A    
C8    H15   S    
Cu2   O8    S    
C7    C8    A    
C18   C29   A    
C13   C14   A    
Cu1   N1    S    
C10   H16   S    
C20   H5    S    
C17   H2    S    
C12   C23   A    
C26   C27   A    
C20   C21   A    
C17   C30   A    
C11   H17   S    
C17   C26   A    
Cu2   N2    S    
C14   N2    A    
C5    H12   S    
Cu2   O2    S    
C13   N1    A    
C25   C29   A    
C5    C6    A    
C10   N2    A    
C22   C24   S    
C16   O7    A    
Cu2   O6    S    
C18   C30   A    
C4    O4    A    
C13   H18   S    
C7    H14   S    
C2    C23   A    
C19   C22   S    
C1    C9    S    
C27   H20   S    
C16   C18   S    
C22   H13   S    
C10   C11   A    
Cu1   O5    S    
C27   C28   A    
C21   H4    S    
Cu1   O7    S    
C30   H1    S    
C24   H8    S    
C6    C15   S    
C23   C28   A    
C15   O5    A    
C12   C21   A    
C16   O8    A    
Cu1   Cu2   S    
C3    H7    S    
C14   H19   S    
C2    C19   A    
C8    C9    A    
C3    C5    A    
