data_mof_unit_4744.cif
_audit_creation_date              2012-12-11T15:20:37-0500
_audit_creation_method            fapswitch 2.2
_symmetry_space_group_name_H-M    P1
_symmetry_Int_Tables_number       1
_space_group_crystal_system       triclinic
_cell_length_a                    12.91944
_cell_length_b                    13.053653
_cell_length_c                    15.28294
_cell_angle_alpha                 116.122272
_cell_angle_beta                  63.322095
_cell_angle_gamma                 97.094865
_cell_volume                      2058.9325647

loop_
_atom_site_label
_atom_site_type_symbol
_atom_type_description
_atom_site_fract_x
_atom_site_fract_y
_atom_site_fract_z
_atom_type_partial_charge
C1    C     C_R   0.999682 0.832289 0.053181 -0.067560
C2    C     C_R   0.301958 0.591575 0.788368 -0.100595
C3    C     C_R   0.259612 0.415023 0.046112 -0.081301
C4    C     C_R   0.677796 0.477513 0.219453 -0.053535
C5    C     C_R   0.059679 0.282048 0.685662 -0.106336
C6    C     C_R   0.363200 0.432053 0.971607 0.090391
C7    C     C_R   0.044964 0.172878 0.677945 0.044005
C8    C     C_R   0.298569 0.565602 0.691742 0.062481
C9    C     C_R   0.008958 0.152375 0.044203 0.075165
C10   C     C_R   0.042473 0.000943 0.415583 -0.083663
C11   C     C_R   0.041081 0.092856 0.504981 -0.161793
C12   C     C_R   0.667902 0.557548 0.321033 0.108882
C13   C     C_R   0.064547 0.075660 0.578476 0.123925
C14   C     C_R   0.091209 0.966030 0.561769 -0.175563
C15   C     C_R   0.094499 0.872688 0.469639 -0.089560
C16   C     C_R   0.756252 0.518151 0.891736 0.680520
C17   C     C_R   0.070999 0.891485 0.396822 0.165131
C18   C     C_R   0.571501 0.649412 0.520459 -0.207099
C19   C     C_R   0.481956 0.644519 0.611467 -0.150145
C20   C     C_R   0.378876 0.600970 0.608000 0.072408
C21   C     C_R   0.358429 0.584651 0.520188 -0.295994
C22   C     C_R   0.448063 0.592011 0.428386 0.551786
C23   C     C_R   0.663593 0.456289 0.922541 -0.021881
C24   C     C_R   0.560672 0.607780 0.423403 -0.041476
C25   C     C_2   0.477499 0.387543 0.940735 -0.185269
C26   C     C_2   0.571291 0.431495 0.889266 -0.130190
C27   C     C_2   0.837729 0.960022 0.089672 -0.204490
C28   C     C_R   0.008423 0.702587 0.306059 -0.213813
C29   C     C_2   0.752517 0.974091 0.068066 -0.092657
C30   C     C_R   0.676717 0.420171 0.989040 -0.208062
C31   C     C_R   0.094234 0.800151 0.207866 0.471256
C32   C     C_R   0.780087 0.566654 0.312947 -0.130653
C33   C     C_R   0.900278 0.747389 0.956192 -0.104481
C34   C     C_R   0.063010 0.799102 0.305942 -0.098477
C35   C     C_R   0.912685 0.851855 0.031071 0.071892
C36   C     C_R   0.339481 0.514978 0.948622 -0.032577
C37   C     C_R   0.972833 0.179555 0.780201 -0.129864
C38   C     C_R   0.200294 0.508996 0.694162 -0.124260
C39   C     C_R   0.051901 0.255552 0.088365 -0.125392
C40   C     C_R   0.952290 0.172042 0.993559 -0.122891
F1    F     F_    0.790164 0.545727 0.807589 -0.730574
H1    H     H_    0.025978 0.894683 0.112470 0.150428
H2    H     H_    0.014176 0.176623 0.519735 0.131785
H3    H     H_    0.106431 0.953147 0.620548 0.136400
H4    H     H_    0.609459 0.443523 0.196076 0.171782
H5    H     H_    0.112071 0.786917 0.456500 0.171871
H6    H     H_    0.652533 0.673766 0.524769 0.139062
H7    H     H_    0.499102 0.665094 0.680072 0.123816
H8    H     H_    0.274393 0.563493 0.521231 0.169547
H9    H     H_    0.480388 0.340913 0.983402 0.158278
H10   H     H_    0.569693 0.473718 0.842613 0.157199
H11   H     H_    0.851039 0.031122 0.154521 0.149806
H12   H     H_    0.937069 0.109613 0.800771 0.101354
H13   H     H_    0.733349 0.907082 0.004921 0.136467
H14   H     H_    0.985301 0.669326 0.365331 0.137534
H15   H     H_    0.630655 0.356714 0.015837 0.144423
H16   H     H_    0.806311 0.619610 0.375323 0.103995
H17   H     H_    0.837021 0.730495 0.924774 0.156144
H18   H     H_    0.399254 0.553108 0.897513 0.098791
H19   H     H_    0.493575 0.629314 0.190098 0.381513
H20   H     H_    0.333107 0.842340 0.983716 0.366786
H21   H     H_    0.162227 0.489996 0.639188 0.112917
H22   H     H_    0.088663 0.274728 0.144312 0.121409
H23   H     H_    0.897665 0.114132 0.961321 0.107497
H24   H     H_    0.357686 0.648317 0.819524 0.126072
H25   H     H_    0.248883 0.360084 0.084939 0.123029
H26   H     H_    0.106289 0.307539 0.620607 0.112068
H27   H     H_    0.015241 0.015177 0.364055 0.138560
N1    N     N_R   0.037310 0.720000 0.995790 -0.032412
N2    N     N_R   0.824890 0.517960 0.936420 -0.109533
N3    N     N_R   0.003210 0.648190 0.211380 -0.065439
N4    N     N_R   0.774330 0.457010 0.995840 -0.077006
N5    N     N_R   0.053760 0.709140 0.151960 -0.097697
N6    N     N_R   0.853860 0.498840 0.211410 -0.045887
N7    N     N_R   0.974240 0.667310 0.936390 -0.052989
N8    N     N_R   0.225670 0.542990 0.004160 -0.034530
N9    N     N_R   0.946240 0.290860 0.848040 -0.046442
N10   N     N_R   0.146140 0.501160 0.788590 -0.050577
N11   N     N_R   0.025760 0.332690 0.063610 -0.049517
N12   N     N_R   0.962690 0.280000 0.004210 -0.045035
N13   N     N_R   0.209210 0.553840 0.847990 -0.040100
N14   N     N_R   0.175110 0.482040 0.063580 -0.053985
N15   N     N_R   0.996790 0.351810 0.788620 -0.045823
N16   N     N_R   0.790790 0.446160 0.152010 -0.058046
Ni1   Ni    Ni4+2 0.130310 0.630310 0.999970 0.308878
Ni2   Ni    Ni4+2 0.869690 0.369690 0.000030 0.210347
Ni3   Ni    Ni4+2 0.985640 0.509470 0.863740 0.264000
Ni4   Ni    Ni4+2 0.014360 0.490530 0.136260 0.229895
O1    O     O_2   0.396404 0.470091 0.261593 -0.340524
O2    O     O_2   0.298977 0.663003 0.385559 -0.297885
O3    O     O_3   0.515360 0.644255 0.248811 -0.539544
O4    O     O_2   0.179445 0.990142 0.184949 -0.331619
O5    O     O_2   0.308336 0.861086 0.177885 -0.257646
O6    O     O_3   0.267043 0.799692 0.011160 -0.585198
S1    S     S_3+6 0.411874 0.590726 0.329053 -0.066639
S2    S     S_3+6 0.214840 0.866770 0.146776 -0.065275

loop_
_geom_bond_atom_site_label_1
_geom_bond_atom_site_label_2
_ccdc_geom_bond_type
N10   Ni3   S    
N15   Ni3   S    
C33   H17   S    
C27   C29   D    
C22   S1    S    
C19   C20   A    
C9    C39   A    
C5    H26   S    
C2    H24   S    
C18   H6    S    
C21   H8    S    
O2    S1    D    
C8    C20   S    
C18   C24   A    
N16   Ni2   S    
C32   N6    A    
C5    N15   A    
C31   N5    A    
C6    C25   S    
C29   H13   S    
N9    N15   A    
C10   C17   A    
C31   S2    S    
O4    S2    D    
C18   C19   A    
C23   C26   S    
C25   H9    S    
N12   Ni2   S    
C36   N8    A    
C36   H18   S    
C33   N7    A    
C40   N12   A    
C11   H2    S    
C4    C12   A    
C37   H12   S    
C3    C6    A    
C28   C34   A    
C21   C22   A    
C12   C32   A    
C8    C38   A    
C32   H16   S    
N2    Ni3   S    
N11   Ni4   S    
C28   H14   S    
C4    H4    S    
C23   C30   A    
C16   N2    A    
N8    N14   A    
C5    C7    A    
H20   O6    S    
C38   N10   A    
C27   C35   S    
C25   C26   D    
C37   N9    A    
C9    C40   A    
C1    N1    A    
N3    Ni4   S    
C39   N11   A    
O1    S1    D    
C30   N4    A    
C4    N16   A    
C3    N14   A    
C7    C37   A    
C31   C34   A    
O6    S2    S    
N5    Ni1   S    
N7    Ni3   S    
N9    Ni2   S    
O5    S2    D    
C22   C24   A    
C28   N3    A    
C17   C34   S    
N1    Ni1   S    
C27   H11   S    
C1    C35   A    
C14   H3    S    
H19   O3    S    
C15   C17   A    
C19   H7    S    
C2    C8    A    
N6    N16   A    
N4    Ni2   S    
C10   H27   S    
C16   C23   A    
C39   H22   S    
C12   C24   S    
C40   H23   S    
C26   H10   S    
C11   C13   A    
N10   N13   A    
C30   H15   S    
N14   Ni4   S    
N8    Ni1   S    
C33   C35   A    
C6    C36   A    
N1    N7    A    
C10   C11   A    
O3    S1    S    
N11   N12   A    
C3    H25   S    
C1    H1    S    
C7    C13   S    
C20   C21   A    
N3    N5    A    
C14   C15   A    
C2    N13   A    
N2    N4    A    
C15   H5    S    
N6    Ni4   S    
C13   C14   A    
C16   F1    S    
N13   Ni1   S    
C38   H21   S    
