data_mof_unit_2912.cif
_audit_creation_date              2012-12-11T15:07:10-0500
_audit_creation_method            fapswitch 2.2
_symmetry_space_group_name_H-M    P1
_symmetry_Int_Tables_number       1
_space_group_crystal_system       triclinic
_cell_length_a                    19.857568
_cell_length_b                    11.387838
_cell_length_c                    18.704181
_cell_angle_alpha                 90.09925
_cell_angle_beta                  89.626402
_cell_angle_gamma                 90.030551
_cell_volume                      4229.56878281

loop_
_atom_site_label
_atom_site_type_symbol
_atom_type_description
_atom_site_fract_x
_atom_site_fract_y
_atom_site_fract_z
_atom_type_partial_charge
C1    C     C_R   0.763333 0.517349 0.637221 0.571581
C2    C     C_R   0.236747 0.517769 0.362660 0.572039
C3    C     C_R   0.263334 0.017346 0.637220 0.571938
C4    C     C_R   0.736745 0.017762 0.362662 0.572609
C5    C     C_3   0.803682 0.128284 0.450563 -0.252733
C6    C     C_3   0.196379 0.127875 0.549581 -0.252153
C7    C     C_3   0.303683 0.628295 0.450560 -0.252640
C8    C     C_3   0.696378 0.627876 0.549582 -0.251886
C9    C     C_3   0.743662 0.048436 0.439524 0.046163
C10   C     C_3   0.256356 0.048006 0.560371 0.046013
C11   C     C_3   0.243664 0.548444 0.439521 0.046270
C12   C     C_3   0.756356 0.548009 0.560372 0.045910
C13   C     C_3   0.758014 0.085211 0.576723 0.053046
C14   C     C_3   0.241959 0.085208 0.423243 0.052800
C15   C     C_3   0.258016 0.585214 0.576721 0.053067
C16   C     C_3   0.741958 0.585208 0.423244 0.052838
C17   C     C_3   0.750065 0.952479 0.565304 -0.114283
C18   C     C_3   0.249923 0.952431 0.434283 -0.114099
C19   C     C_3   0.250071 0.452481 0.565298 -0.114408
C20   C     C_3   0.749921 0.452431 0.434286 -0.114219
C21   C     C_3   0.818674 0.128764 0.530384 -0.234128
C22   C     C_3   0.181324 0.128546 0.469772 -0.233946
C23   C     C_3   0.318675 0.628771 0.530382 -0.234229
C24   C     C_3   0.681324 0.628547 0.469773 -0.234137
C25   C     C_3   0.008471 0.197500 0.458971 0.012616
C26   C     C_3   0.991616 0.197445 0.540745 0.012342
C27   C     C_3   0.508473 0.697500 0.458971 0.012379
C28   C     C_3   0.491617 0.697444 0.540746 0.011675
C29   C     C_3   0.062980 0.397657 0.473010 -0.254083
C30   C     C_3   0.937120 0.397457 0.527149 -0.253660
C31   C     C_3   0.562981 0.897657 0.473010 -0.254162
C32   C     C_3   0.437121 0.897455 0.527150 -0.253912
C33   C     C_3   0.940545 0.378789 0.446195 -0.266385
C34   C     C_3   0.059554 0.378790 0.553921 -0.266226
C35   C     C_3   0.440545 0.878786 0.446196 -0.266176
C36   C     C_3   0.559555 0.878789 0.553921 -0.265977
C37   C     C_3   0.009456 0.326280 0.430333 0.078262
C38   C     C_3   0.990631 0.326145 0.569669 0.078610
C39   C     C_3   0.509457 0.826280 0.430333 0.078379
C40   C     C_3   0.490633 0.826145 0.569670 0.078116
C41   C     C_3   0.806621 0.998034 0.041427 -0.227698
C42   C     C_3   0.191434 0.004073 0.957398 -0.226930
C43   C     C_3   0.309253 0.505621 0.042898 -0.230502
C44   C     C_3   0.685513 0.513485 0.956031 -0.232627
C45   C     C_R   0.773761 0.120022 0.650717 0.565751
C46   C     C_R   0.226212 0.120127 0.349312 0.565808
C47   C     C_R   0.273762 0.620023 0.650716 0.565399
C48   C     C_R   0.726211 0.620127 0.349312 0.565283
C49   C     C_3   0.812884 0.011436 0.961713 -0.224258
C50   C     C_3   0.184001 0.022707 0.036255 -0.215847
C51   C     C_3   0.317999 0.527465 0.964464 -0.216780
C52   C     C_3   0.680268 0.528307 0.035480 -0.219075
C53   C     C_3   0.680558 0.036136 0.031399 -0.220202
C54   C     C_3   0.318082 0.029274 0.968708 -0.222190
C55   C     C_3   0.182958 0.531063 0.031447 -0.222765
C56   C     C_3   0.809860 0.509520 0.968867 -0.224396
C57   C     C_3   0.758872 0.194566 0.061473 -0.252681
C58   C     C_3   0.243612 0.197474 0.939959 -0.260443
C59   C     C_3   0.256809 0.699285 0.060818 -0.258526
C60   C     C_3   0.751987 0.696227 0.940392 -0.254488
C61   C     C_3   0.745798 0.064928 0.073450 0.042024
C62   C     C_3   0.253941 0.066248 0.926376 0.043167
C63   C     C_3   0.246814 0.568029 0.074112 0.042280
C64   C     C_3   0.752078 0.564924 0.926206 0.039516
C65   C     C_3   0.759255 0.099335 0.934588 0.046468
C66   C     C_3   0.241879 0.100402 0.065480 0.052048
C67   C     C_3   0.259254 0.602325 0.935107 0.050938
C68   C     C_3   0.740928 0.599328 0.065348 0.052379
C69   C     C_3   0.690382 0.044624 0.949137 -0.250912
C70   C     C_3   0.306380 0.029256 0.051344 -0.260890
C71   C     C_3   0.195452 0.529647 0.949010 -0.260125
C72   C     C_3   0.802554 0.521828 0.051615 -0.258512
C73   C     C_3   0.764318 0.212265 0.979791 -0.229432
C74   C     C_3   0.250401 0.216382 0.021557 -0.224560
C75   C     C_3   0.250226 0.718240 0.979187 -0.225844
C76   C     C_3   0.754321 0.713846 0.022003 -0.224307
C77   C     C_3   0.009333 0.477396 0.038473 -0.256102
C78   C     C_3   0.002967 0.478015 0.957857 -0.259912
C79   C     C_3   0.506190 0.977058 0.039884 -0.256008
C80   C     C_3   0.492667 0.978107 0.960595 -0.257506
C81   C     C_3   0.067307 0.275032 0.022838 -0.176655
C82   C     C_3   0.935188 0.291282 0.975353 -0.169957
C83   C     C_3   0.565929 0.776415 0.020855 -0.206255
C84   C     C_3   0.435974 0.774337 0.976893 -0.200429
C85   C     C_3   0.946931 0.293155 0.057104 -0.094379
C86   C     C_3   0.056569 0.283914 0.940912 -0.093839
C87   C     C_3   0.444591 0.793028 0.058474 -0.110473
C88   C     C_3   0.556965 0.799100 0.939568 -0.111009
C89   C     C_R   0.969979 0.341043 0.645672 0.537466
C90   C     C_R   0.030062 0.341116 0.354346 0.539585
C91   C     C_R   0.469981 0.841043 0.645673 0.538391
C92   C     C_R   0.530062 0.841116 0.354346 0.538738
C93   C     C_3   0.015608 0.349790 0.067798 0.038812
C94   C     C_3   0.991161 0.350909 0.929635 0.045748
C95   C     C_3   0.514039 0.849475 0.068108 0.048624
C96   C     C_3   0.486615 0.851165 0.931024 0.050366
C97   C     C_R   0.760517 0.532497 0.848979 0.542276
C98   C     C_R   0.239247 0.533062 0.151060 0.541460
C99   C     C_R   0.261045 0.032254 0.849274 0.542045
C100  C     C_R   0.738667 0.031139 0.150434 0.542409
C101  C     C_R   0.773550 0.130568 0.857793 0.534385
C102  C     C_R   0.226596 0.130839 0.142113 0.537913
C103  C     C_R   0.273825 0.631872 0.858254 0.536253
C104  C     C_R   0.726470 0.630659 0.142089 0.536918
C105  C     C_R   0.967874 0.353531 0.853810 0.522261
C106  C     C_R   0.036028 0.353607 0.144154 0.525750
C107  C     C_R   0.463998 0.854136 0.855615 0.541039
C108  C     C_R   0.536143 0.853584 0.144043 0.536867
C109  C     C_3   0.682688 0.115356 0.470389 -0.243373
C110  C     C_3   0.317367 0.114889 0.529597 -0.243313
C111  C     C_3   0.182689 0.615358 0.470387 -0.243376
C112  C     C_3   0.817366 0.614893 0.529598 -0.243351
C113  C     C_3   0.691127 0.139699 0.550220 -0.256204
C114  C     C_3   0.308821 0.139738 0.449878 -0.256364
C115  C     C_3   0.191128 0.639699 0.550219 -0.256193
C116  C     C_3   0.808821 0.639737 0.449879 -0.256320
C117  C     C_3   0.756155 0.932497 0.483354 -0.248739
C118  C     C_3   0.243800 0.932165 0.516189 -0.249165
C119  C     C_3   0.256159 0.432504 0.483348 -0.248737
C120  C     C_3   0.743800 0.432167 0.516191 -0.249293
Cr1   Cr    Cr6+3 0.885690 0.492860 0.745310 1.026810
Cr2   Cr    Cr6+3 0.114310 0.492860 0.254690 1.027108
Cr3   Cr    Cr6+3 0.385690 0.992860 0.745310 1.026194
Cr4   Cr    Cr6+3 0.614310 0.992860 0.254690 1.026798
Cr5   Cr    Cr6+3 0.729880 0.332270 0.748190 1.011907
Cr6   Cr    Cr6+3 0.270120 0.332270 0.251810 1.010430
Cr7   Cr    Cr6+3 0.229880 0.832270 0.748190 1.005854
Cr8   Cr    Cr6+3 0.770120 0.832270 0.251810 1.006937
Cr9   Cr    Cr6+3 0.888120 0.178590 0.753010 1.028622
Cr10  Cr    Cr6+3 0.111880 0.178590 0.246990 1.024292
Cr11  Cr    Cr6+3 0.388120 0.678590 0.753010 1.042844
Cr12  Cr    Cr6+3 0.611880 0.678590 0.246990 1.037332
H1    H     H_    0.637846 0.067598 0.461133 0.123034
H2    H     H_    0.362022 0.066589 0.538288 0.122505
H3    H     H_    0.137848 0.567595 0.461131 0.123009
H4    H     H_    0.862023 0.566597 0.538292 0.122466
H5    H     H_    0.859292 0.063728 0.538017 0.117936
H6    H     H_    0.140654 0.063526 0.461973 0.118167
H7    H     H_    0.359293 0.563735 0.538012 0.117860
H8    H     H_    0.640654 0.563527 0.461974 0.118124
H9    H     H_    0.808677 0.905717 0.471489 0.113388
H10   H     H_    0.191290 0.905169 0.527952 0.113101
H11   H     H_    0.308681 0.405725 0.471480 0.113454
H12   H     H_    0.691290 0.405171 0.527956 0.113194
H13   H     H_    0.058090 0.163065 0.450127 0.160077
H14   H     H_    0.942004 0.162951 0.549489 0.159926
H15   H     H_    0.558094 0.663072 0.450133 0.159858
H16   H     H_    0.442006 0.662948 0.549492 0.159546
H17   H     H_    0.614254 0.881691 0.452741 0.104767
H18   H     H_    0.385843 0.881377 0.547363 0.104593
H19   H     H_    0.114254 0.381689 0.452742 0.104902
H20   H     H_    0.885842 0.381378 0.547361 0.104802
H21   H     H_    0.600228 0.819219 0.571698 0.150694
H22   H     H_    0.399867 0.819204 0.428236 0.150663
H23   H     H_    0.100227 0.319221 0.571698 0.150455
H24   H     H_    0.899865 0.319209 0.428235 0.150621
H25   H     H_    0.934004 0.463935 0.418245 0.116156
H26   H     H_    0.066100 0.463865 0.582129 0.116263
H27   H     H_    0.434002 0.963931 0.418246 0.116199
H28   H     H_    0.566101 0.963864 0.582130 0.116414
H29   H     H_    0.951463 0.490475 0.536211 0.138991
H30   H     H_    0.048625 0.490645 0.464231 0.138483
H31   H     H_    0.451464 0.990473 0.536212 0.139127
H32   H     H_    0.548624 0.990645 0.464231 0.138629
H33   H     H_    0.805540 0.907098 0.055717 0.135495
H34   H     H_    0.192353 0.911759 0.945367 0.137294
H35   H     H_    0.306449 0.412795 0.052736 0.133408
H36   H     H_    0.675854 0.421702 0.941973 0.141055
H37   H     H_    0.673573 0.196758 0.442115 0.147890
H38   H     H_    0.326924 0.195894 0.558326 0.148872
H39   H     H_    0.173571 0.696761 0.442115 0.147834
H40   H     H_    0.826920 0.695901 0.558325 0.148811
H41   H     H_    0.852490 0.028263 0.067157 0.188674
H42   H     H_    0.146159 0.033372 0.930159 0.169339
H43   H     H_    0.354577 0.531455 0.071401 0.186546
H44   H     H_    0.644361 0.556745 0.931031 0.180947
H45   H     H_    0.865198 0.039849 0.950189 0.188734
H46   H     H_    0.134245 0.059753 0.046461 0.167545
H47   H     H_    0.366626 0.570212 0.955956 0.162329
H48   H     H_    0.631798 0.568808 0.047978 0.164107
H49   H     H_    0.806584 0.925706 0.934796 0.124712
H50   H     H_    0.183352 0.936429 0.063838 0.127298
H51   H     H_    0.321144 0.441978 0.935729 0.131807
H52   H     H_    0.678091 0.440252 0.061077 0.130437
H53   H     H_    0.660990 0.950655 0.047167 0.109767
H54   H     H_    0.338821 0.946951 0.948947 0.109996
H55   H     H_    0.162966 0.449332 0.051731 0.113669
H56   H     H_    0.805329 0.419258 0.953605 0.109269
H57   H     H_    0.689187 0.956258 0.924441 0.106821
H58   H     H_    0.300806 0.938410 0.071625 0.113122
H59   H     H_    0.201501 0.438454 0.929150 0.115544
H60   H     H_    0.796134 0.434622 0.077105 0.113077
H61   H     H_    0.717217 0.248400 0.084182 0.125457
H62   H     H_    0.282049 0.249840 0.910562 0.125428
H63   H     H_    0.218057 0.750620 0.090375 0.125263
H64   H     H_    0.796912 0.736071 0.914363 0.131716
H65   H     H_    0.805679 0.222647 0.088567 0.100993
H66   H     H_    0.193637 0.226065 0.921191 0.104974
H67   H     H_    0.306497 0.729139 0.079571 0.103394
H68   H     H_    0.706537 0.738489 0.917866 0.099961
H69   H     H_    0.813383 0.244398 0.968344 0.100746
H70   H     H_    0.219995 0.288820 0.041556 0.107514
H71   H     H_    0.281105 0.790453 0.959743 0.106992
H72   H     H_    0.721825 0.786517 0.038912 0.106773
H73   H     H_    0.725308 0.272498 0.962596 0.128700
H74   H     H_    0.303398 0.242522 0.029658 0.126157
H75   H     H_    0.197190 0.743547 0.971045 0.126880
H76   H     H_    0.807308 0.736800 0.033610 0.130798
H77   H     H_    0.643443 0.104139 0.047027 0.129872
H78   H     H_    0.355432 0.098730 0.957060 0.127901
H79   H     H_    0.144959 0.599703 0.042499 0.127547
H80   H     H_    0.858009 0.547351 0.950972 0.133108
H81   H     H_    0.689478 0.233753 0.560396 0.142595
H82   H     H_    0.310386 0.233797 0.440120 0.142027
H83   H     H_    0.189476 0.733752 0.560397 0.142571
H84   H     H_    0.810388 0.733795 0.440118 0.141994
H85   H     H_    0.649749 0.098669 0.925198 0.124175
H86   H     H_    0.349948 0.069750 0.079045 0.116592
H87   H     H_    0.152651 0.569919 0.920384 0.116769
H88   H     H_    0.848520 0.562141 0.074698 0.115855
H89   H     H_    0.051019 0.533452 0.054129 0.143770
H90   H     H_    0.962636 0.539871 0.943653 0.144391
H91   H     H_    0.550386 0.030100 0.050675 0.138780
H92   H     H_    0.448179 0.029693 0.950018 0.137420
H93   H     H_    0.964506 0.521167 0.062496 0.125318
H94   H     H_    0.048696 0.515734 0.933044 0.123826
H95   H     H_    0.464626 0.023193 0.068477 0.128663
H96   H     H_    0.533680 0.026928 0.932680 0.128818
H97   H     H_    0.617603 0.787816 0.037712 0.071935
H98   H     H_    0.384279 0.785725 0.960695 0.071783
H99   H     H_    0.118320 0.294182 0.036403 0.058823
H100  H     H_    0.894271 0.348400 0.966253 0.064599
H101  H     H_    0.595067 0.863941 0.922552 0.071297
H102  H     H_    0.405072 0.854606 0.077339 0.071134
H103  H     H_    0.098420 0.335675 0.917127 0.058578
H104  H     H_    0.907879 0.349394 0.082890 0.060141
H105  H     H_    0.923266 0.202415 0.955665 0.201178
H106  H     H_    0.062112 0.184101 0.039215 0.218926
H107  H     H_    0.447147 0.681991 0.965358 0.215956
H108  H     H_    0.555392 0.683358 0.029436 0.211141
H109  H     H_    0.647630 0.103815 0.580685 0.110733
H110  H     H_    0.352303 0.104189 0.419179 0.110819
H111  H     H_    0.147633 0.603810 0.580683 0.110606
H112  H     H_    0.852303 0.604183 0.419181 0.110783
H113  H     H_    0.722421 0.862674 0.466268 0.098211
H114  H     H_    0.277583 0.862395 0.533007 0.098089
H115  H     H_    0.222424 0.362681 0.466262 0.098196
H116  H     H_    0.777584 0.362397 0.533009 0.097983
H117  H     H_    0.699190 0.924599 0.583504 0.130460
H118  H     H_    0.300833 0.924744 0.416046 0.130732
H119  H     H_    0.199198 0.424595 0.583501 0.130466
H120  H     H_    0.800830 0.424741 0.416047 0.130791
H121  H     H_    0.846513 0.093659 0.419775 0.181913
H122  H     H_    0.153542 0.093204 0.580314 0.181715
H123  H     H_    0.346515 0.593680 0.419770 0.182172
H124  H     H_    0.653542 0.593202 0.580315 0.182401
H125  H     H_    0.793964 0.218141 0.431144 0.153019
H126  H     H_    0.206172 0.217708 0.569220 0.153739
H127  H     H_    0.293962 0.718153 0.431144 0.153027
H128  H     H_    0.706169 0.717709 0.569221 0.153816
H129  H     H_    0.837016 0.214572 0.547850 0.102944
H130  H     H_    0.163007 0.214435 0.452658 0.102808
H131  H     H_    0.337018 0.714577 0.547850 0.102713
H132  H     H_    0.663006 0.714435 0.452658 0.102614
O1    O     O_R   0.957210 0.449410 0.665480 -0.532489
O2    O     O_R   0.042790 0.449410 0.334520 -0.531655
O3    O     O_R   0.457210 0.949410 0.665480 -0.532621
O4    O     O_R   0.542790 0.949410 0.334520 -0.532191
O5    O     O_R   0.736260 0.212010 0.826560 -0.510481
O6    O     O_R   0.263740 0.212010 0.173440 -0.509279
O7    O     O_R   0.236260 0.712010 0.826560 -0.510474
O8    O     O_R   0.763740 0.712010 0.173440 -0.510638
O9    O     O_R   0.832520 0.095300 0.836000 -0.513745
O10   O     O_R   0.167480 0.095300 0.164000 -0.516104
O11   O     O_R   0.332520 0.595300 0.836000 -0.511676
O12   O     O_R   0.667480 0.595300 0.164000 -0.512190
O13   O     O_R   0.946380 0.253940 0.826940 -0.493090
O14   O     O_R   0.053620 0.253940 0.173060 -0.499082
O15   O     O_R   0.446380 0.753940 0.826940 -0.468153
O16   O     O_R   0.553620 0.753940 0.173060 -0.476542
O17   O     O_3   0.834560 0.334570 0.748840 -0.297771
O18   O     O_3   0.165440 0.334570 0.251160 -0.298409
O19   O     O_3   0.334560 0.834570 0.748840 -0.302716
O20   O     O_3   0.665440 0.834570 0.251160 -0.301355
O21   O     O_R   0.820730 0.541240 0.668250 -0.485510
O22   O     O_R   0.179270 0.541240 0.331750 -0.485488
O23   O     O_R   0.320730 0.041240 0.668250 -0.485057
O24   O     O_R   0.679270 0.041240 0.331750 -0.484910
O25   O     O_R   0.714240 0.455060 0.663710 -0.530103
O26   O     O_R   0.285760 0.455060 0.336290 -0.530782
O27   O     O_R   0.214240 0.955060 0.663710 -0.531694
O28   O     O_R   0.785760 0.955060 0.336290 -0.531406
O29   O     O_R   0.736780 0.204870 0.675910 -0.523142
O30   O     O_R   0.263220 0.204870 0.324090 -0.522640
O31   O     O_R   0.236780 0.704870 0.675910 -0.523055
O32   O     O_R   0.763220 0.704870 0.324090 -0.522722
O33   O     O_R   0.833070 0.087590 0.673490 -0.511222
O34   O     O_R   0.166930 0.087590 0.326510 -0.512115
O35   O     O_R   0.333070 0.587590 0.673490 -0.511149
O36   O     O_R   0.666930 0.587590 0.326510 -0.512128
O37   O     O_R   0.946890 0.246800 0.676300 -0.526295
O38   O     O_R   0.053110 0.246800 0.323700 -0.525466
O39   O     O_R   0.446890 0.746800 0.676300 -0.523698
O40   O     O_R   0.553110 0.746800 0.323700 -0.524939
O41   O     O_R   0.956650 0.457120 0.827980 -0.533120
O42   O     O_R   0.043350 0.457120 0.172020 -0.531748
O43   O     O_R   0.456650 0.957120 0.827980 -0.538933
O44   O     O_R   0.543350 0.957120 0.172020 -0.536862
O45   O     O_R   0.820220 0.548390 0.818890 -0.496708
O46   O     O_R   0.179780 0.548390 0.181110 -0.496769
O47   O     O_R   0.320220 0.048390 0.818890 -0.496202
O48   O     O_R   0.679780 0.048390 0.181110 -0.496152
O49   O     O_R   0.713680 0.462770 0.826210 -0.521089
O50   O     O_R   0.286320 0.462770 0.173790 -0.524559
O51   O     O_R   0.213680 0.962770 0.826210 -0.529216
O52   O     O_R   0.786320 0.962770 0.173790 -0.528538
C121  C     C_2   0.800374 0.882981 0.607947 0.198246
H133  H     H_    0.853423 0.884118 0.593561 0.104395
O53   O     O_2   0.782281 0.827761 0.660626 -0.510617
C122  C     C_2   0.199702 0.882846 0.391362 0.198559
H134  H     H_    0.146594 0.884185 0.405488 0.104812
O54   O     O_2   0.217960 0.827165 0.338825 -0.510742
C123  C     C_2   0.300386 0.382986 0.607936 0.198331
H135  H     H_    0.353433 0.384124 0.593542 0.104684
O55   O     O_2   0.282299 0.327764 0.660617 -0.510177
C124  C     C_2   0.699697 0.382848 0.391367 0.198689
H136  H     H_    0.646590 0.384187 0.405497 0.105028
O56   O     O_2   0.717952 0.327165 0.338830 -0.509910
N1    N     N_3   0.962078 0.120705 0.420432 -0.691684
H137  H     H_    0.978947 0.105672 0.368336 0.262335
H138  H     H_    0.962810 0.037988 0.444719 0.206695
N2    N     N_3   0.037994 0.120720 0.579116 -0.692126
H139  H     H_    0.021168 0.105862 0.631217 0.262102
H140  H     H_    0.037161 0.037950 0.554728 0.206819
N3    N     N_3   0.462088 0.620703 0.420422 -0.691015
H141  H     H_    0.479021 0.605548 0.368360 0.263941
H142  H     H_    0.462756 0.538026 0.444761 0.206770
N4    N     N_3   0.537998 0.620721 0.579113 -0.690937
H143  H     H_    0.521198 0.605910 0.631230 0.265207
H144  H     H_    0.537141 0.537935 0.554745 0.206859
C125  C     C_2   0.940338 0.174738 0.093106 0.189247
H145  H     H_    0.915020 0.169324 0.144619 0.114689
O57   O     O_2   0.965102 0.085826 0.067520 -0.505607
C126  C     C_2   0.056283 0.166876 0.902807 0.197339
H146  H     H_    0.083800 0.157887 0.852738 0.109659
O58   O     O_2   0.023447 0.083718 0.925044 -0.488809
C127  C     C_2   0.435691 0.683272 0.103128 0.183487
H147  H     H_    0.402415 0.685803 0.149389 0.116921
O59   O     O_2   0.467483 0.593540 0.090971 -0.526031
C128  C     C_2   0.568088 0.695232 0.890657 0.180798
H148  H     H_    0.604945 0.701968 0.847706 0.113921
O60   O     O_2   0.534932 0.605184 0.896119 -0.515342

loop_
_geom_bond_atom_site_label_1
_geom_bond_atom_site_label_2
_ccdc_geom_bond_type
C78   H94   S    
C82   C94   S    
C119  H11   S    
C7    H127  S    
C120  H12   S    
C35   H22   S    
C21   H5    S    
C116  H84   S    
C53   C69   S    
C33   H24   S    
C43   C63   S    
C34   H23   S    
C44   C64   S    
C70   H86   S    
Cr1   O17   S    
C50   H46   S    
C63   C98   S    
C51   H51   S    
C28   C40   S    
Cr12  O12   S    
C32   H31   S    
C81   H106  S    
C30   C38   S    
C44   H36   S    
C75   H75   S    
C56   C72   S    
C98   O46   A    
C8    H124  S    
C124  H136  S    
C106  O14   A    
C85   C125  S    
C84   H98   S    
C18   C118  S    
C81   C86   S    
Cr4   O20   S    
C83   C88   S    
C92   O40   A    
C91   O3    A    
C41   C49   S    
C36   H21   S    
C49   H45   S    
C88   C128  S    
C109  H1    S    
C123  H135  S    
C46   O34   A    
Cr1   O1    S    
N3    H142  S    
C26   C38   S    
C59   H63   S    
C14   C114  S    
C73   H69   S    
Cr4   O4    S    
C24   H8    S    
C15   C19   S    
C54   C70   S    
C23   H131  S    
C68   C72   S    
Cr9   O37   S    
C115  H83   S    
C98   O50   A    
C102  O10   A    
C64   C97   S    
C27   N3    S    
C15   C115  S    
Cr6   O50   S    
C70   H58   S    
Cr7   O31   S    
Cr8   O32   S    
Cr1   O41   S    
C57   H65   S    
Cr6   O6    S    
C52   H52   S    
C26   N2    S    
C118  H114  S    
C57   C61   S    
C82   C85   S    
C59   C63   S    
C60   C64   S    
C13   C45   S    
C66   C70   S    
C78   C94   S    
Cr9   O33   S    
C128  H148  S    
C95   C108  S    
C60   H68   S    
C62   C99   S    
C92   O4    A    
C5    C21   S    
C108  O44   A    
C81   H99   S    
Cr5   O5    S    
C31   C36   S    
C48   O36   A    
C55   C71   S    
C76   H76   S    
C122  O54   D    
Cr6   O30   S    
Cr7   O51   S    
C116  H112  S    
C114  H82   S    
C65   C101  S    
C43   C51   S    
Cr11  O19   S    
C67   C103  S    
C3    O27   A    
C88   H101  S    
C37   C90   S    
Cr10  O34   S    
Cr11  O39   S    
C22   H130  S    
C100  O48   A    
C20   H120  S    
C66   C74   S    
C57   C73   S    
C26   H14   S    
C119  H115  S    
C53   C61   S    
C106  O42   A    
C87   C95   S    
C56   C64   S    
C10   C110  S    
C47   O31   A    
C104  O12   A    
C48   O32   A    
C89   O37   A    
C44   C52   S    
C91   O39   A    
Cr7   O7    S    
Cr8   O8    S    
C50   H50   S    
C1    C12   S    
C43   H43   S    
C112  H4    S    
C51   H47   S    
C2    C11   S    
C109  H37   S    
C125  O57   D    
Cr12  O16   S    
N2    H139  S    
C42   H42   S    
C75   H71   S    
C1    O25   A    
C25   C26   S    
C101  O5    A    
N3    H141  S    
C123  O55   D    
C103  O7    A    
C8    H128  S    
C5    C9    S    
C93   C106  S    
C29   H19   S    
C30   H20   S    
C8    C12   S    
C5    H125  S    
C32   H18   S    
C51   C67   S    
C78   H90   S    
C49   H49   S    
C114  H110  S    
C42   C50   S    
N4    H144  S    
Cr12  O40   S    
C86   C126  S    
Cr4   O44   S    
C61   C100  S    
C67   C75   S    
Cr8   O20   S    
C112  C116  S    
Cr2   O2    S    
C21   H129  S    
C41   H41   S    
C31   H32   S    
Cr12  O36   S    
C17   C121  S    
C29   H30   S    
C44   H44   S    
Cr5   O17   S    
C79   H91   S    
C43   H35   S    
C68   C76   S    
C13   C17   S    
C14   C22   S    
C99   O51   A    
C103  O11   A    
C19   H119  S    
C27   C39   S    
C7    C23   S    
C17   H117  S    
C8    C24   S    
C111  H39   S    
C40   C91   S    
Cr5   O25   S    
C110  H2    S    
C19   C119  S    
C84   H107  S    
C54   H78   S    
C126  H146  S    
Cr1   O45   S    
Cr2   O42   S    
C72   H88   S    
Cr3   O47   S    
C120  H116  S    
C71   H59   S    
C4    C9    S    
C72   H60   S    
C58   C62   S    
C88   C96   S    
C94   C105  S    
C77   H93   S    
C59   C75   S    
Cr9   O9    S    
C12   C112  S    
Cr11  O35   S    
C1    O21   A    
C14   C46   S    
C77   C78   S    
C3    O23   A    
C58   C74   S    
C69   H85   S    
C55   C63   S    
C31   H17   S    
C6    C22   S    
C82   H105  S    
C9    C117  S    
C121  O53   D    
C66   C102  S    
C73   H73   S    
Cr6   O26   S    
C99   O47   A    
C20   C120  S    
C15   C47   S    
Cr10  O10   S    
Cr11  O15   S    
C17   C117  S    
C42   C62   S    
C107  O15   A    
Cr10  O38   S    
C18   C122  S    
C16   C116  S    
C100  O52   A    
C33   H25   S    
C9    C109  S    
C117  H9    S    
C28   H16   S    
C11   C111  S    
C127  H147  S    
C54   C62   S    
C107  O43   A    
C29   C34   S    
C58   H62   S    
C33   C37   S    
C41   C61   S    
C45   O33   A    
C35   C39   S    
C4    O28   A    
C79   C95   S    
C87   C127  S    
C80   H92   S    
C111  C115  S    
C90   O38   A    
Cr5   O29   S    
Cr1   O21   S    
C80   H96   S    
C128  O60   D    
Cr2   O18   S    
Cr3   O23   S    
Cr4   O24   S    
Cr12  O20   S    
C96   C107  S    
C39   C92   S    
C102  O6    A    
C7    H123  S    
C68   C104  S    
C6    C10   S    
C117  H113  S    
C74   H70   S    
C22   H6    S    
C6    H126  S    
C2    O26   A    
C112  H40   S    
C65   C69   S    
Cr6   O18   S    
C77   C93   S    
C60   C76   S    
Cr4   O48   S    
C67   C71   S    
C111  H3    S    
C28   N4    S    
Cr3   O3    S    
C53   H77   S    
C54   H54   S    
C29   C37   S    
C30   H29   S    
C42   H34   S    
C97   O45   A    
C85   H104  S    
C105  O13   A    
N1    H137  S    
C14   C18   S    
C47   O35   A    
C84   C87   S    
C113  H81   S    
C11   C119  S    
C16   C48   S    
C104  O8    A    
C125  H145  S    
C7    C11   S    
C38   C89   S    
C4    O24   A    
C87   H102  S    
C49   C65   S    
C23   H7    S    
C90   O2    A    
N2    H140  S    
C56   H80   S    
C5    H121  S    
Cr2   O46   S    
C65   C73   S    
C6    H122  S    
Cr3   O43   S    
C84   C96   S    
Cr7   O19   S    
C53   H53   S    
C86   C94   S    
C25   C37   S    
C12   C120  S    
C56   H56   S    
C59   H67   S    
C41   H33   S    
Cr9   O13   S    
C55   H55   S    
C80   C96   S    
C89   O1    A    
C52   C68   S    
C16   C20   S    
C2    O22   A    
C15   C23   S    
C16   C24   S    
C97   O49   A    
C101  O9    A    
C85   C93   S    
C79   H95   S    
C25   N1    S    
C13   C21   S    
C32   C35   S    
C36   C40   S    
Cr5   O49   S    
C69   H57   S    
Cr7   O27   S    
Cr8   O52   S    
C57   H61   S    
Cr10  O14   S    
C52   H48   S    
Cr11  O11   S    
C10   C118  S    
C127  O59   D    
C81   C93   S    
Cr8   O28   S    
C83   C95   S    
C24   H132  S    
N1    H138  S    
C82   H100  S    
Cr9   O17   S    
C50   C66   S    
C115  H111  S    
C34   H26   S    
C77   H89   S    
C126  O58   D    
C113  H109  S    
C110  H38   S    
C60   H64   S    
C74   H74   S    
C110  C114  S    
C58   H66   S    
C30   C33   S    
C34   C38   S    
C45   O29   A    
C83   H97   S    
C118  H10   S    
C124  O56   D    
C76   H72   S    
C19   C123  S    
C109  C113  S    
C46   O30   A    
C83   H108  S    
C71   H87   S    
C86   H103  S    
C122  H134  S    
Cr2   O22   S    
Cr10  O18   S    
C3    C10   S    
Cr3   O19   S    
C20   C124  S    
C18   H118  S    
C31   C39   S    
C32   C40   S    
C121  H133  S    
C35   H27   S    
C36   H28   S    
C55   H79   S    
C79   C80   S    
C27   H15   S    
N4    H143  S    
C27   C28   S    
C25   H13   S    
C108  O16   A    
C13   C113  S    
C105  O41   A    
