data_mof_unit_1253.cif
_audit_creation_date              2012-12-11T14:44:18-0500
_audit_creation_method            fapswitch 2.2
_symmetry_space_group_name_H-M    P1
_symmetry_Int_Tables_number       1
_space_group_crystal_system       triclinic
_cell_length_a                    18.913114
_cell_length_b                    10.927102
_cell_length_c                    18.753579
_cell_angle_alpha                 89.818207
_cell_angle_beta                  90.243247
_cell_angle_gamma                 89.687711
_cell_volume                      3875.60597372

loop_
_atom_site_label
_atom_site_type_symbol
_atom_type_description
_atom_site_fract_x
_atom_site_fract_y
_atom_site_fract_z
_atom_type_partial_charge
C1    C     C_R   0.730897 0.381296 0.147033 0.551420
C2    C     C_R   0.986764 0.997165 0.035116 -0.077054
C3    C     C_R   0.991234 0.774041 0.038085 -0.021846
C4    C     C_R   0.491423 0.050009 0.037938 0.100023
C5    C     C_R   0.504432 0.049451 0.964562 0.089467
C6    C     C_R   0.991427 0.550010 0.037936 0.100145
C7    C     C_R   0.004436 0.549452 0.964560 0.089402
C8    C     C_1   0.795621 0.732338 0.399627 0.186561
C9    C     C_1   0.357677 0.786469 0.580520 0.209004
C10   C     C_1   0.290365 0.232715 0.400171 0.180629
C11   C     C_1   0.856532 0.284643 0.582023 0.209765
C12   C     C_1   0.839714 0.103783 0.912454 0.218020
C13   C     C_R   0.513076 0.496164 0.966117 -0.124104
C14   C     C_1   0.160251 0.105392 0.087257 0.219180
C15   C     C_1   0.339715 0.603781 0.912454 0.218000
C16   C     C_1   0.660233 0.605372 0.087243 0.220013
C17   C     C_R   0.486752 0.497163 0.035119 -0.077174
C18   C     C_R   0.681542 0.919401 0.029982 -0.132042
C19   C     C_R   0.318239 0.917985 0.970023 -0.131533
C20   C     C_R   0.181542 0.419402 0.029981 -0.132101
C21   C     C_R   0.818239 0.417986 0.970022 -0.131440
C22   C     C_R   0.690953 0.888789 0.958633 -0.171572
C23   C     C_R   0.308635 0.887190 0.041343 -0.174111
C24   C     C_R   0.190953 0.388791 0.958632 -0.171558
C25   C     C_R   0.269073 0.381042 0.852978 0.532576
C26   C     C_R   0.808634 0.387190 0.041341 -0.174470
C27   C     C_R   0.746411 0.939850 0.919650 0.016371
C28   C     C_R   0.253449 0.939826 0.080273 0.015882
C29   C     C_R   0.246411 0.439850 0.919650 0.016416
C30   C     C_R   0.753444 0.439820 0.080269 0.015325
C31   C     C_R   0.787468 0.034060 0.951150 -0.007963
C32   C     C_R   0.212595 0.035178 0.048673 -0.008318
C33   C     C_R   0.287469 0.534059 0.951150 -0.007982
C34   C     C_R   0.712585 0.535165 0.048667 -0.008779
C35   C     C_R   0.780076 0.058676 0.023170 -0.127097
C36   C     C_R   0.230898 0.881298 0.147033 0.544707
C37   C     C_R   0.220204 0.060199 0.976651 -0.142779
C38   C     C_R   0.280078 0.558672 0.023170 -0.126928
C39   C     C_R   0.720198 0.560189 0.976646 -0.142906
C40   C     C_R   0.729381 0.998147 0.063657 0.015229
C41   C     C_R   0.270763 0.998456 0.936306 0.009533
C42   C     C_R   0.229382 0.498145 0.063657 0.015331
C43   C     C_R   0.770762 0.498453 0.936304 0.009555
C44   C     C_R   0.536886 0.055904 0.475062 0.054676
C45   C     C_R   0.532725 0.065067 0.548706 0.053359
C46   C     C_R   0.037568 0.556231 0.475533 0.057382
C47   C     C_R   0.769073 0.881042 0.852978 0.533002
C48   C     C_R   0.033733 0.565356 0.549240 0.054447
C49   C     C_R   0.504035 0.171135 0.578946 0.055151
C50   C     C_R   0.518997 0.158914 0.431585 0.060387
C51   C     C_R   0.005212 0.671383 0.579593 0.054008
C52   C     C_R   0.020393 0.659680 0.432192 0.062297
C53   C     C_R   0.529685 0.155259 0.147125 0.537052
C54   C     C_R   0.469825 0.154806 0.853332 0.565033
C55   C     C_R   0.029686 0.655259 0.147124 0.536003
C56   C     C_R   0.969826 0.654806 0.853331 0.564939
C57   C     C_R   0.490678 0.276660 0.536669 0.038844
C58   C     C_R   0.521168 0.385653 0.929465 0.123318
C59   C     C_R   0.495777 0.268687 0.462394 0.035699
C60   C     C_R   0.993195 0.777660 0.537656 0.041004
C61   C     C_R   0.999021 0.770434 0.463399 0.042356
C62   C     C_R   0.726864 0.027772 0.475972 -0.153618
C63   C     C_R   0.182333 0.938239 0.543763 -0.173507
C64   C     C_R   0.231345 0.534644 0.476490 -0.153405
C65   C     C_R   0.677298 0.424702 0.547705 -0.165275
C66   C     C_R   0.734622 0.008718 0.548247 -0.201301
C67   C     C_R   0.180402 0.935126 0.470655 -0.177216
C68   C     C_R   0.237731 0.514050 0.548884 -0.197524
C69   C     C_R   0.475060 0.387684 0.071764 0.134284
C70   C     C_R   0.669102 0.401580 0.476051 -0.178740
C71   C     C_R   0.759430 0.896173 0.572125 0.053837
C72   C     C_R   0.238196 0.890479 0.431804 0.056789
C73   C     C_R   0.258712 0.398935 0.572704 0.052149
C74   C     C_R   0.724526 0.351467 0.436599 0.041515
C75   C     C_R   0.779597 0.803272 0.523877 0.070473
C76   C     C_R   0.297357 0.841084 0.468204 0.062706
C77   C     C_R   0.277231 0.305355 0.524362 0.068836
C78   C     C_R   0.787206 0.312159 0.471866 0.069696
C79   C     C_R   0.774093 0.824758 0.450407 -0.049344
C80   C     C_R   0.021174 0.885653 0.929462 0.123302
C81   C     C_R   0.299255 0.844493 0.543014 -0.027459
C82   C     C_R   0.270923 0.326442 0.451034 -0.051014
C83   C     C_R   0.794630 0.332572 0.545386 -0.027716
C84   C     C_R   0.747888 0.937826 0.427401 0.002049
C85   C     C_R   0.244000 0.904264 0.580068 -0.020641
C86   C     C_R   0.247706 0.441304 0.428049 0.000283
C87   C     C_R   0.741700 0.399217 0.581794 -0.020451
C88   C     C_R   0.726838 0.021252 0.140315 0.565748
C89   C     C_R   0.273211 0.021546 0.859650 0.560621
C90   C     C_R   0.226839 0.521250 0.140315 0.565047
C91   C     C_R   0.975067 0.887687 0.071761 0.134459
C92   C     C_R   0.773211 0.521545 0.859650 0.560628
C93   C     C_R   0.712214 0.332755 0.360272 0.575091
C94   C     C_R   0.270387 0.377946 0.647393 0.575863
C95   C     C_R   0.227464 0.872068 0.355510 0.595065
C96   C     C_R   0.770797 0.876756 0.646956 0.576380
C97   C     C_R   0.535963 0.155591 0.355921 0.595148
C98   C     C_R   0.469960 0.158257 0.647993 0.596479
C99   C     C_R   0.036547 0.655671 0.356260 0.602561
C100  C     C_R   0.970228 0.658278 0.648195 0.596112
C101  C     C_R   0.742029 0.969884 0.353559 0.558983
C102  C     C_R   0.013086 0.996164 0.966114 -0.124011
C103  C     C_R   0.256880 0.964499 0.648283 0.569366
C104  C     C_R   0.241677 0.471612 0.354106 0.564351
C105  C     C_R   0.756818 0.464838 0.648104 0.567952
C106  C     C_R   0.501357 0.160768 0.925967 0.011974
C107  C     C_R   0.495331 0.161512 0.075850 -0.022795
C108  C     C_R   0.001360 0.660769 0.925965 0.011955
C109  C     C_R   0.995334 0.661513 0.075847 -0.022228
C110  C     C_R   0.503983 0.273537 0.963465 0.014803
C111  C     C_R   0.491229 0.274039 0.038088 -0.021971
C112  C     C_R   0.003988 0.773538 0.963462 0.014763
Cr1   Cr    Cr6+3 0.772000 0.169640 0.250110 1.046293
Cr2   Cr    Cr6+3 0.383330 0.010620 0.749160 1.084522
Cr3   Cr    Cr6+3 0.116670 0.510620 0.250840 1.072592
Cr4   Cr    Cr6+3 0.883330 0.510620 0.749160 1.085553
Cr5   Cr    Cr6+3 0.228000 0.169640 0.749890 1.025608
Cr6   Cr    Cr6+3 0.272000 0.669640 0.250110 1.046277
Cr7   Cr    Cr6+3 0.728000 0.669640 0.749890 1.025487
Cr8   Cr    Cr6+3 0.614960 0.323350 0.249260 1.034761
Cr9   Cr    Cr6+3 0.385040 0.323350 0.750740 1.068184
Cr10  Cr    Cr6+3 0.114960 0.823350 0.249260 1.037990
Cr11  Cr    Cr6+3 0.885040 0.823350 0.750740 1.067631
Cr12  Cr    Cr6+3 0.616670 0.010620 0.250840 1.069019
H1    H     H_    0.703455 0.112417 0.457416 0.125803
H2    H     H_    0.975604 0.083982 0.060546 0.140329
H3    H     H_    0.525716 0.582019 0.940239 0.124866
H4    H     H_    0.475590 0.583979 0.060548 0.140366
H5    H     H_    0.639009 0.877407 0.059357 0.180297
H6    H     H_    0.360543 0.874723 0.940701 0.181803
H7    H     H_    0.139007 0.377411 0.059356 0.180329
H8    H     H_    0.860546 0.374729 0.940701 0.181807
H9    H     H_    0.656998 0.821117 0.934762 0.113677
H10   H     H_    0.342199 0.818095 0.065250 0.115071
H11   H     H_    0.156996 0.321121 0.934760 0.113725
H12   H     H_    0.138027 0.979724 0.571176 0.153340
H13   H     H_    0.842200 0.318100 0.065250 0.114904
H14   H     H_    0.815538 0.122655 0.048347 0.124252
H15   H     H_    0.184933 0.125244 0.951309 0.118480
H16   H     H_    0.315541 0.622650 0.048347 0.124381
H17   H     H_    0.684926 0.625231 0.951302 0.118436
H18   H     H_    0.457294 0.871328 0.040835 0.223400
H19   H     H_    0.437194 0.952992 0.111512 0.237197
H20   H     H_    0.540971 0.871804 0.963207 0.222117
H21   H     H_    0.558478 0.951205 0.891204 0.237222
H22   H     H_    0.957296 0.371330 0.040832 0.223375
H23   H     H_    0.213298 0.623464 0.457867 0.135654
H24   H     H_    0.937196 0.452994 0.111508 0.237684
H25   H     H_    0.040972 0.371804 0.963204 0.222129
H26   H     H_    0.058480 0.451204 0.891201 0.237226
H27   H     H_    0.775685 0.619879 0.528595 0.237466
H28   H     H_    0.857948 0.677096 0.530351 0.224815
H29   H     H_    0.400891 0.837155 0.441963 0.229689
H30   H     H_    0.361927 0.697637 0.445168 0.238782
H31   H     H_    0.274259 0.122483 0.528437 0.238273
H32   H     H_    0.356058 0.180253 0.530388 0.225321
H33   H     H_    0.888992 0.305868 0.438435 0.232137
H34   H     H_    0.634734 0.471395 0.575070 0.154293
H35   H     H_    0.852991 0.167043 0.455571 0.233728
H36   H     H_    0.604747 0.420704 0.866751 0.253430
H37   H     H_    0.525548 0.448089 0.827954 0.247833
H38   H     H_    0.420210 0.310193 0.155558 0.240085
H39   H     H_    0.473531 0.429869 0.177163 0.256555
H40   H     H_    0.104751 0.920698 0.866744 0.253441
H41   H     H_    0.025550 0.948088 0.827951 0.247933
H42   H     H_    0.920213 0.810202 0.155554 0.240141
H43   H     H_    0.973534 0.929877 0.177158 0.256094
H44   H     H_    0.519137 0.874560 0.458394 0.219828
H45   H     H_    0.719792 0.080091 0.585387 0.127603
H46   H     H_    0.605441 0.911345 0.464683 0.238252
H47   H     H_    0.606476 0.942328 0.584982 0.228581
H48   H     H_    0.522935 0.887237 0.580602 0.256926
H49   H     H_    0.017897 0.375749 0.458351 0.222776
H50   H     H_    0.105075 0.410440 0.464850 0.237017
H51   H     H_    0.108077 0.443981 0.585334 0.227867
H52   H     H_    0.024875 0.387319 0.580980 0.257938
H53   H     H_    0.419167 0.414793 0.549108 0.251455
H54   H     H_    0.505055 0.457874 0.555477 0.219047
H55   H     H_    0.500840 0.447635 0.431287 0.224540
H56   H     H_    0.132968 0.968747 0.444663 0.149730
H57   H     H_    0.419394 0.384851 0.426218 0.237574
H58   H     H_    0.922464 0.916936 0.550303 0.249074
H59   H     H_    0.008628 0.958450 0.557257 0.218863
H60   H     H_    0.009395 0.948655 0.433192 0.225165
H61   H     H_    0.925931 0.893323 0.427560 0.234470
H62   H     H_    0.225784 0.586840 0.586130 0.127623
H63   H     H_    0.619902 0.427618 0.450734 0.146240
H64   H     H_    0.025728 0.082018 0.940235 0.124880
N1    N     N_3   0.478079 0.936718 0.075317 -0.585283
N2    N     N_1   0.404191 0.739522 0.610370 -0.299579
N3    N     N_1   0.306090 0.157978 0.359543 -0.285504
N4    N     N_1   0.905822 0.245642 0.611178 -0.299528
N5    N     N_3   0.553604 0.386860 0.860573 -0.604047
N6    N     N_3   0.438740 0.395371 0.138831 -0.588986
N7    N     N_3   0.053607 0.886857 0.860568 -0.603952
N8    N     N_3   0.938745 0.895378 0.138827 -0.589232
N9    N     N_1   0.881618 0.158886 0.881268 -0.300382
N10   N     N_1   0.118261 0.160888 0.118360 -0.300343
N11   N     N_1   0.381619 0.658884 0.881268 -0.300402
N12   N     N_3   0.518340 0.935448 0.928264 -0.590982
N13   N     N_1   0.618236 0.660863 0.118338 -0.298818
N14   N     N_3   0.556680 0.939959 0.444508 -0.574892
N15   N     N_3   0.553451 0.963522 0.593434 -0.598891
N16   N     N_3   0.056355 0.439993 0.444825 -0.576719
N17   N     N_3   0.054906 0.464102 0.593939 -0.598556
N18   N     N_3   0.468892 0.389769 0.568947 -0.576178
N19   N     N_3   0.473155 0.368692 0.417607 -0.602348
N20   N     N_3   0.971984 0.890848 0.570234 -0.577585
N21   N     N_3   0.979235 0.872699 0.419069 -0.600380
N22   N     N_3   0.978081 0.436719 0.075314 -0.585342
N23   N     N_3   0.018342 0.435449 0.928262 -0.590962
N24   N     N_3   0.806883 0.689041 0.550139 -0.583181
N25   N     N_3   0.355180 0.788743 0.429183 -0.582425
N26   N     N_3   0.305037 0.191449 0.550398 -0.581786
N27   N     N_3   0.843264 0.253275 0.433182 -0.572259
N28   N     N_1   0.812892 0.658366 0.359149 -0.266546
O1    O     O_R   0.787540 0.042690 0.170470 -0.494045
O2    O     O_R   0.454130 0.051100 0.669160 -0.478285
O3    O     O_R   0.045870 0.551100 0.330840 -0.476200
O4    O     O_R   0.954130 0.551100 0.669160 -0.477200
O5    O     O_R   0.681340 0.959300 0.325510 -0.483577
O6    O     O_R   0.318660 0.959300 0.674490 -0.475046
O7    O     O_R   0.181340 0.459300 0.325510 -0.481905
O8    O     O_R   0.818660 0.459300 0.674490 -0.473698
O9    O     O_3   0.667880 0.167870 0.250070 -0.318171
O10   O     O_3   0.332120 0.167870 0.749930 -0.281985
O11   O     O_3   0.167880 0.667870 0.250070 -0.301100
O12   O     O_R   0.212460 0.042690 0.829530 -0.536889
O13   O     O_3   0.832120 0.667870 0.749930 -0.282228
O14   O     O_R   0.765660 0.292160 0.175050 -0.523126
O15   O     O_R   0.234340 0.292160 0.824950 -0.530108
O16   O     O_R   0.265660 0.792160 0.175050 -0.525598
O17   O     O_R   0.734340 0.792160 0.824950 -0.529874
O18   O     O_R   0.670190 0.408980 0.168550 -0.491761
O19   O     O_R   0.329810 0.408980 0.831450 -0.498072
O20   O     O_R   0.170190 0.908980 0.168550 -0.494147
O21   O     O_R   0.829810 0.908980 0.831450 -0.497862
O22   O     O_R   0.556580 0.251450 0.175160 -0.509945
O23   O     O_R   0.287540 0.542690 0.170470 -0.493517
O24   O     O_R   0.443420 0.251450 0.824840 -0.485662
O25   O     O_R   0.056580 0.751450 0.175160 -0.510498
O26   O     O_R   0.943420 0.751450 0.824840 -0.485651
O27   O     O_R   0.545920 0.049510 0.170320 -0.480424
O28   O     O_R   0.454080 0.049510 0.829680 -0.496180
O29   O     O_R   0.045920 0.549510 0.170320 -0.481643
O30   O     O_R   0.954080 0.549510 0.829680 -0.496179
O31   O     O_R   0.681390 0.957840 0.176710 -0.481226
O32   O     O_R   0.318610 0.957840 0.823290 -0.485176
O33   O     O_R   0.181390 0.457840 0.176710 -0.482713
O34   O     O_R   0.712460 0.542690 0.829530 -0.536830
O35   O     O_R   0.818610 0.457840 0.823290 -0.484990
O36   O     O_R   0.787500 0.044280 0.330990 -0.502662
O37   O     O_R   0.212500 0.044280 0.669010 -0.504751
O38   O     O_R   0.287500 0.544280 0.330990 -0.504786
O39   O     O_R   0.712500 0.544280 0.669010 -0.505854
O40   O     O_R   0.765610 0.293630 0.323860 -0.445483
O41   O     O_R   0.234390 0.293630 0.676140 -0.480934
O42   O     O_R   0.265610 0.793630 0.323860 -0.461086
O43   O     O_R   0.734390 0.793630 0.676140 -0.481995
O44   O     O_R   0.670140 0.410570 0.329080 -0.503026
O45   O     O_R   0.556540 0.252920 0.323970 -0.498829
O46   O     O_R   0.329860 0.410570 0.670920 -0.487386
O47   O     O_R   0.170140 0.910570 0.329080 -0.521700
O48   O     O_R   0.829860 0.910570 0.670920 -0.489515
O49   O     O_R   0.443460 0.252920 0.676030 -0.463537
O50   O     O_R   0.056540 0.752920 0.323970 -0.482279
O51   O     O_R   0.943460 0.752920 0.676030 -0.463707
O52   O     O_R   0.545870 0.051100 0.330840 -0.473935

loop_
_geom_bond_atom_site_label_1
_geom_bond_atom_site_label_2
_ccdc_geom_bond_type
Cr6   O23   S    
C95   O42   A    
C83   C87   A    
C21   C26   A    
C99   O50   A    
C17   C69   A    
C5    N12   S    
C84   C101  S    
C29   C33   A    
Cr4   O13   S    
H31   N26   S    
C47   O17   A    
C58   C110  A    
H43   N8    S    
C66   H45   S    
Cr7   O43   S    
H25   N23   S    
C72   C76   A    
C26   H13   S    
C86   C104  S    
Cr8   O9    S    
C52   C99   S    
H29   N25   S    
Cr10  O20   S    
C18   H5    S    
H40   N7    S    
C49   C57   A    
Cr1   O14   S    
Cr5   O12   S    
C71   C75   A    
H53   N18   S    
C20   C42   A    
C14   N10   T    
C19   C41   A    
Cr1   O36   S    
C90   O23   A    
H49   N16   S    
C50   C59   A    
C64   C68   A    
Cr12  O9    S    
Cr3   O7    S    
C36   O16   A    
H57   N19   S    
H42   N8    S    
C38   C42   A    
C76   C81   A    
C52   C61   A    
C103  O6    A    
C79   C84   A    
Cr11  O21   S    
Cr10  O47   S    
C57   C59   A    
C94   O41   A    
C2    C102  A    
C98   O49   A    
C44   C50   A    
C65   C70   A    
C46   C52   A    
C49   C98   S    
Cr12  O27   S    
C104  O38   A    
C88   O1    A    
C3    C91   A    
C11   N4    T    
C64   C86   A    
C18   C40   A    
C24   C29   A    
C56   C108  S    
C56   O26   A    
Cr6   O38   S    
C16   C34   S    
Cr2   O28   S    
C47   O21   A    
C72   C95   S    
Cr5   O37   S    
C78   C83   A    
Cr7   O17   S    
C48   C51   A    
Cr2   O32   S    
C39   H17   S    
Cr6   O16   S    
Cr9   O19   S    
C87   C105  S    
C48   N17   S    
C70   C74   A    
C8    C79   S    
C12   N9    T    
C45   C49   A    
Cr4   O4    S    
C43   C92   S    
C1    O18   A    
C104  O7    A    
C74   C78   A    
C85   C103  S    
C97   O45   A    
H61   N21   S    
Cr8   O18   S    
C19   H6    S    
C95   O47   A    
H28   N24   S    
C68   H62   S    
C96   O48   A    
Cr1   O40   S    
C21   C43   A    
C63   C85   A    
C44   N14   S    
H59   N20   S    
C74   C93   S    
H38   N6    S    
C73   C94   S    
Cr2   O2    S    
H30   N25   S    
C1    O14   A    
Cr1   O1    S    
H22   N22   S    
H47   N15   S    
C77   N26   S    
C65   C87   A    
Cr10  O25   S    
C63   C67   A    
C5    C106  A    
C25   C29   S    
C76   N25   S    
C75   N24   S    
C4    C107  A    
C46   C48   A    
Cr5   O10   S    
H33   N27   S    
H35   N27   S    
H27   N24   S    
C30   C34   A    
C22   H9    S    
C27   C31   A    
C34   C39   A    
C20   C24   A    
H60   N21   S    
C28   C36   S    
H21   N12   S    
Cr7   O34   S    
Cr9   O49   S    
C62   C66   A    
C60   N20   S    
C39   C43   A    
C71   C96   S    
H39   N6    S    
C11   C83   S    
C68   C73   A    
C82   C86   A    
H18   N1    S    
C56   O30   A    
C57   N18   S    
C10   C82   S    
C102  H64   S    
Cr9   O10   S    
C110  C111  A    
C80   C102  A    
C60   C61   A    
C42   C90   S    
C54   O28   A    
H52   N17   S    
Cr4   O8    S    
H48   N15   S    
C19   C23   A    
C21   H8    S    
Cr3   O11   S    
H24   N22   S    
Cr9   O46   S    
Cr2   O10   S    
C93   O44   A    
Cr5   O41   S    
C53   C107  S    
C97   O52   A    
Cr1   O9    S    
C66   C71   A    
Cr11  O13   S    
H55   N19   S    
C28   C32   A    
C3    C112  A    
C45   N15   S    
C105  O39   A    
C80   C112  A    
H50   N16   S    
H19   N1    S    
H37   N5    S    
Cr10  O11   S    
C61   N21   S    
C32   C37   A    
Cr2   O6    S    
H41   N7    S    
C25   O19   A    
C70   H63   S    
Cr3   O33   S    
C2    H2    S    
C24   H11   S    
C27   C47   S    
C94   O46   A    
C99   O3    A    
Cr5   O15   S    
C22   C27   A    
C98   O2    A    
C12   C31   S    
C37   H15   S    
C103  O37   A    
C6    C109  A    
C31   C35   A    
C101  O36   A    
C23   C28   A    
H51   N17   S    
C20   H7    S    
C9    N2    T    
Cr9   O24   S    
C67   C72   A    
C44   C45   A    
Cr10  O50   S    
C106  C110  A    
C92   O35   A    
C59   N19   S    
C51   C100  S    
C13   C58   A    
C80   N7    S    
C62   C84   A    
C25   O15   A    
C50   C97   S    
C73   C77   A    
C55   O25   A    
C23   H10   S    
C41   C89   S    
C18   C22   A    
C107  C111  A    
C4    N1    S    
C53   O27   A    
Cr4   O30   S    
C65   H34   S    
C8    N28   T    
Cr7   O39   S    
C53   O22   A    
C62   H1    S    
C7    N23   S    
C17   H4    S    
C26   C30   A    
C6    C7    A    
C6    N22   S    
C100  O51   A    
C92   O34   A    
Cr6   O11   S    
C36   O20   A    
C105  O8    A    
Cr3   O29   S    
C58   N5    S    
C10   N3    T    
C89   O32   A    
C13   C17   A    
C90   O33   A    
C67   H56   S    
H26   N23   S    
C40   C88   S    
Cr12  O31   S    
C35   C40   A    
C54   O24   A    
C35   H14   S    
Cr11  O51   S    
Cr8   O44   S    
C63   H12   S    
C88   O31   A    
H32   N26   S    
C91   N8    S    
C69   C111  A    
Cr11  O48   S    
C77   C82   A    
C3    C109  A    
C96   O43   A    
C54   C106  S    
H54   N18   S    
C46   N16   S    
C1    C30   S    
H20   N12   S    
H44   N14   S    
C15   N11   T    
H58   N20   S    
C101  O5    A    
C37   C41   A    
C2    C91   A    
C81   C85   A    
H46   N14   S    
Cr4   O35   S    
Cr7   O13   S    
C13   H3    S    
C108  C112  A    
C4    C5    A    
C14   C32   S    
Cr12  O5    S    
C100  O4    A    
Cr8   O45   S    
C55   O29   A    
C78   N27   S    
Cr8   O22   S    
Cr12  O52   S    
C38   H16   S    
C7    C108  A    
C33   C38   A    
C51   C60   A    
C89   O12   A    
C93   O40   A    
C75   C79   A    
C64   H23   S    
C15   C33   S    
Cr11  O26   S    
C55   C109  S    
C16   N13   T    
C9    C81   S    
H36   N5    S    
Cr3   O3    S    
C69   N6    S    
Cr6   O42   S    
