data_mof_unit_4035.cif
_audit_creation_date              2012-12-10T17:18:15-0500
_audit_creation_method            fapswitch 2.2
_symmetry_space_group_name_H-M    P1
_symmetry_Int_Tables_number       1
_space_group_crystal_system       triclinic
_cell_length_a                    10.10841
_cell_length_b                    10.730429
_cell_length_c                    14.957784
_cell_angle_alpha                 90.016632
_cell_angle_beta                  81.465868
_cell_angle_gamma                 95.547392
_cell_volume                      1596.79315183

loop_
_atom_site_label
_atom_site_type_symbol
_atom_type_description
_atom_site_fract_x
_atom_site_fract_y
_atom_site_fract_z
_atom_type_partial_charge
C1    C     C_R   0.556231 0.733181 0.491255 0.960246
C2    C     C_2   0.072938 0.490210 0.492327 -0.135398
C3    C     C_R   0.500827 0.500649 0.672989 1.031457
C4    C     C_R   0.499364 0.500171 0.327189 1.018573
C5    C     C_R   0.507917 0.387493 0.185867 0.357583
C6    C     C_R   0.456584 0.603912 0.818281 0.322444
C7    C     C_R   0.497957 0.500407 0.232014 -0.285905
C8    C     C_R   0.502432 0.501674 0.768491 -0.289909
C9    C     C_R   0.488102 0.613622 0.188205 0.359467
C10   C     C_R   0.548558 0.399857 0.809249 0.322097
C11   C     C_R   0.475624 0.611295 0.096383 0.009490
C12   C     C_R   0.443659 0.266824 0.503343 0.963400
C13   C     C_R   0.538575 0.395580 0.903280 0.017130
C14   C     C_R   0.499785 0.501110 0.047207 -0.015998
C15   C     C_R   0.501109 0.501492 0.953600 -0.008865
C16   C     C_R   0.522398 0.390464 0.091534 0.009989
C17   C     C_R   0.465027 0.607803 0.910573 0.018465
C18   C     C_R   0.441125 0.716402 0.052788 -0.207835
C19   C     C_R   0.565627 0.288013 0.947794 -0.197812
C20   C     C_3   0.390423 0.197908 0.233641 0.055496
C21   C     C_3   0.269581 0.247233 0.292857 -0.369165
C22   C     C_3   0.146888 0.150738 0.303454 -0.958893
C23   C     C_R   0.436903 0.715043 0.960689 -0.198191
C24   C     C_3   0.275458 0.699037 0.786899 0.101841
C25   C     C_3   0.233475 0.802267 0.729768 -0.311402
C26   C     C_3   0.081124 0.805377 0.744080 -1.006442
C27   C     C_3   0.602426 0.804808 0.213684 0.043799
C28   C     C_3   0.725504 0.755915 0.245887 -0.355431
C29   C     C_3   0.845739 0.855196 0.233844 -0.946174
C30   C     C_3   0.732500 0.309239 0.741630 0.104866
C31   C     C_3   0.778081 0.213326 0.670902 -0.306418
C32   C     C_3   0.930620 0.211822 0.656301 -0.982793
C33   C     C_R   0.557773 0.285552 0.041017 -0.208378
C34   C     C_2   0.587904 0.865800 0.474925 -0.366025
C35   C     C_2   0.411457 0.134171 0.493939 -0.364673
C36   C     C_2   0.487974 0.933214 0.462417 -0.148182
C37   C     C_2   0.510499 0.066627 0.459872 -0.149562
C38   C     C_2   0.927282 0.510470 0.507144 -0.141678
H1    H     H_    0.416581 0.799980 0.089719 0.167363
H2    H     H_    0.880134 0.384712 0.416959 0.167743
H3    H     H_    0.406706 0.105284 0.261051 0.178762
H4    H     H_    0.366155 0.180976 0.164301 0.137498
H5    H     H_    0.295630 0.269746 0.360575 0.243085
H6    H     H_    0.243265 0.334008 0.262049 0.213130
H7    H     H_    0.117605 0.126952 0.236338 0.270374
H8    H     H_    0.061285 0.189780 0.345858 0.256422
H9    H     H_    0.168855 0.064280 0.336968 0.268397
H10   H     H_    0.234756 0.713368 0.859002 0.130876
H11   H     H_    0.229916 0.606934 0.765989 0.153895
H12   H     H_    0.591028 0.204541 0.911071 0.176059
H13   H     H_    0.281134 0.894500 0.748328 0.231606
H14   H     H_    0.269027 0.786342 0.657124 0.237881
H15   H     H_    0.030710 0.713811 0.726862 0.254126
H16   H     H_    0.054070 0.879177 0.699949 0.272035
H17   H     H_    0.044450 0.826963 0.815589 0.272110
H18   H     H_    0.584995 0.895832 0.246615 0.181087
H19   H     H_    0.625053 0.824980 0.139871 0.137322
H20   H     H_    0.701191 0.728972 0.318132 0.249459
H21   H     H_    0.753617 0.671914 0.206808 0.214038
H22   H     H_    0.873112 0.883537 0.161536 0.262393
H23   H     H_    0.412847 0.798979 0.928983 0.175524
H24   H     H_    0.933247 0.816577 0.256796 0.271728
H25   H     H_    0.821982 0.938791 0.274767 0.265370
H26   H     H_    0.772501 0.289470 0.804978 0.130341
H27   H     H_    0.776154 0.404301 0.716117 0.146572
H28   H     H_    0.730718 0.118474 0.693328 0.228292
H29   H     H_    0.745027 0.236440 0.605778 0.246100
H30   H     H_    0.980573 0.306226 0.635642 0.275228
H31   H     H_    0.960627 0.144755 0.602226 0.264400
H32   H     H_    0.964974 0.182069 0.719458 0.267047
H33   H     H_    0.309645 0.091668 0.515661 0.149731
H34   H     H_    0.580393 0.201402 0.073266 0.167777
H35   H     H_    0.690109 0.908379 0.474437 0.149053
H36   H     H_    0.612615 0.108641 0.438185 0.190728
H37   H     H_    0.385456 0.891146 0.463000 0.193482
H38   H     H_    0.109202 0.422344 0.443110 0.168685
H39   H     H_    0.891042 0.578394 0.556326 0.163497
H40   H     H_    0.119674 0.614813 0.583256 0.163326
N1    N     N_2   0.842700 0.448880 0.462930 -0.199224
N2    N     N_2   0.157300 0.551120 0.537070 -0.203486
O1    O     O_R   0.431060 0.692470 0.507460 -0.607520
O2    O     O_3   0.417554 0.704883 0.774134 -0.640379
O3    O     O_3   0.483132 0.723055 0.237917 -0.642298
O4    O     O_3   0.590249 0.299852 0.757185 -0.638871
O5    O     O_R   0.568940 0.307530 0.492540 -0.611727
O6    O     O_R   0.651120 0.659650 0.483670 -0.632062
O7    O     O_R   0.348880 0.340350 0.516330 -0.630877
O8    O     O_R   0.389960 0.516440 0.644050 -0.617940
O9    O     O_R   0.610040 0.483560 0.355950 -0.614395
O10   O     O_R   0.610030 0.483620 0.620260 -0.620365
O11   O     O_R   0.389970 0.516380 0.379740 -0.615819
O12   O     O_3   0.511137 0.277489 0.234251 -0.645779
Zn1   Zn    Zn3+2 0.353060 0.521920 0.515880 0.943738
Zn2   Zn    Zn3+2 0.646940 0.478080 0.484120 0.943248

loop_
_geom_bond_atom_site_label_1
_geom_bond_atom_site_label_2
_ccdc_geom_bond_type
C31   H28   S    
C37   H36   S    
C29   H25   S    
C11   C18   A    
C6    O2    S    
C30   H26   S    
C26   H17   S    
C20   H3    S    
C31   H29   S    
C20   O12   S    
C17   C23   A    
C12   O5    A    
C3    O10   A    
C36   C37   S    
C35   C37   D    
C30   C31   S    
C11   C14   A    
H40   N2    S    
C38   N1    D    
C1    O1    A    
C1    O6    A    
C15   C17   A    
O9    Zn2   S    
C24   O2    S    
C5    O12   S    
C5    C16   A    
O6    Zn2   S    
C33   H34   S    
C29   H24   S    
C32   H30   S    
C4    O11   A    
C22   H9    S    
C35   H33   S    
C21   H5    S    
C21   C22   S    
C4    C7    S    
C26   H16   S    
C1    C34   S    
O10   Zn2   S    
C13   C19   A    
C18   C23   A    
C24   H10   S    
C24   C25   S    
N1    Zn2   S    
C3    C8    S    
C19   C33   A    
C5    C7    A    
C32   H32   S    
C27   H18   S    
C6    C8    A    
C25   C26   S    
C18   H1    S    
C25   H13   S    
C36   H37   S    
C16   C33   A    
O11   Zn1   S    
C21   H6    S    
O1    Zn1   S    
O5    Zn2   S    
C2    C38   S    
C31   C32   S    
C29   H22   S    
H2    N1    S    
C12   C35   S    
C9    C11   A    
C9    O3    S    
C22   H8    S    
C13   C15   A    
C27   H19   S    
C14   C16   A    
C26   H15   S    
C2    H38   S    
C4    O9    A    
C28   H21   S    
C24   H11   S    
C7    C9    A    
C6    C17   A    
O8    Zn1   S    
C28   C29   S    
C12   O7    A    
C3    O8    A    
C10   C13   A    
C20   H4    S    
C32   H31   S    
C38   H39   S    
C28   H20   S    
C27   O3    S    
C25   H14   S    
C19   H12   S    
O7    Zn1   S    
C10   O4    S    
C34   C36   D    
C30   O4    S    
C30   H27   S    
C2    N2    D    
C34   H35   S    
C23   H23   S    
C22   H7    S    
C20   C21   S    
C8    C10   A    
C27   C28   S    
C14   C15   A    
N2    Zn1   S    
