data_mof_unit_3824.cif
_audit_creation_date              2012-10-26T21:05:39-0400
_audit_creation_method            fapswitch 2.2
_symmetry_space_group_name_H-M    P1
_symmetry_Int_Tables_number       1
_space_group_crystal_system       triclinic
_cell_length_a                    13.038009
_cell_length_b                    9.097786
_cell_length_c                    7.781477
_cell_angle_alpha                 90.004557
_cell_angle_beta                  97.190934
_cell_angle_gamma                 90.011217
_cell_volume                      915.755597208

loop_
_atom_site_label
_atom_site_type_symbol
_atom_type_description
_atom_site_fract_x
_atom_site_fract_y
_atom_site_fract_z
_atom_type_partial_charge
C1    C     C_R   0.500011 0.220010 0.499999 0.545393
C2    C     C_R   0.874272 0.464887 0.719281 0.007549
C3    C     C_R   0.136221 0.469289 0.586561 -0.140385
C4    C     C_R   0.863779 0.530711 0.413439 -0.140385
C5    C     C_R   0.029461 0.479365 0.578085 0.028857
C6    C     C_R   0.970539 0.520635 0.421915 0.028857
C7    C     C_1   0.500004 0.065362 0.499996 -0.037512
C8    C     C_1   0.499996 0.934638 0.500004 -0.037512
C9    C     C_2   0.831441 0.439653 0.884005 0.220306
C10   C     C_2   0.168559 0.560347 0.115995 0.220306
C11   C     C_R   0.499989 0.779990 0.500001 0.545393
C12   C     C_R   0.299546 0.499079 0.465541 0.542537
C13   C     C_R   0.700453 0.500921 0.534458 0.542538
C14   C     C_R   0.814069 0.500965 0.559216 0.005997
C15   C     C_R   0.185931 0.499035 0.440784 0.005997
C16   C     C_R   0.018777 0.548974 0.275052 -0.152616
C17   C     C_R   0.981223 0.451026 0.724948 -0.152616
C18   C     C_R   0.125728 0.535113 0.280719 0.007549
Cu1   Cu    Cu3+1 0.500010 0.500000 0.669080 1.085096
Cu2   Cu    Cu3+1 0.499990 0.500000 0.330920 1.085096
H1    H     H_    0.819129 0.561008 0.291685 0.177300
H2    H     H_    0.180871 0.438992 0.708315 0.177300
H3    H     H_    0.972788 0.579562 0.154495 0.125629
H4    H     H_    0.027212 0.420438 0.845505 0.125629
H5    H     H_    0.854284 0.342636 0.960521 0.099237
H6    H     H_    0.145716 0.657364 0.039479 0.099237
N1    N     N_1   0.499980 0.500000 0.076820 -0.047737
N2    N     N_1   0.500020 0.500000 0.923180 -0.047737
O1    O     O_R   0.500000 0.288400 0.642760 -0.502658
O2    O     O_2   0.221987 0.467534 0.056968 -0.495953
O3    O     O_R   0.500000 0.711600 0.357240 -0.502658
O4    O     O_R   0.500000 0.288400 0.357240 -0.495367
O5    O     O_R   0.500000 0.711600 0.642760 -0.495367
O6    O     O_R   0.349000 0.500000 0.619590 -0.512959
O7    O     O_R   0.651000 0.500000 0.380410 -0.512959
O8    O     O_R   0.348990 0.500000 0.334020 -0.452715
O9    O     O_R   0.651010 0.500000 0.665980 -0.452714
O10   O     O_2   0.778013 0.532466 0.943032 -0.495953

loop_
_geom_bond_atom_site_label_1
_geom_bond_atom_site_label_2
_ccdc_geom_bond_type
C15   C18   A    
C4    H1    S    
Cu2   N1    S    
C12   O8    A    
C6    C16   A    
C10   O2    D    
C13   O9    A    
Cu1   Cu2   S    
C12   C15   S    
C10   H6    S    
C1    O1    A    
C9    H5    S    
C7    C8    T    
C13   C14   S    
C2    C17   A    
Cu1   N2    S    
C2    C9    S    
C10   C18   S    
C8    C11   S    
C4    C6    A    
C9    O10   D    
C13   O7    A    
C16   H3    S    
C4    C14   A    
C5    C6    A    
C2    C14   A    
C17   H4    S    
C5    C17   A    
C11   O3    A    
Cu2   O8    S    
C11   O5    A    
C3    C15   A    
C16   C18   A    
Cu2   O4    S    
N1    N2    T    
C3    H2    S    
Cu1   O9    S    
C1    C7    S    
Cu2   O7    S    
C12   O6    A    
Cu1   O6    S    
C1    O4    A    
Cu1   O5    S    
C3    C5    A    
Cu2   O3    S    
Cu1   O1    S    
