data_mof_unit_4170.cif
_audit_creation_date              2012-12-11T15:44:47-0500
_audit_creation_method            fapswitch 2.2
_symmetry_space_group_name_H-M    P1
_symmetry_Int_Tables_number       1
_space_group_crystal_system       triclinic
_cell_length_a                    19.144404
_cell_length_b                    10.993564
_cell_length_c                    18.743808
_cell_angle_alpha                 89.901056
_cell_angle_beta                  90.050324
_cell_angle_gamma                 90.283287
_cell_volume                      3944.86428028

loop_
_atom_site_label
_atom_site_type_symbol
_atom_type_description
_atom_site_fract_x
_atom_site_fract_y
_atom_site_fract_z
_atom_type_partial_charge
C1    C     C_R   0.761201 0.531664 0.646260 0.532025
C2    C     C_R   0.239881 0.536655 0.352721 0.532705
C3    C     C_R   0.261199 0.031671 0.646263 0.531996
C4    C     C_R   0.739881 0.036655 0.352720 0.532716
C5    C     C_R   0.836549 0.132414 0.516604 -0.179127
C6    C     C_R   0.250613 0.019119 0.449580 -0.120783
C7    C     C_R   0.336562 0.632482 0.516593 -0.179164
C8    C     C_R   0.750597 0.519107 0.449580 -0.120813
C9    C     C_R   0.825478 0.110428 0.443501 -0.163892
C10   C     C_R   0.264329 0.987439 0.519826 -0.125373
C11   C     C_R   0.325484 0.610462 0.443492 -0.163905
C12   C     C_R   0.764312 0.487423 0.519825 -0.125399
C13   C     C_3   0.628763 0.142505 0.466498 -0.215175
C14   C     C_3   0.253854 0.299152 0.584838 -0.221235
C15   C     C_3   0.128765 0.642420 0.466521 -0.215458
C16   C     C_3   0.753962 0.799134 0.584827 -0.221296
C17   C     C_3   0.640320 0.164915 0.546312 -0.031115
C18   C     C_3   0.255348 0.334012 0.506990 -0.037831
C19   C     C_3   0.140340 0.664710 0.546349 -0.031054
C20   C     C_3   0.755436 0.834005 0.506979 -0.037782
C21   C     C_R   0.779879 0.157280 0.561767 -0.000816
C22   C     C_R   0.227429 0.136600 0.434007 0.054793
C23   C     C_R   0.279891 0.657295 0.561765 -0.000861
C24   C     C_R   0.727441 0.636602 0.434006 0.054853
C25   C     C_R   0.990221 0.325934 0.420623 -0.039688
C26   C     C_R   0.993960 0.348424 0.570294 -0.020869
C27   C     C_R   0.490226 0.825931 0.420624 -0.039668
C28   C     C_R   0.493954 0.848444 0.570292 -0.020703
C29   C     C_R   0.015957 0.105489 0.434697 -0.086556
C30   C     C_R   0.040613 0.140570 0.579499 -0.091785
C31   C     C_R   0.515992 0.605497 0.434713 -0.086570
C32   C     C_R   0.540648 0.640624 0.579510 -0.091778
C33   C     C_R   0.039430 0.009362 0.476810 -0.131830
C34   C     C_R   0.053631 0.027843 0.548660 -0.122604
C35   C     C_R   0.539479 0.509391 0.476833 -0.131816
C36   C     C_R   0.553680 0.527896 0.548681 -0.122595
C37   C     C_R   0.013626 0.237637 0.538421 -0.016679
C38   C     C_R   0.006719 0.223178 0.463771 -0.001240
C39   C     C_R   0.513645 0.737667 0.538426 -0.016636
C40   C     C_R   0.506740 0.723190 0.463777 -0.001263
C41   C     C_R   0.976539 0.450537 0.525600 0.025259
C42   C     C_R   0.964433 0.431152 0.452557 -0.007242
C43   C     C_R   0.476511 0.950543 0.525593 0.025418
C44   C     C_R   0.464420 0.931142 0.452549 -0.007257
C45   C     C_R   0.790826 0.170455 0.638730 0.552147
C46   C     C_R   0.209743 0.168740 0.361643 0.553649
C47   C     C_R   0.290834 0.670468 0.638731 0.551969
C48   C     C_R   0.709745 0.668739 0.361644 0.553677
C49   C     C_R   0.973426 0.573313 0.549716 -0.050282
C50   C     C_R   0.934831 0.524069 0.410332 -0.080235
C51   C     C_R   0.473354 0.073321 0.549704 -0.050166
C52   C     C_R   0.434801 0.024030 0.410315 -0.080311
C53   C     C_R   0.952972 0.667388 0.504651 -0.119398
C54   C     C_R   0.931725 0.642144 0.435482 -0.086492
C55   C     C_R   0.452877 0.167373 0.504634 -0.119349
C56   C     C_R   0.431649 0.142103 0.435463 -0.086574
C57   C     C_R   0.754737 0.076911 0.077058 0.016197
C58   C     C_R   0.258949 0.048131 0.931574 0.017213
C59   C     C_R   0.254737 0.576912 0.077058 0.016197
C60   C     C_R   0.758949 0.548131 0.931574 0.017212
C61   C     C_R   0.795068 0.002316 0.033460 0.008919
C62   C     C_R   0.203338 0.997719 0.968577 0.015008
C63   C     C_R   0.295068 0.502316 0.033460 0.008919
C64   C     C_R   0.703338 0.497719 0.968577 0.015010
C65   C     C_R   0.795470 0.014681 0.961296 0.005307
C66   C     C_R   0.198789 0.002731 0.041304 0.019434
C67   C     C_R   0.295471 0.514681 0.961296 0.005307
C68   C     C_R   0.698789 0.502730 0.041304 0.019433
C69   C     C_R   0.726496 0.194236 0.971917 -0.176247
C70   C     C_R   0.311772 0.096314 0.046994 -0.176574
C71   C     C_R   0.226497 0.694236 0.971917 -0.176253
C72   C     C_R   0.811772 0.596314 0.046994 -0.176574
C73   C     C_R   0.724411 0.180107 0.046576 -0.179195
C74   C     C_R   0.316821 0.087983 0.972051 -0.162931
C75   C     C_R   0.224411 0.680107 0.046576 -0.179194
C76   C     C_R   0.816821 0.587982 0.972051 -0.162933
C77   C     C_3   0.798096 0.867804 0.027554 -0.240482
C78   C     C_3   0.127153 0.008709 0.956638 -0.285717
C79   C     C_3   0.298096 0.367804 0.027554 -0.240482
C80   C     C_3   0.627153 0.508709 0.956638 -0.285718
C81   C     C_3   0.798006 0.882369 0.947136 -0.278048
C82   C     C_3   0.121007 0.013719 0.037021 -0.274578
C83   C     C_3   0.298005 0.382369 0.947136 -0.278048
C84   C     C_3   0.621007 0.513719 0.037021 -0.274577
C85   C     C_R   0.758756 0.105868 0.928396 -0.000261
C86   C     C_R   0.248822 0.066773 0.080933 0.016857
C87   C     C_R   0.258756 0.605868 0.928396 -0.000265
C88   C     C_R   0.748822 0.566773 0.080933 0.016858
C89   C     C_R   0.969820 0.348248 0.645480 0.528593
C90   C     C_R   0.026905 0.343445 0.351777 0.532201
C91   C     C_R   0.469816 0.848252 0.645478 0.528502
C92   C     C_R   0.526907 0.843445 0.351778 0.532232
C93   C     C_R   0.038735 0.343886 0.065176 0.031990
C94   C     C_R   0.007080 0.331749 0.919784 0.018996
C95   C     C_R   0.538735 0.843886 0.065176 0.031990
C96   C     C_R   0.507080 0.831749 0.919784 0.018994
C97   C     C_R   0.063378 0.433318 0.018301 -0.041041
C98   C     C_R   0.045083 0.428852 0.947175 -0.019992
C99   C     C_R   0.563378 0.933318 0.018301 -0.041038
C100  C     C_R   0.545083 0.928852 0.947175 -0.019997
C101  C     C_R   0.990999 0.232092 0.964769 0.050875
C102  C     C_R   0.000496 0.243760 0.038597 0.055403
C103  C     C_R   0.490999 0.732092 0.964769 0.050878
C104  C     C_R   0.500496 0.743760 0.038597 0.055404
C105  C     C_3   0.052319 0.569291 0.019987 -0.028519
C106  C     C_3   0.030782 0.562119 0.942111 -0.022079
C107  C     C_3   0.552319 0.069291 0.019987 -0.028510
C108  C     C_3   0.530782 0.062119 0.942111 -0.022076
C109  C     C_R   0.762832 0.524763 0.855170 0.542782
C110  C     C_R   0.240291 0.533077 0.148487 0.538078
C111  C     C_R   0.262832 0.024763 0.855170 0.542773
C112  C     C_R   0.740291 0.033077 0.148487 0.538075
C113  C     C_R   0.773443 0.129939 0.854169 0.550487
C114  C     C_R   0.228156 0.122554 0.148318 0.535851
C115  C     C_R   0.273443 0.629939 0.854169 0.550491
C116  C     C_R   0.728157 0.622554 0.148318 0.535847
C117  C     C_R   0.970576 0.345885 0.852851 0.576810
C118  C     C_R   0.059221 0.351125 0.138953 0.585397
C119  C     C_R   0.470576 0.845885 0.852851 0.576798
C120  C     C_R   0.559221 0.851125 0.138953 0.585395
C121  C     C_R   0.757149 0.111364 0.415217 0.004897
C122  C     C_R   0.251390 0.070467 0.574766 0.048079
C123  C     C_R   0.257148 0.611368 0.415217 0.004955
C124  C     C_R   0.751396 0.570459 0.574764 0.048053
C125  C     C_R   0.705247 0.164934 0.456933 -0.022811
C126  C     C_R   0.222825 0.183058 0.560389 -0.012308
C127  C     C_R   0.205242 0.664917 0.456939 -0.022723
C128  C     C_R   0.722879 0.683081 0.560386 -0.012350
C129  C     C_R   0.715966 0.183953 0.528806 0.022113
C130  C     C_R   0.215669 0.219226 0.489592 0.018564
C131  C     C_R   0.215965 0.683888 0.528816 0.022144
C132  C     C_R   0.715723 0.719249 0.489588 0.018669
Cr1   Cr    Cr6+3 0.885860 0.491680 0.749630 1.014223
Cr2   Cr    Cr6+3 0.114140 0.491680 0.250370 1.019796
Cr3   Cr    Cr6+3 0.385860 0.991680 0.749630 1.014138
Cr4   Cr    Cr6+3 0.614140 0.991680 0.250370 1.019801
Cr5   Cr    Cr6+3 0.730490 0.332970 0.748720 1.009550
Cr6   Cr    Cr6+3 0.269510 0.332970 0.251280 0.993788
Cr7   Cr    Cr6+3 0.230490 0.832970 0.748720 1.009734
Cr8   Cr    Cr6+3 0.769510 0.832970 0.251280 0.993820
Cr9   Cr    Cr6+3 0.887570 0.179310 0.750150 1.023418
Cr10  Cr    Cr6+3 0.112430 0.179310 0.249850 1.010006
Cr11  Cr    Cr6+3 0.387570 0.679310 0.750150 1.023413
Cr12  Cr    Cr6+3 0.612430 0.679310 0.249850 1.009999
H1    H     H_    0.888062 0.119520 0.538774 0.149909
H2    H     H_    0.259741 0.953661 0.407490 0.132146
H3    H     H_    0.388081 0.619624 0.538757 0.149890
H4    H     H_    0.759703 0.453639 0.407492 0.132154
H5    H     H_    0.954799 0.760310 0.523477 0.114218
H6    H     H_    0.916291 0.714412 0.399776 0.129624
H7    H     H_    0.454664 0.260297 0.523459 0.114364
H8    H     H_    0.416190 0.214352 0.399754 0.129611
H9    H     H_    0.700783 0.270522 0.947744 0.149672
H10   H     H_    0.352944 0.139003 0.077305 0.124954
H11   H     H_    0.200783 0.770522 0.947744 0.149667
H12   H     H_    0.852944 0.639003 0.077305 0.124954
H13   H     H_    0.695132 0.243322 0.078986 0.130898
H14   H     H_    0.363519 0.119753 0.945848 0.118300
H15   H     H_    0.195132 0.743322 0.078986 0.130899
H16   H     H_    0.863519 0.619753 0.945848 0.118299
H17   H     H_    0.749920 0.823429 0.048262 0.151459
H18   H     H_    0.103833 0.925290 0.933150 0.134603
H19   H     H_    0.249920 0.323429 0.048262 0.151459
H20   H     H_    0.603833 0.425290 0.933150 0.134600
H21   H     H_    0.848678 0.835082 0.048966 0.138693
H22   H     H_    0.113392 0.095391 0.929568 0.153327
H23   H     H_    0.348678 0.335082 0.048966 0.138694
H24   H     H_    0.613393 0.595390 0.929568 0.153325
H25   H     H_    0.847953 0.854877 0.921795 0.145698
H26   H     H_    0.103607 0.103134 0.056404 0.177273
H27   H     H_    0.347953 0.354877 0.921795 0.145696
H28   H     H_    0.603607 0.603134 0.056404 0.177273
H29   H     H_    0.749648 0.847342 0.921228 0.135062
H30   H     H_    0.093636 0.933526 0.060288 0.133616
H31   H     H_    0.249648 0.347342 0.921228 0.135065
H32   H     H_    0.593636 0.433526 0.060288 0.133617
H33   H     H_    0.100074 0.621749 0.030157 0.168233
H34   H     H_    0.975500 0.585292 0.932376 0.169806
H35   H     H_    0.600074 0.121749 0.030157 0.168235
H36   H     H_    0.475500 0.085292 0.932376 0.169810
H37   H     H_    0.868653 0.077659 0.411807 0.134335
H38   H     H_    0.286157 0.899315 0.531476 0.114319
H39   H     H_    0.368661 0.577704 0.411792 0.134339
H40   H     H_    0.786125 0.399290 0.531476 0.114330
H41   H     H_    0.113039 0.547998 0.452397 0.168121
H42   H     H_    0.806317 0.788107 0.609912 0.168761
H43   H     H_    0.613029 0.048050 0.452449 0.168310
H44   H     H_    0.306203 0.288200 0.609948 0.168789
H45   H     H_    0.596977 0.214343 0.440587 0.119060
H46   H     H_    0.216636 0.351697 0.617742 0.109647
H47   H     H_    0.096962 0.714291 0.440662 0.119093
H48   H     H_    0.716788 0.851717 0.617762 0.109695
H49   H     H_    0.614533 0.248122 0.566699 0.148279
H50   H     H_    0.227144 0.417970 0.493225 0.134899
H51   H     H_    0.114534 0.747854 0.566797 0.148474
H52   H     H_    0.727242 0.917977 0.493226 0.134828
H53   H     H_    0.046875 0.920449 0.453472 0.103624
H54   H     H_    0.073625 0.954234 0.580985 0.116933
H55   H     H_    0.546934 0.420474 0.453503 0.103632
H56   H     H_    0.573685 0.454307 0.581013 0.116944
H57   H     H_    0.002596 0.085055 0.379978 0.137463
H58   H     H_    0.052930 0.151677 0.635464 0.132529
H59   H     H_    0.502631 0.585044 0.379997 0.137474
H60   H     H_    0.552964 0.651748 0.635475 0.132512
H61   H     H_    0.919492 0.507132 0.355552 0.132836
H62   H     H_    0.992771 0.602473 0.600897 0.177931
H63   H     H_    0.419474 0.007074 0.355533 0.132837
H64   H     H_    0.492675 0.102513 0.600888 0.177860
O1    O     O_R   0.957020 0.451640 0.669920 -0.523241
O2    O     O_R   0.042980 0.451640 0.330080 -0.518019
O3    O     O_R   0.457020 0.951640 0.669920 -0.523345
O4    O     O_R   0.542980 0.951640 0.330080 -0.518002
O5    O     O_R   0.736470 0.210100 0.823360 -0.505386
O6    O     O_R   0.263530 0.210100 0.176640 -0.505364
O7    O     O_R   0.236470 0.710100 0.823360 -0.505340
O8    O     O_R   0.763530 0.710100 0.176640 -0.505370
O9    O     O_R   0.831960 0.093290 0.830130 -0.493004
O10   O     O_R   0.168040 0.093290 0.169870 -0.523737
O11   O     O_R   0.331960 0.593290 0.830130 -0.493015
O12   O     O_R   0.668040 0.593290 0.169870 -0.523738
O13   O     O_R   0.945600 0.250580 0.824860 -0.462528
O14   O     O_R   0.054400 0.250580 0.175140 -0.471473
O15   O     O_R   0.445600 0.750580 0.824860 -0.462523
O16   O     O_R   0.554400 0.750580 0.175140 -0.471473
O17   O     O_3   0.834640 0.334650 0.749500 -0.276092
O18   O     O_3   0.165360 0.334650 0.250500 -0.290790
O19   O     O_3   0.334640 0.834650 0.749500 -0.276098
O20   O     O_3   0.665360 0.834650 0.250500 -0.290795
O21   O     O_R   0.821450 0.543440 0.674610 -0.505095
O22   O     O_R   0.178550 0.543440 0.325390 -0.499877
O23   O     O_R   0.321450 0.043440 0.674610 -0.505108
O24   O     O_R   0.678550 0.043440 0.325390 -0.499876
O25   O     O_R   0.715320 0.458650 0.668100 -0.531356
O26   O     O_R   0.284680 0.458650 0.331900 -0.547017
O27   O     O_R   0.215320 0.958650 0.668100 -0.531324
O28   O     O_R   0.784680 0.958650 0.331900 -0.547015
O29   O     O_R   0.737170 0.209590 0.674530 -0.507445
O30   O     O_R   0.262830 0.209590 0.325470 -0.504784
O31   O     O_R   0.237170 0.709590 0.674530 -0.507298
O32   O     O_R   0.762830 0.709590 0.325470 -0.504693
O33   O     O_R   0.832710 0.092740 0.669580 -0.519095
O34   O     O_R   0.167290 0.092740 0.330420 -0.518008
O35   O     O_R   0.332710 0.592740 0.669580 -0.519115
O36   O     O_R   0.667290 0.592740 0.330420 -0.518044
O37   O     O_R   0.946290 0.250060 0.676040 -0.523173
O38   O     O_R   0.053710 0.250060 0.323960 -0.518409
O39   O     O_R   0.446290 0.750060 0.676040 -0.523159
O40   O     O_R   0.553710 0.750060 0.323960 -0.518419
O41   O     O_R   0.956270 0.452200 0.830470 -0.512874
O42   O     O_R   0.043730 0.452200 0.169530 -0.473510
O43   O     O_R   0.456270 0.952200 0.830470 -0.512898
O44   O     O_R   0.543730 0.952200 0.169530 -0.473513
O45   O     O_R   0.820760 0.543950 0.823440 -0.509151
O46   O     O_R   0.179240 0.543950 0.176560 -0.511663
O47   O     O_R   0.320760 0.043950 0.823440 -0.509152
O48   O     O_R   0.679240 0.043950 0.176560 -0.511666
O49   O     O_R   0.714570 0.459210 0.828640 -0.517304
O50   O     O_R   0.285430 0.459210 0.171360 -0.513383
O51   O     O_R   0.214570 0.959210 0.828640 -0.517305
O52   O     O_R   0.785430 0.959210 0.171360 -0.513387
N1    N     N_3   0.957733 0.125447 0.936889 -0.585333
H65   H     H_    0.908423 0.121233 0.959420 0.247321
H66   H     H_    0.985556 0.048489 0.952531 0.215060
N2    N     N_3   0.966414 0.160399 0.086722 -0.593575
H67   H     H_    0.980778 0.071213 0.074869 0.220333
H68   H     H_    0.912409 0.168422 0.080224 0.237271
N3    N     N_3   0.457733 0.625447 0.936889 -0.585334
H69   H     H_    0.408423 0.621233 0.959420 0.247320
H70   H     H_    0.485556 0.548489 0.952531 0.215059
N4    N     N_3   0.466414 0.660399 0.086722 -0.593574
H71   H     H_    0.480778 0.571213 0.074870 0.220333
H72   H     H_    0.412409 0.668421 0.080223 0.237271
N5    N     N_3   0.995099 0.606236 0.066641 -0.607455
H73   H     H_    0.952995 0.546722 0.059483 0.241956
H74   H     H_    0.979139 0.693271 0.051244 0.204564
N6    N     N_3   0.077660 0.623921 0.892263 -0.615006
H75   H     H_    0.126700 0.583214 0.893021 0.247424
H76   H     H_    0.083000 0.714426 0.908242 0.216724
N7    N     N_3   0.495099 0.106236 0.066641 -0.607456
H77   H     H_    0.452995 0.046722 0.059482 0.241956
H78   H     H_    0.479139 0.193271 0.051244 0.204564
N8    N     N_3   0.577660 0.123921 0.892262 -0.615086
H79   H     H_    0.626700 0.083214 0.893021 0.247414
H80   H     H_    0.583000 0.214426 0.908242 0.216730
N9    N     N_3   0.625337 0.056913 0.589773 -0.654220
H81   H     H_    0.650611 0.062798 0.638918 0.270744
H82   H     H_    0.641566 0.977887 0.564298 0.224870
N10   N     N_3   0.326826 0.329220 0.480696 -0.640143
H83   H     H_    0.356543 0.396048 0.506139 0.233975
H84   H     H_    0.327125 0.347241 0.426432 0.270423
N11   N     N_3   0.125443 0.556631 0.589788 -0.654214
H85   H     H_    0.151208 0.561988 0.638647 0.270763
H86   H     H_    0.141137 0.477562 0.564051 0.224735
N12   N     N_3   0.826904 0.829187 0.480658 -0.640140
H87   H     H_    0.856660 0.895859 0.506184 0.233898
H88   H     H_    0.827218 0.847408 0.426436 0.270432

loop_
_geom_bond_atom_site_label_1
_geom_bond_atom_site_label_2
_ccdc_geom_bond_type
Cr2   O2    S    
N11   H85   S    
C116  O8    A    
C2    C123  S    
C15   H41   S    
N8    H79   S    
C4    O24   A    
Cr1   O17   S    
C6    H2    S    
C94   C117  S    
C95   C99   A    
C18   N10   S    
C29   C33   A    
Cr8   O32   S    
Cr6   O18   S    
C3    O27   A    
C82   H30   S    
C1    O25   A    
Cr10  O38   S    
C83   H27   S    
C70   C74   A    
C9    C121  A    
C81   H25   S    
C7    H3    S    
C80   C84   S    
C97   C105  S    
Cr4   O20   S    
C15   C127  S    
C22   C130  A    
C19   C131  S    
C20   C132  S    
C41   C49   A    
C111  O47   A    
C30   H58   S    
Cr8   O20   S    
C23   C47   S    
C118  O42   A    
Cr1   O45   S    
C30   C34   A    
Cr7   O31   S    
C60   C76   A    
C93   C102  A    
C43   C44   A    
C37   C38   A    
C66   C82   S    
C78   C82   S    
C16   C20   S    
C45   O29   A    
C119  O15   A    
C115  O7    A    
C57   C61   A    
C105  H33   S    
C125  C129  A    
Cr7   O27   S    
C10   H38   S    
N4    H72   S    
C18   C130  S    
Cr2   O42   S    
C90   O2    A    
C15   H47   S    
Cr8   O52   S    
C107  H35   S    
C120  O44   A    
Cr11  O19   S    
C10   C122  A    
Cr1   O21   S    
C14   C126  S    
C55   H7    S    
Cr5   O49   S    
C59   C63   A    
C98   C106  S    
C60   C64   A    
C1    C124  S    
N9    H82   S    
C110  O46   A    
C49   C53   A    
Cr12  O36   S    
C89   O37   A    
C51   C55   A    
N7    H78   S    
Cr5   O29   S    
C127  C131  A    
C61   C65   A    
C5    C21   A    
C49   H62   S    
C126  C130  A    
Cr4   O44   S    
C79   H23   S    
C80   H24   S    
Cr9   O13   S    
C79   C83   S    
Cr6   O50   S    
C67   C83   S    
C72   H12   S    
C118  O14   A    
Cr1   O1    S    
C114  O6    A    
C97   C98   A    
C92   O40   A    
C35   H55   S    
C54   H6    S    
C53   C54   A    
C5    C9    A    
C25   C90   S    
Cr3   O19   S    
C64   C68   A    
N11   H86   S    
Cr12  O12   S    
N1    H65   S    
C77   H21   S    
C73   H13   S    
C57   C73   A    
Cr10  O10   S    
Cr5   O17   S    
C60   C109  S    
Cr4   O4    S    
C27   C44   A    
C61   C77   S    
N2    H67   S    
C29   C38   A    
Cr9   O37   S    
C107  C108  S    
C116  O12   A    
C44   C52   A    
C120  O16   A    
C53   H5    S    
C4    O28   A    
C114  O10   A    
N5    H73   S    
C21   C45   S    
C100  C108  S    
C5    H1    S    
C62   C66   A    
C24   C48   S    
C88   C116  S    
C91   O3    A    
C3    O23   A    
C39   C40   A    
C89   O1    A    
Cr10  O34   S    
C81   H29   S    
C121  C125  A    
C119  O43   A    
C25   C38   A    
C34   H54   S    
C123  C127  A    
C27   C40   A    
C8    C12   A    
C23   C131  A    
C21   C129  A    
C42   C50   A    
C47   O31   A    
C103  N3    S    
Cr11  O35   S    
C92   O4    A    
C93   C97   A    
C69   C85   A    
C58   C74   A    
C87   C115  S    
C62   C78   S    
Cr3   O43   S    
C84   H28   S    
C66   C86   A    
N3    H69   S    
N8    H80   S    
C13   C17   S    
C105  N5    S    
C85   C113  S    
C13   C125  S    
C112  O52   A    
C7    C23   A    
C96   C100  A    
C8    C24   A    
C28   C91   S    
Cr2   O22   S    
C104  N4    S    
C9    H37   S    
C2    O22   A    
Cr11  O11   S    
C14   H46   S    
N6    H75   S    
Cr3   O23   S    
C106  H34   S    
C58   C62   A    
Cr3   O3    S    
C55   C56   A    
C101  C102  A    
Cr1   O41   S    
C52   H63   S    
C20   N12   S    
C41   C42   A    
C96   C119  S    
C35   C36   A    
C48   O36   A    
C15   C19   S    
C50   C54   A    
C13   H43   S    
C83   H31   S    
N12   H87   S    
C112  O48   A    
C18   H50   S    
C94   C98   A    
C6    C22   A    
C31   C40   A    
Cr7   O19   S    
C32   C39   A    
C80   H20   S    
Cr9   O9    S    
C117  O13   A    
C2    O26   A    
Cr7   O7    S    
Cr7   O51   S    
N7    H77   S    
C69   C73   A    
C56   H8    S    
C124  C128  A    
C19   N11   S    
C64   C80   S    
C8    H4    S    
C111  O51   A    
C48   O32   A    
Cr10  O18   S    
C77   H17   S    
C91   O39   A    
C78   H22   S    
C29   H57   S    
C74   H14   S    
C58   C111  S    
C68   C84   S    
C106  N6    S    
C117  O41   A    
C28   C39   A    
Cr9   O33   S    
C30   C37   A    
C32   H60   S    
N9    H81   S    
C14   H44   S    
C24   C132  A    
C65   C81   S    
C77   C81   S    
C71   H11   S    
C71   C87   A    
C22   C46   S    
C31   C35   A    
Cr6   O26   S    
C46   O34   A    
C32   C36   A    
Cr6   O6    S    
C11   C123  A    
C36   H56   S    
C25   C42   A    
C6    C10   A    
C26   C37   A    
C110  O50   A    
C95   C120  S    
C99   C107  S    
C105  C106  S    
C28   C43   A    
C47   O35   A    
N3    H70   S    
C43   C51   A    
C12   H40   S    
C90   O38   A    
C109  O45   A    
Cr11  O39   S    
C4    C121  S    
C69   H9    S    
N2    H68   S    
C96   C103  A    
C103  C104  A    
Cr8   O28   S    
N4    H71   S    
Cr3   O47   S    
C84   H32   S    
C71   C75   A    
C82   H26   S    
C19   H51   S    
C101  N1    S    
C14   C18   S    
C17   H49   S    
C113  O5    A    
C72   C76   A    
C107  N7    S    
C63   C79   S    
C26   C89   S    
C7    C11   A    
Cr4   O24   S    
Cr2   O18   S    
N10   H84   S    
Cr11  O15   S    
C57   C112  S    
C59   C110  S    
C13   H45   S    
C108  H36   S    
C16   H48   S    
N5    H74   S    
C94   C101  A    
C31   H59   S    
C3    C122  S    
C115  O11   A    
C59   C75   A    
C128  C132  A    
C113  O9    A    
C72   C88   A    
Cr9   O17   S    
C63   C67   A    
C17   C129  S    
C11   H39   S    
Cr2   O46   S    
N1    H66   S    
C51   H64   S    
C122  C126  A    
C17   N9    S    
C99   C100  A    
C12   C124  A    
C33   H53   S    
C33   C34   A    
C27   C92   S    
C16   C128  S    
N6    H76   S    
C78   H18   S    
Cr12  O40   S    
C68   C88   A    
C102  N2    S    
C93   C118  S    
Cr5   O25   S    
C70   C86   A    
C45   O33   A    
C108  N8    S    
C95   C104  A    
C75   H15   S    
C76   H16   S    
Cr5   O5    S    
C70   H10   S    
Cr4   O48   S    
C79   H19   S    
C65   C85   A    
C67   C87   A    
C86   C114  S    
N10   H83   S    
C16   H42   S    
N12   H88   S    
Cr10  O14   S    
Cr6   O30   S    
C46   O30   A    
C109  O49   A    
Cr12  O16   S    
Cr8   O8    S    
C50   H61   S    
C1    O21   A    
Cr12  O20   S    
C20   H52   S    
C52   C56   A    
C26   C41   A    
