data_mof_unit_910.cif
_audit_creation_date              2012-12-10T18:20:39-0500
_audit_creation_method            fapswitch 2.2
_symmetry_space_group_name_H-M    P1
_symmetry_Int_Tables_number       1
_space_group_crystal_system       triclinic
_cell_length_a                    15.864051
_cell_length_b                    10.619241
_cell_length_c                    9.421705
_cell_angle_alpha                 89.630097
_cell_angle_beta                  90.138158
_cell_angle_gamma                 90.044893
_cell_volume                      1587.18165452

loop_
_atom_site_label
_atom_site_type_symbol
_atom_type_description
_atom_site_fract_x
_atom_site_fract_y
_atom_site_fract_z
_atom_type_partial_charge
C1    C     C_R   0.500022 0.259400 0.500446 0.791186
C2    C     C_R   0.499978 0.740600 0.499554 0.791186
C3    C     C_3   0.569477 0.957482 0.566509 -0.147313
C4    C     C_3   0.430522 0.042518 0.433491 -0.147317
C5    C     C_3   0.499982 0.877578 0.498665 0.005379
C6    C     C_3   0.500018 0.122422 0.501334 0.005369
C7    C     C_3   0.430961 0.957356 0.567260 -0.155271
C8    C     C_3   0.569039 0.042644 0.432739 -0.155259
C9    C     C_3   0.518372 0.610417 0.049713 -0.038302
C10   C     C_3   0.481628 0.389583 0.950287 -0.038305
C11   C     C_3   0.445235 0.578920 0.948520 -0.033628
C12   C     C_3   0.554765 0.421079 0.051480 -0.033619
C13   C     C_3   0.573206 0.531463 0.949694 -0.028535
C14   C     C_3   0.426794 0.468537 0.050305 -0.028540
C15   C     C_R   0.339953 0.499938 0.499855 0.819990
C16   C     C_R   0.660047 0.500062 0.500145 0.819992
C17   C     C_3   0.971870 0.417476 0.598831 -0.263542
C18   C     C_3   0.028130 0.582518 0.401167 -0.263516
C19   C     C_3   0.027427 0.385825 0.469871 0.524086
C20   C     C_3   0.972574 0.614168 0.530128 0.524205
C21   C     C_1   0.250268 0.500033 0.499649 -0.140888
C22   C     C_1   0.749732 0.499964 0.500351 -0.140887
C23   C     C_3   0.028533 0.533908 0.629447 -0.261287
C24   C     C_3   0.971467 0.466083 0.370550 -0.261258
C25   C     C_3   0.083070 0.500306 0.499965 -0.012018
C26   C     C_3   0.916930 0.499686 0.500034 -0.012017
C27   C     C_1   0.174732 0.500179 0.499743 0.075625
C28   C     C_1   0.825268 0.499816 0.500258 0.075633
C29   C     C_3   0.500457 0.039539 0.635227 -0.142789
C30   C     C_3   0.499543 0.960461 0.364773 -0.142779
Cu1   Cu    Cu3+1 0.500020 0.499990 0.643150 0.951102
Cu2   Cu    Cu3+1 0.499980 0.500010 0.356850 0.951117
H1    H     H_    0.948165 0.348741 0.678564 0.192368
H2    H     H_    0.051835 0.651253 0.321435 0.192417
H3    H     H_    0.947428 0.436798 0.265039 0.191170
H4    H     H_    0.052573 0.563191 0.734959 0.191093
H5    H     H_    0.626319 0.919477 0.620742 0.160619
H6    H     H_    0.373681 0.080522 0.379258 0.160635
H7    H     H_    0.500834 0.074488 0.746040 0.138415
H8    H     H_    0.499166 0.925512 0.253959 0.138416
H9    H     H_    0.374491 0.919257 0.622156 0.148912
H10   H     H_    0.625509 0.080743 0.377844 0.148929
H11   H     H_    0.399207 0.645381 0.900301 0.124045
H12   H     H_    0.600793 0.354618 0.099699 0.124057
H13   H     H_    0.534039 0.703498 0.095824 0.121879
H14   H     H_    0.465961 0.296502 0.904176 0.121877
H15   H     H_    0.634887 0.558327 0.903042 0.139236
H16   H     H_    0.365113 0.441672 0.096958 0.139240
N1    N     N_3   0.500060 0.499970 0.858290 -0.160446
N2    N     N_3   0.499940 0.500030 0.141710 -0.160448
O1    O     O_R   0.500040 0.316850 0.620870 -0.587342
O2    O     O_R   0.499960 0.683150 0.379130 -0.587340
O3    O     O_R   0.500000 0.316860 0.379090 -0.583265
O4    O     O_R   0.500000 0.683140 0.620910 -0.583269
O5    O     O_R   0.379090 0.499980 0.620870 -0.573748
O6    O     O_R   0.620910 0.500020 0.379130 -0.573734
O7    O     O_R   0.379060 0.499990 0.379090 -0.576106
O8    O     O_R   0.620940 0.500010 0.620910 -0.576118
S1    S     S_3+6 0.064554 0.232041 0.429247 0.009708
O9    O     O_2   0.119678 0.238566 0.299897 -0.292897
O10   O     O_2   0.114415 0.181338 0.552776 -0.284709
O11   O     O_3   0.981608 0.137608 0.397567 -0.512736
H17   H     H_    0.006530 0.055984 0.369530 0.401595
S2    S     S_3+6 0.935461 0.767944 0.570808 0.009448
O12   O     O_2   0.885230 0.818452 0.447625 -0.284230
O13   O     O_2   0.880709 0.761454 0.700590 -0.293426
O14   O     O_3   0.018425 0.862537 0.601711 -0.513157
H18   H     H_    0.993540 0.943620 0.631776 0.401114

loop_
_geom_bond_atom_site_label_1
_geom_bond_atom_site_label_2
_ccdc_geom_bond_type
C9    H13   S    
C7    C29   S    
C17   C23   S    
C18   C24   S    
C17   C26   S    
Cu1   O8    S    
C24   C26   S    
C11   C14   S    
C3    C29   S    
C9    C13   S    
Cu2   O2    S    
C1    O3    A    
C10   H14   S    
C11   H11   S    
C23   C25   S    
C21   C27   T    
S1    O9    D    
C22   C28   T    
C15   O7    A    
C18   C25   S    
C17   H1    S    
Cu2   O7    S    
Cu1   N1    S    
C4    C7    S    
C10   C12   S    
C18   H2    S    
S1    O10   D    
C24   H3    S    
C1    C6    S    
S2    O14   S    
C4    C6    S    
C3    C8    S    
C10   C14   S    
Cu1   O1    S    
C5    C7    S    
C6    C8    S    
C19   S1    S    
O14   H18   S    
S2    O13   D    
C20   S2    S    
C16   O6    A    
O11   H17   S    
C11   N1    S    
C9    C11   S    
Cu1   Cu2   S    
C20   C23   S    
C29   H7    S    
C30   H8    S    
C16   O8    A    
C1    O1    A    
Cu2   N2    S    
C2    O2    A    
C13   N1    S    
C4    H6    S    
C2    O4    A    
C2    C5    S    
Cu2   O3    S    
C13   H15   S    
C5    C30   S    
S1    O11   S    
C16   C22   S    
C9    N2    S    
C8    H10   S    
C3    C5    S    
C12   N2    S    
C25   C27   S    
C26   C28   S    
C8    C30   S    
S2    O12   D    
C19   C24   S    
C12   H12   S    
C14   N2    S    
C20   C26   S    
C17   C19   S    
C18   C20   S    
C7    H9    S    
Cu1   O4    S    
C19   C25   S    
C15   C21   S    
C6    C29   S    
C12   C13   S    
C3    H5    S    
C23   H4    S    
C14   H16   S    
Cu1   O5    S    
C10   N1    S    
Cu2   O6    S    
C4    C30   S    
C15   O5    A    
