data_mof_unit_3761.cif
_audit_creation_date              2012-12-11T15:48:37-0500
_audit_creation_method            fapswitch 2.2
_symmetry_space_group_name_H-M    P1
_symmetry_Int_Tables_number       1
_space_group_crystal_system       triclinic
_cell_length_a                    10.945589
_cell_length_b                    10.948949
_cell_length_c                    18.832746
_cell_angle_alpha                 90.476931
_cell_angle_beta                  90.150192
_cell_angle_gamma                 60.306215
_cell_volume                      1960.52313678

loop_
_atom_site_label
_atom_site_type_symbol
_atom_type_description
_atom_site_fract_x
_atom_site_fract_y
_atom_site_fract_z
_atom_type_partial_charge
C1    C     C_R   0.239444 0.645044 0.610331 0.541122
C2    C     C_3   0.733748 0.521073 0.796881 -0.244278
C3    C     C_3   0.697818 0.673143 0.813471 0.058394
C4    C     C_3   0.669105 0.646563 0.677732 0.050378
C5    C     C_3   0.779664 0.692595 0.688964 -0.251266
C6    C     C_3   0.715187 0.506269 0.717637 -0.212963
C7    C     C_R   0.683126 0.146698 0.821278 0.017582
C8    C     C_R   0.773926 0.179674 0.785131 -0.007490
C9    C     C_R   0.768518 0.189879 0.711183 0.015599
C10   C     C_R   0.583634 0.131471 0.707895 -0.173117
C11   C     C_R   0.582497 0.130578 0.780944 -0.158974
C12   C     C_R   0.652884 0.621007 0.601855 0.538966
C13   C     C_3   0.929537 0.104023 0.786506 -0.275550
C14   C     C_3   0.925228 0.111301 0.706217 -0.280689
C15   C     C_R   0.674155 0.164661 0.671784 0.015876
C16   C     C_R   0.187023 0.666501 0.836970 0.015419
C17   C     C_R   0.196449 0.554363 0.797031 0.019425
C18   C     C_R   0.203010 0.551391 0.724859 0.021835
C19   C     C_R   0.204298 0.768258 0.725383 -0.186023
C20   C     C_R   0.204267 0.767755 0.799605 -0.181725
C21   C     C_3   0.190361 0.421542 0.800849 -0.281468
C22   C     C_3   0.200142 0.417125 0.719153 -0.277235
C23   C     C_R   0.629927 0.226072 0.601849 0.541079
C24   C     C_R   0.204373 0.658246 0.685721 0.012507
C25   C     C_R   0.673972 0.680519 0.173821 0.020982
C26   C     C_R   0.793886 0.603338 0.215373 0.051757
C27   C     C_R   0.788112 0.599116 0.287970 0.016896
C28   C     C_R   0.538656 0.761395 0.282802 -0.163503
C29   C     C_R   0.546191 0.766970 0.208510 -0.176878
C30   C     C_3   0.903612 0.452142 0.209374 -0.262958
C31   C     C_3   0.902063 0.448253 0.289471 -0.272206
C32   C     C_R   0.658722 0.668906 0.322646 0.013676
C33   C     C_R   0.638925 0.185334 0.170023 0.019460
C34   C     C_R   0.227542 0.646159 0.399462 0.547752
C35   C     C_R   0.518280 0.209663 0.207223 0.023440
C36   C     C_R   0.515805 0.217619 0.280062 0.042814
C37   C     C_R   0.743009 0.201313 0.280720 -0.166431
C38   C     C_R   0.743832 0.198287 0.206691 -0.168293
C39   C     C_3   0.438484 0.131159 0.207266 -0.270490
C40   C     C_3   0.437682 0.139011 0.287451 -0.278638
C41   C     C_R   0.632065 0.202090 0.318198 0.021772
C42   C     C_R   0.168613 0.666784 0.178455 0.020084
C43   C     C_R   0.192020 0.764573 0.215834 0.024996
C44   C     C_R   0.203398 0.758164 0.287675 0.035615
C45   C     C_R   0.642132 0.623846 0.392641 0.552160
C46   C     C_R   0.201185 0.539795 0.287381 -0.151488
C47   C     C_R   0.189644 0.545438 0.213329 -0.157338
C48   C     C_3   0.110111 0.922734 0.218959 -0.267519
C49   C     C_3   0.124462 0.913266 0.298583 -0.280345
C50   C     C_R   0.194837 0.654299 0.325247 0.021984
C51   C     C_R   0.702511 0.098474 0.894897 0.541888
C52   C     C_R   0.721781 0.686866 0.889119 0.542724
C53   C     C_R   0.120657 0.704743 0.906695 0.539169
C54   C     C_R   0.673365 0.110601 0.102819 0.548339
C55   C     C_R   0.697897 0.691429 0.098722 0.544783
C56   C     C_R   0.614193 0.233915 0.393316 0.544601
C57   C     C_R   0.096489 0.708592 0.111439 0.549769
C58   C     C_3   0.543532 0.773692 0.791244 -0.242639
C59   C     C_3   0.528069 0.760208 0.710848 -0.232839
C60   C     C_3   0.794793 0.711047 0.769233 -0.219084
Cr1   Cr    Cr6+3 0.392960 0.397920 0.502240 1.008579
Cr2   Cr    Cr6+3 0.398340 0.708480 0.501250 1.003033
Cr3   Cr    Cr6+3 0.708670 0.393570 0.496460 1.004192
Cr4   Cr    Cr6+3 0.937650 0.938540 0.007610 1.002482
Cr5   Cr    Cr6+3 0.625330 0.937370 0.994520 1.000846
Cr6   Cr    Cr6+3 0.937940 0.625230 0.001190 1.003937
H1    H     H_    0.817034 0.421772 0.696280 0.142285
H2    H     H_    0.906017 0.644205 0.784729 0.134795
H3    H     H_    0.882258 0.612927 0.666155 0.121812
H4    H     H_    0.507728 0.113000 0.679760 0.122853
H5    H     H_    0.507351 0.106443 0.804964 0.134539
H6    H     H_    0.969725 0.997114 0.807515 0.172162
H7    H     H_    0.972002 0.167258 0.811834 0.126269
H8    H     H_    0.968364 0.176286 0.684615 0.129097
H9    H     H_    0.964439 0.007725 0.679466 0.143433
H10   H     H_    0.209478 0.853469 0.699477 0.135280
H11   H     H_    0.471843 0.747411 0.820740 0.118870
H12   H     H_    0.205731 0.854222 0.827184 0.132251
H13   H     H_    0.088777 0.436911 0.821454 0.146256
H14   H     H_    0.284927 0.336176 0.826947 0.138194
H15   H     H_    0.300047 0.330279 0.697994 0.160169
H16   H     H_    0.103972 0.429705 0.692697 0.120382
H17   H     H_    0.437161 0.820670 0.308136 0.140071
H18   H     H_    0.452344 0.834223 0.178445 0.120696
H19   H     H_    0.003325 0.436304 0.186820 0.141324
H20   H     H_    0.862768 0.388052 0.183629 0.134200
H21   H     H_    0.867197 0.376170 0.309503 0.162121
H22   H     H_    0.448715 0.727884 0.701647 0.149481
H23   H     H_    0.000014 0.435045 0.314151 0.126375
H24   H     H_    0.831286 0.196973 0.308603 0.119015
H25   H     H_    0.834314 0.189219 0.178911 0.117448
H26   H     H_    0.501701 0.022495 0.186755 0.173325
H27   H     H_    0.332124 0.192900 0.183491 0.122943
H28   H     H_    0.330772 0.204154 0.310166 0.129862
H29   H     H_    0.501964 0.035192 0.313099 0.142298
H30   H     H_    0.212020 0.448777 0.314831 0.127892
H31   H     H_    0.188333 0.460839 0.184255 0.115260
H32   H     H_    0.999634 0.965164 0.202093 0.171494
H33   H     H_    0.491385 0.863659 0.684952 0.117544
H34   H     H_    0.167214 0.971604 0.193919 0.127309
H35   H     H_    0.191042 0.955343 0.319934 0.135725
H36   H     H_    0.023086 0.949472 0.326889 0.136300
H37   H     H_    0.767501 0.821693 0.780371 0.129967
H38   H     H_    0.746975 0.793522 0.661226 0.116253
H39   H     H_    0.844361 0.445442 0.811798 0.130766
H40   H     H_    0.664185 0.493616 0.827746 0.120201
H41   H     H_    0.634515 0.473694 0.709742 0.133063
O1    O     O_R   0.507380 0.255700 0.581440 -0.529973
O2    O     O_R   0.524480 0.695810 0.424040 -0.509096
O3    O     O_R   0.736390 0.504290 0.414790 -0.523527
O4    O     O_R   0.691300 0.277290 0.422170 -0.510826
O5    O     O_3   0.499990 0.499990 0.499980 -0.248795
O6    O     O_R   0.089400 0.825690 0.930570 -0.532665
O7    O     O_R   0.818460 0.054440 0.929850 -0.501255
O8    O     O_R   0.606060 0.077150 0.915510 -0.535585
O9    O     O_R   0.646550 0.806680 0.917570 -0.511121
O10   O     O_R   0.837170 0.593410 0.915250 -0.532540
O11   O     O_R   0.065200 0.635530 0.931570 -0.503270
O12   O     O_R   0.280320 0.527350 0.578930 -0.497823
O13   O     O_R   0.068260 0.828890 0.091840 -0.527509
O14   O     O_R   0.798870 0.057410 0.079340 -0.511123
O15   O     O_R   0.584930 0.080350 0.076780 -0.523221
O16   O     O_R   0.626960 0.809650 0.067060 -0.507656
O17   O     O_R   0.816040 0.596610 0.076510 -0.519694
O18   O     O_R   0.045610 0.638500 0.081060 -0.507259
O19   O     O_3   0.833640 0.833710 0.001100 -0.246360
O20   O     O_R   0.260510 0.739590 0.584590 -0.534405
O21   O     O_R   0.532300 0.695080 0.573820 -0.510846
O22   O     O_R   0.744840 0.503500 0.576370 -0.528645
O23   O     O_R   0.699120 0.276560 0.571960 -0.501988
O24   O     O_R   0.498940 0.256500 0.419860 -0.520551
O25   O     O_R   0.272500 0.528080 0.429150 -0.509221
O26   O     O_R   0.252060 0.740380 0.423010 -0.519903
H42   H     H_    0.512054 0.884687 0.804054 0.130790

loop_
_geom_bond_atom_site_label_1
_geom_bond_atom_site_label_2
_ccdc_geom_bond_type
C44   C49   S    
C8    C13   S    
Cr1   O12   S    
C59   H33   S    
C32   C45   S    
C19   C20   A    
C9    C14   S    
C7    C8    A    
C58   H42   S    
C7    C11   A    
C26   C27   A    
C37   H24   S    
C18   C24   A    
C14   H8    S    
Cr2   O26   S    
C19   H10   S    
C10   C15   A    
C57   O18   A    
C30   C31   S    
C11   H5    S    
Cr4   O14   S    
C4    C59   S    
C1    O12   A    
Cr3   O23   S    
Cr3   O5    S    
Cr1   O1    S    
C16   C53   S    
C39   H27   S    
C5    H3    S    
Cr1   O25   S    
C59   H22   S    
C35   C36   A    
C8    C9    A    
C31   H23   S    
Cr6   O10   S    
C6    H41   S    
C30   H20   S    
C60   H37   S    
C43   C48   S    
C56   O4    A    
C58   H11   S    
C3    C60   S    
C15   C23   S    
C54   O15   A    
C5    H38   S    
C34   O25   A    
C18   C22   S    
C21   C22   S    
C28   H17   S    
C37   C41   A    
Cr5   O8    S    
C36   C41   A    
C2    C6    S    
C42   C57   S    
C53   O6    A    
C52   O9    A    
C25   C29   A    
C48   H34   S    
C55   O16   A    
C34   C50   S    
C51   O7    A    
Cr4   O7    S    
C12   O22   A    
C27   C31   S    
C22   H15   S    
C1    O20   A    
C28   C32   A    
C31   H21   S    
C29   H18   S    
C4    C6    S    
C49   H36   S    
C53   O11   A    
C16   C17   A    
C34   O26   A    
C25   C26   A    
C38   H25   S    
C2    H40   S    
C51   O8    A    
Cr6   O19   S    
C23   O23   A    
C35   C39   S    
C43   C44   A    
C41   C56   S    
C37   C38   A    
C36   C40   S    
C16   C20   A    
C21   H13   S    
C17   C18   A    
Cr2   O5    S    
Cr5   O15   S    
C30   H19   S    
C57   O13   A    
C10   H4    S    
C48   C49   S    
C54   O14   A    
C13   H7    S    
C26   C30   S    
Cr4   O19   S    
Cr6   O11   S    
Cr5   O9    S    
Cr6   O17   S    
C4    C12   S    
C42   C43   A    
C40   H29   S    
C22   H16   S    
C39   H26   S    
C39   C40   S    
C49   H35   S    
C44   C50   A    
C33   C54   S    
C46   C47   A    
C28   C29   A    
Cr4   O6    S    
C5    C60   S    
C27   C32   A    
C45   O3    A    
Cr5   O16   S    
C25   C55   S    
C40   H28   S    
C4    C5    S    
C47   H31   S    
C3    C52   S    
C12   O21   A    
C13   H6    S    
C48   H32   S    
C46   C50   A    
C2    H39   S    
C33   C38   A    
Cr4   O13   S    
Cr6   O18   S    
C20   H12   S    
C14   H9    S    
Cr3   O3    S    
C2    C3    S    
C58   C59   S    
C7    C51   S    
C6    H1    S    
Cr5   O19   S    
Cr2   O21   S    
Cr2   O20   S    
Cr2   O2    S    
C23   O1    A    
C21   H14   S    
C33   C35   A    
C19   C24   A    
C45   O2    A    
C42   C47   A    
Cr3   O22   S    
Cr3   O4    S    
C17   C21   S    
C56   O24   A    
C10   C11   A    
Cr1   O24   S    
C3    C58   S    
C46   H30   S    
C60   H2    S    
C1    C24   S    
C55   O17   A    
C52   O10   A    
C13   C14   S    
Cr1   O5    S    
C9    C15   A    
