data_mof_unit_4575.cif
_audit_creation_date              2012-12-11T17:47:38-0500
_audit_creation_method            fapswitch 2.2
_symmetry_space_group_name_H-M    P1
_symmetry_Int_Tables_number       1
_space_group_crystal_system       triclinic
_cell_length_a                    7.239628
_cell_length_b                    23.346878
_cell_length_c                    25.05368
_cell_angle_alpha                 90.022258
_cell_angle_beta                  90.090532
_cell_angle_gamma                 90.209413
_cell_volume                      4234.60703143

loop_
_atom_site_label
_atom_site_type_symbol
_atom_type_description
_atom_site_fract_x
_atom_site_fract_y
_atom_site_fract_z
_atom_type_partial_charge
O1    O     O_R   0.690340 0.802800 0.195640 -0.518014
O2    O     O_R   0.309660 0.197200 0.804360 -0.521551
O3    O     O_R   0.309660 0.197200 0.695640 -0.521803
O4    O     O_R   0.690340 0.802800 0.304360 -0.518642
O5    O     O_R   0.190340 0.697200 0.304360 -0.524105
O6    O     O_R   0.809660 0.302800 0.695640 -0.511322
O7    O     O_R   0.809660 0.302800 0.804360 -0.526271
O8    O     O_R   0.190340 0.697200 0.195640 -0.527789
O9    O     O_R   0.360590 0.809740 0.303990 -0.541624
O10   O     O_R   0.639410 0.190260 0.696010 -0.515494
O11   O     O_R   0.639410 0.190260 0.803990 -0.544674
O12   O     O_R   0.360590 0.809740 0.196010 -0.518813
O13   O     O_R   0.860590 0.690260 0.196010 -0.537553
O14   O     O_R   0.139410 0.309740 0.803990 -0.511700
O15   O     O_R   0.139410 0.309740 0.696010 -0.525438
O16   O     O_R   0.860590 0.690260 0.303990 -0.507547
C1    C     C_R   0.529954 0.824274 0.320890 0.752366
C2    C     C_R   0.470806 0.175798 0.678680 0.735434
C3    C     C_R   0.470196 0.175677 0.820817 0.742768
C4    C     C_R   0.528966 0.824159 0.178624 0.726200
C5    C     C_R   0.028815 0.676388 0.178507 0.739492
C6    C     C_R   0.971266 0.324238 0.821354 0.737518
C7    C     C_R   0.970811 0.323876 0.678549 0.747910
C8    C     C_R   0.029091 0.675847 0.321411 0.749456
O17   O     O_3   0.523810 0.713070 0.250000 -0.374286
O18   O     O_3   0.476190 0.286930 0.750000 -0.362498
O19   O     O_3   0.023810 0.786930 0.250000 -0.377410
O20   O     O_3   0.976190 0.213070 0.750000 -0.381312
V1    V     V_3+5 0.248970 0.756850 0.250000 1.469837
V2    V     V_3+5 0.751030 0.243150 0.750000 1.504031
V3    V     V_3+5 0.748970 0.743150 0.250000 1.497117
V4    V     V_3+5 0.251030 0.256850 0.750000 1.534371
C9    C     C_R   0.038164 0.628689 0.362298 -0.335880
C10   C     C_R   0.963120 0.368332 0.635343 -0.299114
C11   C     C_R   0.963803 0.371549 0.862152 -0.333221
C12   C     C_R   0.036691 0.632958 0.134795 -0.294188
C13   C     C_R   0.536687 0.870436 0.136793 -0.334618
C14   C     C_R   0.458428 0.131245 0.863559 -0.310094
C15   C     C_R   0.462745 0.128900 0.637507 -0.349624
C16   C     C_R   0.541961 0.868589 0.363806 -0.313066
C17   C     C_R   0.880375 0.612464 0.392480 0.268581
C18   C     C_R   0.099218 0.412427 0.633252 0.250116
C19   C     C_R   0.122898 0.387896 0.891891 0.267200
C20   C     C_R   0.911207 0.586003 0.133454 0.214300
C21   C     C_R   0.375094 0.888790 0.109465 0.251016
C22   C     C_R   0.580592 0.083744 0.864511 0.229173
C23   C     C_R   0.623876 0.111192 0.609784 0.275093
C24   C     C_R   0.419237 0.915948 0.364980 0.229314
C25   C     C_R   0.884805 0.563126 0.425125 0.378370
C26   C     C_R   0.104269 0.451269 0.590063 0.368990
C27   C     C_R   0.120203 0.437447 0.924312 0.377675
C28   C     C_R   0.910735 0.547593 0.089762 0.381989
C29   C     C_R   0.381577 0.935774 0.074296 0.380605
C30   C     C_R   0.576131 0.044496 0.907395 0.398002
C31   C     C_R   0.618587 0.063674 0.575172 0.382472
C32   C     C_R   0.423135 0.954873 0.408161 0.398137
C33   C     C_R   0.056562 0.538304 0.438965 0.192480
C34   C     C_R   0.964448 0.449574 0.551221 0.233620
C35   C     C_R   0.949008 0.462296 0.938638 0.193170
C36   C     C_R   0.044820 0.553300 0.049461 0.223823
C37   C     C_R   0.554574 0.957694 0.056956 0.177645
C38   C     C_R   0.448676 0.052302 0.949487 0.201762
C39   C     C_R   0.446020 0.040656 0.558537 0.171748
C40   C     C_R   0.551169 0.947072 0.450208 0.202239
C41   C     C_R   0.212638 0.555691 0.410796 -0.358439
C42   C     C_R   0.822958 0.409125 0.555312 -0.403705
C43   C     C_R   0.791632 0.444556 0.911090 -0.359876
C44   C     C_R   0.174396 0.597658 0.052383 -0.365033
C45   C     C_R   0.713400 0.938366 0.082759 -0.352641
C46   C     C_R   0.319662 0.096339 0.946026 -0.321352
C47   C     C_R   0.287412 0.059431 0.584655 -0.343542
C48   C     C_R   0.680923 0.903260 0.446503 -0.321654
C49   C     C_R   0.204077 0.597786 0.370943 0.391202
C50   C     C_R   0.819746 0.367670 0.596626 0.403802
C51   C     C_R   0.798562 0.402551 0.871112 0.390507
C52   C     C_R   0.172372 0.637351 0.094497 0.368814
C53   C     C_R   0.704895 0.898539 0.124571 0.381713
C54   C     C_R   0.320238 0.134968 0.903229 0.355285
C55   C     C_R   0.295277 0.099736 0.626102 0.393064
C56   C     C_R   0.680488 0.864834 0.403499 0.355494
N1    N     N_2   0.077901 0.495658 0.479741 -0.248104
N2    N     N_2   0.946884 0.493241 0.512074 -0.183028
N3    N     N_2   0.927786 0.504444 0.979931 -0.241838
N4    N     N_2   0.066506 0.511194 0.009021 -0.186854
N5    N     N_2   0.576599 0.998414 0.014440 -0.218231
N6    N     N_2   0.429349 0.012804 0.992272 -0.206882
N7    N     N_2   0.424043 0.999855 0.516002 -0.219405
N8    N     N_2   0.570719 0.986596 0.493021 -0.205346
H1    H     H_    0.343241 0.536320 0.419902 0.203161
H2    H     H_    0.713427 0.411530 0.526067 0.155584
H3    H     H_    0.661325 0.463723 0.920736 0.203437
H4    H     H_    0.277016 0.601689 0.021182 0.162915
H5    H     H_    0.845658 0.955298 0.070935 0.217656
H6    H     H_    0.217947 0.101008 0.977393 0.171501
H7    H     H_    0.155723 0.041931 0.573109 0.211855
H8    H     H_    0.783112 0.898609 0.477832 0.171003
O21   O     O_3   0.221905 0.420631 0.675086 -0.549278
C57   C     C_3   0.128131 0.444432 0.719544 0.116749
H9    H     H_    0.152882 0.416350 0.754556 0.124051
H10   H     H_    0.975167 0.447764 0.714531 0.071503
C58   C     C_3   0.204528 0.504090 0.731765 -0.279727
H11   H     H_    0.354834 0.501355 0.740246 0.179953
H12   H     H_    0.184637 0.532281 0.696518 0.229381
C59   C     C_3   0.106299 0.530397 0.779713 -0.884381
H13   H     H_    0.958492 0.537951 0.770148 0.235171
H14   H     H_    0.172078 0.571953 0.790152 0.236595
H15   H     H_    0.114860 0.501368 0.814689 0.221815
O22   O     O_3   0.721568 0.645261 0.391693 -0.508034
C60   C     C_3   0.711304 0.677092 0.439985 0.178087
H16   H     H_    0.776050 0.719665 0.434003 0.150700
H17   H     H_    0.784552 0.656755 0.474350 0.063202
C61   C     C_3   0.509902 0.683985 0.457110 -0.265643
H18   H     H_    0.440169 0.641619 0.455881 0.230565
H19   H     H_    0.505245 0.699469 0.499052 0.134528
C62   C     C_3   0.406131 0.726484 0.422081 -0.657389
H20   H     H_    0.451564 0.770736 0.431508 0.197294
H21   H     H_    0.255611 0.723101 0.429976 0.179082
H22   H     H_    0.431849 0.717740 0.379263 0.280136
O23   O     O_3   0.794416 0.575009 0.175973 -0.565758
C63   C     C_3   0.896741 0.552261 0.219336 0.118448
H23   H     H_    0.888672 0.582965 0.253083 0.117888
H24   H     H_    0.046270 0.544919 0.210641 0.077435
C64   C     C_3   0.812119 0.495241 0.236704 -0.275352
H25   H     H_    0.664536 0.501365 0.247103 0.175856
H26   H     H_    0.819772 0.464172 0.203168 0.223585
C65   C     C_3   0.914326 0.470821 0.284896 -0.884573
H27   H     H_    0.059684 0.460994 0.274232 0.233965
H28   H     H_    0.845474 0.430758 0.298242 0.232924
H29   H     H_    0.913699 0.502013 0.318338 0.222940
O24   O     O_3   0.281130 0.354846 0.891140 -0.508620
C66   C     C_3   0.291184 0.323068 0.939455 0.178282
H30   H     H_    0.226273 0.280514 0.933411 0.150805
H31   H     H_    0.217969 0.343472 0.973745 0.061902
C67   C     C_3   0.492521 0.316113 0.956790 -0.267465
H32   H     H_    0.562422 0.358454 0.955655 0.229906
H33   H     H_    0.497063 0.300626 0.998726 0.133801
C68   C     C_3   0.596129 0.273579 0.921831 -0.657858
H34   H     H_    0.550393 0.229342 0.931135 0.197398
H35   H     H_    0.746648 0.276880 0.929894 0.179119
H36   H     H_    0.570518 0.282384 0.879004 0.278816
O25   O     O_3   0.695486 0.072026 0.821713 -0.553932
C69   C     C_3   0.588669 0.050615 0.778463 0.119441
H37   H     H_    0.578353 0.084527 0.747634 0.108658
H38   H     H_    0.445039 0.037540 0.789732 0.076001
C70   C     C_3   0.683673 0.998564 0.753830 -0.279931
H39   H     H_    0.818364 0.011416 0.736698 0.173400
H40   H     H_    0.710451 0.965920 0.785012 0.205094
C71   C     C_3   0.564702 0.971824 0.710006 -0.886871
H41   H     H_    0.432294 0.955912 0.726856 0.232892
H42   H     H_    0.639056 0.935189 0.691839 0.230884
H43   H     H_    0.534744 0.003829 0.678460 0.225051
O26   O     O_3   0.205652 0.863489 0.118787 -0.519830
C72   C     C_3   0.187937 0.813099 0.087702 0.234207
H44   H     H_    0.104288 0.782186 0.111235 0.161445
H45   H     H_    0.322624 0.791889 0.079106 0.096838
C73   C     C_3   0.086206 0.825383 0.035353 -0.319394
H46   H     H_    0.954751 0.847883 0.043886 0.231594
H47   H     H_    0.172908 0.853334 0.009634 0.205334
C74   C     C_3   0.043197 0.770035 0.005289 -0.836026
H48   H     H_    0.172939 0.747004 0.995628 0.250677
H49   H     H_    0.970232 0.780221 0.967473 0.230209
H50   H     H_    0.953050 0.741772 0.029741 0.233115
O27   O     O_3   0.304377 0.927906 0.322129 -0.553659
C75   C     C_3   0.411455 0.949000 0.278906 0.120042
H51   H     H_    0.421242 0.914972 0.248154 0.112396
H52   H     H_    0.555280 0.961919 0.290270 0.075582
C76   C     C_3   0.317242 0.001100 0.254077 -0.279342
H53   H     H_    0.182142 0.988400 0.236952 0.173521
H54   H     H_    0.291383 0.033933 0.285158 0.203609
C77   C     C_3   0.436503 0.027420 0.210218 -0.888474
H55   H     H_    0.569222 0.043212 0.227093 0.232298
H56   H     H_    0.362708 0.064084 0.191871 0.230128
H57   H     H_    0.465897 0.995203 0.178806 0.227065
O28   O     O_3   0.788195 0.141079 0.614415 -0.509593
C78   C     C_3   0.789558 0.186731 0.577009 0.209938
H58   H     H_    0.792590 0.227439 0.599700 0.167834
H59   H     H_    0.664384 0.188761 0.550794 0.006984
C79   C     C_3   0.959544 0.182692 0.540662 -0.267685
H60   H     H_    0.008030 0.137683 0.538386 0.247622
H61   H     H_    0.921082 0.195974 0.499515 0.136507
C80   C     C_3   0.117203 0.221279 0.559595 -0.782014
H62   H     H_    0.079239 0.267013 0.554462 0.203438
H63   H     H_    0.242690 0.212362 0.535626 0.200959
H64   H     H_    0.148349 0.213485 0.602255 0.271611
O29   O     O_3   0.227542 0.496666 0.590302 -0.537181
C81   C     C_3   0.401225 0.476905 0.573138 -0.152671
H65   H     H_    0.496127 0.514124 0.569676 0.174386
H66   H     H_    0.392385 0.456520 0.533036 0.116714
H67   H     H_    0.462624 0.446831 0.602553 0.173097
O30   O     O_3   0.720552 0.541855 0.445236 -0.526653
C82   C     C_3   0.676803 0.490749 0.417578 -0.227642
H68   H     H_    0.793890 0.460024 0.415802 0.140318
H69   H     H_    0.628689 0.500660 0.376473 0.143217
H70   H     H_    0.563635 0.468432 0.439010 0.139746
O31   O     O_3   0.798414 0.499507 0.090241 -0.534391
C83   C     C_3   0.617595 0.515404 0.075544 -0.151794
H71   H     H_    0.536171 0.475914 0.067814 0.172929
H72   H     H_    0.615138 0.541234 0.038162 0.117183
H73   H     H_    0.548311 0.538745 0.108474 0.142524
O32   O     O_3   0.285466 0.458571 0.943989 -0.527660
C84   C     C_3   0.329786 0.509220 0.915741 -0.222695
H74   H     H_    0.212001 0.539573 0.912370 0.139551
H75   H     H_    0.381669 0.498502 0.875268 0.142608
H76   H     H_    0.440457 0.532353 0.937649 0.144136
O33   O     O_3   0.696285 0.998503 0.906924 -0.521424
C85   C     C_3   0.598214 0.948297 0.892728 -0.167090
H77   H     H_    0.499678 0.955229 0.859144 0.097620
H78   H     H_    0.523265 0.930384 0.927560 0.161316
H79   H     H_    0.699057 0.915548 0.879607 0.141421
O34   O     O_3   0.216978 0.958802 0.056557 -0.525238
C86   C     C_3   0.176619 0.006944 0.088624 -0.187041
H80   H     H_    0.058343 0.030196 0.070812 0.149735
H81   H     H_    0.293587 0.038007 0.090588 0.133794
H82   H     H_    0.137219 0.993304 0.129531 0.145859
O35   O     O_3   0.301881 0.000585 0.408015 -0.521632
C87   C     C_3   0.398455 0.051093 0.394037 -0.170753
H83   H     H_    0.497416 0.044522 0.360574 0.098062
H84   H     H_    0.472571 0.069160 0.429031 0.161614
H85   H     H_    0.296659 0.083550 0.380836 0.139609
O36   O     O_3   0.783567 0.041490 0.557004 -0.525328
C88   C     C_3   0.825485 0.992788 0.588220 -0.197201
H86   H     H_    0.940821 0.969295 0.569204 0.152077
H87   H     H_    0.708060 0.961953 0.590875 0.135494
H88   H     H_    0.869482 0.005879 0.628946 0.144179
O37   O     O_3   0.364936 0.611792 0.344365 -0.505835
C89   C     C_3   0.379792 0.576592 0.298949 -0.099692
H89   H     H_    0.265595 0.584959 0.270370 0.078809
H90   H     H_    0.383487 0.530397 0.309864 0.084236
H91   H     H_    0.510975 0.587232 0.278376 0.165572
O38   O     O_3   0.673771 0.329114 0.603756 -0.535127
C90   C     C_3   0.572732 0.317285 0.556815 -0.281601
H92   H     H_    0.486474 0.278825 0.564108 0.149874
H93   H     H_    0.665002 0.307463 0.522530 0.127378
H94   H     H_    0.476341 0.352761 0.547498 0.139096
O39   O     O_3   0.637100 0.388962 0.844524 -0.507979
C91   C     C_3   0.624021 0.423827 0.798839 -0.093808
H95   H     H_    0.492334 0.413701 0.778260 0.167467
H96   H     H_    0.622885 0.470144 0.809388 0.082409
H97   H     H_    0.737600 0.414631 0.770381 0.085404
O40   O     O_3   0.292125 0.683648 0.093781 -0.565719
C92   C     C_3   0.473374 0.664891 0.104459 -0.185660
H98   H     H_    0.561971 0.703033 0.111500 0.140778
H99   H     H_    0.531568 0.641647 0.069700 0.108164
H100  H     H_    0.479882 0.638050 0.141161 0.163133
O41   O     O_3   0.865505 0.885591 0.151457 -0.505951
C93   C     C_3   0.875792 0.919983 0.197614 -0.070470
H101  H     H_    0.758040 0.911784 0.224969 0.068883
H102  H     H_    0.882403 0.966287 0.187289 0.078742
H103  H     H_    0.003292 0.908487 0.219604 0.166212
O42   O     O_3   0.194449 0.179389 0.902559 -0.563540
C94   C     C_3   0.018133 0.157412 0.889638 -0.138598
H104  H     H_    0.923080 0.193912 0.883238 0.135707
H105  H     H_    0.961051 0.131184 0.922805 0.129800
H106  H     H_    0.020699 0.132073 0.851954 0.166266
O43   O     O_3   0.133784 0.112978 0.652414 -0.502750
C95   C     C_3   0.124183 0.079940 0.699368 -0.083534
H107  H     H_    0.241339 0.089345 0.726705 0.070737
H108  H     H_    0.119188 0.033333 0.690161 0.079153
H109  H     H_    0.996119 0.091686 0.720855 0.165470
O44   O     O_3   0.806786 0.820559 0.402637 -0.563336
C96   C     C_3   0.982689 0.842787 0.389802 -0.136706
H110  H     H_    0.078211 0.806423 0.383366 0.136581
H111  H     H_    0.039678 0.869055 0.423027 0.129503
H112  H     H_    0.979433 0.868163 0.352161 0.167282

loop_
_geom_bond_atom_site_label_1
_geom_bond_atom_site_label_2
_ccdc_geom_bond_type
O17   V3    S    
N7    N8    D    
O18   V4    S    
O30   C82   S    
C17   O22   S    
O12   V1    S    
O19   V1    S    
C84   H74   S    
O7    C6    A    
C45   C53   A    
O27   C75   S    
C10   C18   A    
C71   H43   S    
C50   O38   S    
C66   C67   S    
C19   C27   A    
C67   C68   S    
C61   H19   S    
O21   C57   S    
C25   C33   A    
C64   H25   S    
C42   H2    S    
C5    C12   S    
C80   H62   S    
C91   H95   S    
O16   V3    S    
C41   H1    S    
C6    C11   S    
C68   H35   S    
C11   C51   A    
C75   H52   S    
C65   H27   S    
N3    N4    D    
O8    V1    S    
C9    C49   A    
C23   C31   A    
C75   H51   S    
C46   H6    S    
C35   N3    S    
C88   H88   S    
C45   H5    S    
C60   H17   S    
O34   C86   S    
C96   H110  S    
C85   H78   S    
C83   H71   S    
C64   H26   S    
C47   H7    S    
C77   H55   S    
C62   H20   S    
C42   C50   A    
C95   H109  S    
O1    V3    S    
C41   C49   A    
O22   C60   S    
C38   C46   A    
O3    C2    A    
O2    V4    S    
C92   H98   S    
C16   C24   A    
O28   C78   S    
O36   C88   S    
C32   O35   S    
C12   C52   A    
C35   C43   A    
C29   C37   A    
C74   H49   S    
C34   C42   A    
C23   O28   S    
C74   H48   S    
O11   V2    S    
O32   C84   S    
C62   H21   S    
C21   O26   S    
C95   H108  S    
O39   C91   S    
C16   C56   A    
C51   O39   S    
C56   O44   S    
C72   H45   S    
C11   C19   A    
C63   C64   S    
O9    V1    S    
C39   N7    S    
C62   H22   S    
O15   C7    A    
C68   H34   S    
C21   C29   A    
O16   C8    A    
O7    V2    S    
O41   C93   S    
C24   O27   S    
C84   H75   S    
C69   C70   S    
O12   C4    A    
O3    V4    S    
C28   O31   S    
C83   H73   S    
C17   C25   A    
C59   H13   S    
C70   H40   S    
C63   H24   S    
C70   H39   S    
C76   C77   S    
O5    V1    S    
C80   H63   S    
C68   H36   S    
C93   H102  S    
C43   H3    S    
C88   H87   S    
C82   H68   S    
O4    V3    S    
C58   H11   S    
C79   H60   S    
C94   H104  S    
C71   H41   S    
C34   N2    S    
C83   H72   S    
C60   C61   S    
C33   C41   A    
C76   H53   S    
C96   H111  S    
C78   C79   S    
C29   O34   S    
C94   H106  S    
C67   H33   S    
C25   O30   S    
C30   C38   A    
C65   H29   S    
C66   H31   S    
O42   C94   S    
N5    N6    D    
C13   C53   A    
N1    N2    D    
C47   C55   A    
C48   C56   A    
C76   H54   S    
C31   C39   A    
C92   H99   S    
C1    C16   S    
C26   C34   A    
C2    C15   S    
C82   H69   S    
C86   H80   S    
C88   H86   S    
O8    C5    A    
C3    C14   S    
C38   N6    S    
O10   V2    S    
C78   H58   S    
C30   O33   S    
O11   C3    A    
C95   H107  S    
C22   C30   A    
C32   C40   A    
O37   C89   S    
C74   H50   S    
O13   C5    A    
C90   H93   S    
C44   C52   A    
C87   H83   S    
C72   C73   S    
C59   H15   S    
C39   C47   A    
C37   N5    S    
C18   C26   A    
O4    C1    A    
C71   H42   S    
O1    C4    A    
O9    C1    A    
C86   H81   S    
C94   H105  S    
C10   C50   A    
C57   H9    S    
C78   H59   S    
C89   H90   S    
O14   C6    A    
C54   O42   S    
C84   H76   S    
C33   N1    S    
C18   O21   S    
C43   C51   A    
C81   H66   S    
O43   C95   S    
C57   C58   S    
C70   C71   S    
C63   H23   S    
C15   C23   A    
C58   H12   S    
C46   C54   A    
C37   C45   A    
C24   C32   A    
O33   C85   S    
C93   H101  S    
C73   H46   S    
C7    C10   S    
C65   H28   S    
C80   H64   S    
O6    V2    S    
O2    C3    A    
C85   H77   S    
O13   V3    S    
C75   C76   S    
O14   V4    S    
O44   C96   S    
C64   C65   S    
C66   H30   S    
O15   V4    S    
C96   H112  S    
C79   H61   S    
O23   C63   S    
C31   O36   S    
C73   C74   S    
C58   C59   S    
C89   H91   S    
C14   C54   A    
C61   H18   S    
C67   H32   S    
C57   H10   S    
C8    C9    S    
C20   O23   S    
C91   H97   S    
C52   O40   S    
C87   H85   S    
C9    C17   A    
C92   H100  S    
C81   H67   S    
C73   H47   S    
C59   H14   S    
C72   H44   S    
C82   H70   S    
O20   V2    S    
C22   O25   S    
O25   C69   S    
C49   O37   S    
C4    C13   S    
C36   N4    S    
C85   H79   S    
C20   C28   A    
O29   C81   S    
O5    C8    A    
C77   H56   S    
O10   C2    A    
O6    C7    A    
C77   H57   S    
C19   O24   S    
O40   C92   S    
C44   H4    S    
C91   H96   S    
O24   C66   S    
C90   H94   S    
C53   O41   S    
C40   C48   A    
O35   C87   S    
O38   C90   S    
C14   C22   A    
C79   C80   S    
C12   C20   A    
C27   O32   S    
O31   C83   S    
C48   H8    S    
C86   H82   S    
C27   C35   A    
O26   C72   S    
C36   C44   A    
C28   C36   A    
C89   H89   S    
C90   H92   S    
C55   O43   S    
C69   H37   S    
C81   H65   S    
C60   H16   S    
C26   O29   S    
C13   C21   A    
C40   N8    S    
C61   C62   S    
C69   H38   S    
C87   H84   S    
C15   C55   A    
C93   H103  S    
