data_mof_unit_1311.cif
_audit_creation_date              2013-03-05T16:10:28-0500
_audit_creation_method            fapswitch 2.2
_symmetry_space_group_name_H-M    P1
_symmetry_Int_Tables_number       1
_space_group_crystal_system       triclinic
_cell_length_a                    10.720563
_cell_length_b                    9.925637
_cell_length_c                    14.917572
_cell_angle_alpha                 90.494408
_cell_angle_beta                  90.931688
_cell_angle_gamma                 90.007305
_cell_volume                      1587.08621197

loop_
_atom_site_label
_atom_site_type_symbol
_atom_site_description
_atom_site_fract_x
_atom_site_fract_y
_atom_site_fract_z
_atom_type_partial_charge
O1    O     O_R   0.316770 0.614620 0.499990 -0.601320
O2    O     O_R   0.683230 0.385380 0.500010 -0.601328
O3    O     O_R   0.683230 0.614620 0.500010 -0.602950
O4    O     O_R   0.316770 0.385380 0.499990 -0.602952
C1    C     C_R   0.260131 0.499993 0.500225 0.886549
C2    C     C_R   0.739869 0.500007 0.499775 0.886544
O5    O     O_R   0.499980 0.614680 0.367850 -0.585007
O6    O     O_R   0.500020 0.385320 0.632150 -0.585012
O7    O     O_R   0.500020 0.614680 0.632150 -0.585602
O8    O     O_R   0.499980 0.385320 0.367850 -0.585600
C3    C     C_R   0.499558 0.499639 0.327101 0.889063
C4    C     C_R   0.500441 0.500360 0.672898 0.889064
Zn1   Zn    Zn3+2 0.500000 0.653120 0.500000 1.064628
Zn2   Zn    Zn3+2 0.500000 0.346880 0.500000 1.064626
C5    C     C_R   0.583593 0.582319 0.815265 -0.112681
C6    C     C_R   0.416395 0.417689 0.184736 -0.112680
C7    C     C_R   0.499549 0.500755 0.768367 -0.071470
C8    C     C_R   0.500447 0.499246 0.231633 -0.071462
C9    C     C_R   0.415547 0.418002 0.811933 -0.126131
C10   C     C_R   0.584446 0.582001 0.188066 -0.126142
C11   C     C_R   0.411380 0.419077 0.905101 0.004187
C12   C     C_R   0.588602 0.580937 0.094898 0.004183
C13   C     C_R   0.498757 0.500511 0.953314 0.035954
C14   C     C_R   0.501224 0.499504 0.046686 0.035958
C15   C     C_R   0.584287 0.582608 0.907922 0.062799
C16   C     C_R   0.415695 0.417406 0.092078 0.062797
C17   C     C_R   0.324756 0.339027 0.951336 0.301164
C18   C     C_R   0.675215 0.660999 0.048664 0.301177
C19   C     C_R   0.329294 0.337782 0.044742 -0.199215
C20   C     C_R   0.670681 0.662242 0.955258 -0.199217
H1    H     H_    0.650856 0.642031 0.779417 0.203485
H2    H     H_    0.349133 0.357977 0.220584 0.203481
H3    H     H_    0.354469 0.353482 0.772170 0.198919
H4    H     H_    0.645531 0.646514 0.227829 0.198910
H5    H     H_    0.262985 0.276769 0.080624 0.211143
H6    H     H_    0.736984 0.723264 0.919378 0.211137
C21   C     C_R   0.063797 0.377155 0.498702 -0.120458
C22   C     C_R   0.936202 0.622845 0.501300 -0.120461
C23   C     C_R   0.936082 0.377176 0.497843 -0.118055
C24   C     C_R   0.063918 0.622824 0.502159 -0.118054
H7    H     H_    0.111997 0.281281 0.497907 0.206127
H8    H     H_    0.888003 0.718719 0.502094 0.206128
H9    H     H_    0.887780 0.281326 0.495810 0.204260
H10   H     H_    0.112220 0.718673 0.504192 0.204260
C25   C     C_R   0.872468 0.500015 0.499493 -0.045045
C26   C     C_R   0.127532 0.499985 0.500508 -0.045044
C27   C     C_R   0.557337 0.072827 0.567874 0.209267
C28   C     C_R   0.442663 0.927172 0.432126 0.209272
C29   C     C_R   0.443059 0.070697 0.431960 0.225929
C30   C     C_R   0.556942 0.929303 0.568039 0.225939
N1    N     N_R   0.500000 0.857200 0.500000 -0.223848
N2    N     N_R   0.500000 0.142800 0.500000 -0.223846
N3    N     N_R   0.230036 0.261406 0.905226 0.216717
O9    O     O_R   0.156710 0.318840 0.846605 -0.356928
O10   O     O_R   0.201342 0.142027 0.933873 -0.298937
N4    N     N_R   0.769917 0.738643 0.094776 0.216712
O11   O     O_R   0.843285 0.681215 0.153371 -0.356911
O12   O     O_R   0.798540 0.858056 0.066158 -0.298930
N5    N     N_R   0.621989 0.144150 0.638020 0.266969
O13   O     O_R   0.575230 0.149539 0.717897 -0.312524
O14   O     O_R   0.736873 0.181324 0.626692 -0.357252
N6    N     N_R   0.378013 0.855847 0.361980 0.266968
O15   O     O_R   0.424770 0.850463 0.282102 -0.312519
O16   O     O_R   0.263136 0.818651 0.373312 -0.357260
N7    N     N_R   0.383281 0.139660 0.359585 0.253254
O17   O     O_R   0.271779 0.188285 0.369605 -0.383350
O18   O     O_R   0.428922 0.130092 0.279535 -0.339639
N8    N     N_R   0.616718 0.860339 0.640416 0.253259
O19   O     O_R   0.728221 0.811715 0.630394 -0.383345
O20   O     O_R   0.571078 0.869910 0.720464 -0.339655

loop_
_geom_bond_atom_site_label_1
_geom_bond_atom_site_label_2
_geom_bond_distance
_ccdc_geom_bond_type
C4    C7    1.424324 S    
O5    Zn1   2.004702 S    
C22   C24   1.369032 A    
C13   C14   1.392822 A    
C17   N3    1.437288 S    
C3    C8    1.424321 S    
C5    H1    1.084028 S    
C27   N2    1.370175 A    
C2    C25   1.421608 S    
C17   C19   1.393603 A    
C10   C12   1.391238 A    
C1    C26   1.421609 S    
C19   H5    1.084645 S    
C28   N6    1.428288 S    
O3    Zn1   2.001198 S    
C20   H6    1.084639 S    
O6    C4    1.288905 A    
C29   N2    1.371943 A    
C10   H4    1.082323 S    
O3    C2    1.289589 A    
C18   C20   1.393611 A    
C30   N1    1.371940 A    
C11   C17   1.414046 A    
N5    O13   1.300889 A    
C21   C23   1.369031 A    
O4    Zn2   2.001200 S    
C12   C18   1.414025 A    
N3    O9    1.301539 A    
C21   H7    1.082972 S    
C14   C16   1.411670 A    
N6    O15   1.300900 A    
C29   N7    1.426631 S    
C18   N4    1.437279 S    
O1    C1    1.289627 A    
N8    O20   1.300542 A    
C28   C29   1.424608 A    
C7    C9    1.391423 A    
N4    O12   1.301583 A    
C22   H8    1.082971 S    
C27   C30   1.424603 A    
C8    C10   1.391421 A    
N3    O10   1.301619 A    
C11   C13   1.419834 A    
C6    C16   1.382100 A    
O2    Zn2   2.001102 S    
O7    C4    1.291849 A    
C12   C14   1.419824 A    
N5    O14   1.299740 A    
C5    C15   1.382101 A    
O8    C3    1.291847 A    
C24   C26   1.397330 A    
C27   N5    1.428297 S    
C24   H10   1.083064 S    
C13   C15   1.411673 A    
O1    Zn1   2.001104 S    
N4    O11   1.301532 A    
C23   H9    1.083065 S    
C16   C19   1.396472 A    
C6    C8    1.387882 A    
N7    O17   1.299569 A    
O8    Zn2   2.011166 S    
C15   C20   1.396464 A    
C5    C7    1.387880 A    
O7    Zn1   2.011165 S    
C6    H2    1.084025 S    
C23   C25   1.397331 A    
O5    C3    1.288907 A    
N6    O16   1.299736 A    
N7    O18   1.300578 A    
O6    Zn2   2.004700 S    
C9    C11   1.391233 A    
C21   C26   1.397343 A    
Zn1   N1    2.025624 S    
C30   N8    1.426639 S    
N8    O19   1.299583 A    
C28   N1    1.370179 A    
Zn2   N2    2.025624 S    
O2    C2    1.289626 A    
C9    H3    1.082327 S    
O4    C1    1.289587 A    
C22   C25   1.397343 A    
