data_mof_unit_4811.cif
_audit_creation_date              2012-12-10T17:36:49-0500
_audit_creation_method            fapswitch 2.2
_symmetry_space_group_name_H-M    P1
_symmetry_Int_Tables_number       1
_space_group_crystal_system       triclinic
_cell_length_a                    10.62873
_cell_length_b                    12.364173
_cell_length_c                    13.098945
_cell_angle_alpha                 117.001126
_cell_angle_beta                  77.858552
_cell_angle_gamma                 101.524777
_cell_volume                      1488.67011273

loop_
_atom_site_label
_atom_site_type_symbol
_atom_type_description
_atom_site_fract_x
_atom_site_fract_y
_atom_site_fract_z
_atom_type_partial_charge
C1    C     C_R   0.519016 0.854701 0.285480 0.929045
C2    C     C_3   0.015029 0.895531 0.496629 0.405043
C3    C     C_3   0.961023 0.913887 0.406462 0.339611
C4    C     C_3   0.876359 0.004582 0.504390 -0.197894
C5    C     C_R   0.287898 0.291239 0.005550 0.413140
C6    C     C_R   0.448493 0.229109 0.835185 -0.134501
C7    C     C_R   0.640977 0.807416 0.088174 0.084845
C8    C     C_R   0.665556 0.728474 0.970420 0.364845
C9    C     C_R   0.598307 0.610149 0.926191 0.083194
C10   C     C_R   0.508217 0.568846 0.002098 0.033382
C11   C     C_R   0.463286 0.657788 0.112721 -0.101950
C12   C     C_R   0.739831 0.001747 0.502387 0.867440
C13   C     C_R   0.455054 0.444195 0.970569 0.078664
C14   C     C_R   0.343349 0.414324 0.038900 -0.038678
C15   C     C_R   0.285490 0.508486 0.134997 -0.147379
C16   C     C_R   0.342089 0.628875 0.169735 0.381596
C17   C     C_R   0.511591 0.347873 0.874607 -0.155869
C18   C     C_R   0.338972 0.200167 0.902415 -0.209941
C19   C     C_R   0.537833 0.773698 0.159871 -0.105205
C20   C     C_R   0.705166 0.340571 0.322029 0.080029
C21   C     C_R   0.325903 0.758084 0.647149 0.411349
C22   C     C_R   0.290386 0.660375 0.677482 -0.247607
C23   C     C_R   0.480848 0.145362 0.713849 0.794035
C24   C     C_R   0.356314 0.558019 0.621046 -0.183055
C25   C     C_R   0.459650 0.550279 0.531825 0.006239
C26   C     C_R   0.493109 0.652130 0.503127 0.187649
C27   C     C_R   0.530849 0.445547 0.470814 -0.112895
C28   C     C_R   0.631453 0.441589 0.378313 0.064698
C29   C     C_R   0.655369 0.539115 0.346247 0.387817
C30   C     C_R   0.594102 0.643867 0.412568 -0.215949
C31   C     C_R   0.504948 0.343034 0.497265 0.088912
C32   C     C_R   0.673564 0.244180 0.353829 0.017724
C33   C     C_R   0.259455 0.001363 0.502093 0.913272
C34   C     C_3   0.981959 0.112265 0.511822 -0.210557
C35   C     C_3   0.067818 0.020013 0.413985 0.370514
C36   C     C_3   0.122162 0.001645 0.503669 -0.196759
C37   C     C_3   0.037569 0.093968 0.602638 -0.277071
C38   C     C_3   0.929054 0.986998 0.595677 -0.221744
Cu1   Cu    Cu3+1 0.529830 0.098270 0.475420 0.996389
Cu2   Cu    Cu3+1 0.470170 0.901730 0.524580 1.015973
H1    H     H_    0.604076 0.362546 0.827007 0.184080
H2    H     H_    0.728613 0.166807 0.311133 0.158125
H3    H     H_    0.429330 0.337367 0.564210 0.130015
H4    H     H_    0.966103 0.201042 0.517556 0.192879
H5    H     H_    0.323416 0.486451 0.649186 0.151543
H6    H     H_    0.211120 0.664193 0.745823 0.179207
H7    H     H_    0.628356 0.716719 0.388174 0.236867
H8    H     H_    0.071598 0.167768 0.683263 0.187875
H9    H     H_    0.869430 0.973338 0.670327 0.207473
H10   H     H_    0.288897 0.108410 0.872044 0.187424
H11   H     H_    0.193265 0.490210 0.181762 0.243816
N1    N     N_R   0.575030 0.246270 0.438190 -0.195057
N2    N     N_R   0.425760 0.754330 0.561190 -0.183741
O1    O     O_R   0.537510 0.972500 0.318130 -0.544094
O2    O     O_R   0.487140 0.806530 0.359650 -0.589797
O3    O     O_R   0.708330 0.082950 0.479220 -0.586852
O4    O     O_R   0.657960 0.916980 0.520740 -0.598152
O5    O     O_R   0.512860 0.193470 0.640350 -0.592497
O6    O     O_R   0.462490 0.027500 0.681870 -0.564812
O7    O     O_R   0.342040 0.083020 0.479260 -0.566056
O8    O     O_R   0.291670 0.917050 0.520780 -0.515390
Cl1   Cl    Cl    0.160174 0.042614 0.293284 -0.470145
N3    N     N_3   0.720599 0.922382 0.135456 -0.547350
H12   H     H_    0.817021 0.905754 0.120297 0.298490
H13   H     H_    0.712950 0.974244 0.092883 0.256432
N4    N     N_3   0.609460 0.538834 0.803091 -0.595001
H14   H     H_    0.706556 0.525055 0.770892 0.265482
H15   H     H_    0.580976 0.587898 0.766207 0.258889
Cl2   Cl    Cl    0.783087 0.777572 0.877767 -0.619443
Cl3   Cl    Cl    0.241003 0.740980 0.263299 -0.510997
Cl4   Cl    Cl    0.750897 0.532676 0.216262 -0.483917
N5    N     N_3   0.815780 0.336409 0.236790 -0.459074
H16   H     H_    0.800825 0.256878 0.161088 0.249261
H17   H     H_    0.896749 0.330490 0.266777 0.270150
N6    N     N_3   0.257241 0.862749 0.707941 -0.520599
H18   H     H_    0.263486 0.895860 0.795869 0.205901
H19   H     H_    0.159492 0.834178 0.697557 0.258369
Cl5   Cl    Cl    0.026515 0.750823 0.490787 -0.493513
Cl6   Cl    Cl    0.911091 0.801244 0.273176 -0.461000
Cl7   Cl    Cl    0.149767 0.247218 0.085984 -0.583142

loop_
_geom_bond_atom_site_label_1
_geom_bond_atom_site_label_2
_ccdc_geom_bond_type
C23   O5    A    
N4    H15   S    
N3    H13   S    
C34   C37   S    
C35   C36   S    
C31   N1    A    
N6    H18   S    
C3    Cl6   S    
C7    C8    A    
C38   H9    S    
C23   O6    A    
C11   C19   A    
C8    Cl2   S    
C29   C30   A    
C31   H3    S    
C24   H5    S    
C36   C37   S    
Cu1   O1    S    
Cu1   O7    S    
C15   C16   A    
C33   C36   S    
C34   C35   S    
C9    N4    S    
C32   N1    A    
C8    C9    A    
C15   H11   S    
C4    C12   S    
C9    C10   A    
N4    H14   S    
Cu2   O6    S    
C13   C14   A    
C6    C18   A    
C4    C34   S    
C1    C19   S    
C27   C31   A    
C30   H7    S    
C16   Cl3   S    
C24   C25   A    
N5    H17   S    
Cu1   Cu2   S    
C5    C18   A    
C20   C28   A    
C25   C26   A    
Cu1   O5    S    
Cu2   O8    S    
C5    Cl7   S    
C1    O1    A    
C37   C38   S    
C2    Cl5   S    
C11   C16   A    
C2    C38   S    
Cu1   O3    S    
C3    C35   S    
Cu2   O2    S    
C34   H4    S    
C37   H8    S    
N6    H19   S    
C7    N3    S    
C5    C14   A    
C12   O3    A    
C12   O4    A    
C22   H6    S    
C4    C38   S    
C26   C30   A    
C33   O7    A    
C7    C19   A    
C22   C24   A    
C3    C4    S    
C26   N2    A    
C18   H10   S    
C20   C32   A    
C2    C36   S    
C6    C17   A    
C28   C29   A    
Cu2   O4    S    
N5    H16   S    
C10   C13   A    
C25   C27   A    
C21   N6    S    
C13   C17   A    
C2    C3    S    
C1    O2    A    
C21   N2    A    
C6    C23   S    
Cu1   N1    S    
C35   Cl1   S    
C17   H1    S    
C10   C11   A    
N3    H12   S    
C33   O8    A    
Cu2   N2    S    
C27   C28   A    
C32   H2    S    
C14   C15   A    
C20   N5    S    
C21   C22   A    
C29   Cl4   S    
