data_mof_unit_2279.cif
_audit_creation_date              2012-12-10T16:37:24-0500
_audit_creation_method            fapswitch 2.2
_symmetry_space_group_name_H-M    P1
_symmetry_Int_Tables_number       1
_space_group_crystal_system       triclinic
_cell_length_a                    16.90661
_cell_length_b                    16.931919
_cell_length_c                    16.755345
_cell_angle_alpha                 65.952373
_cell_angle_beta                  65.789364
_cell_angle_gamma                 66.619361
_cell_volume                      3839.89219195

loop_
_atom_site_label
_atom_site_type_symbol
_atom_type_description
_atom_site_fract_x
_atom_site_fract_y
_atom_site_fract_z
_atom_type_partial_charge
C1    C     C_R   0.399835 0.097706 0.640613 0.409235
C2    C     C_R   0.400863 0.665866 0.053086 0.492982
C3    C     C_R   0.260399 0.734477 0.281959 -0.110088
C4    C     C_R   0.311055 0.709140 0.340893 -0.166196
C5    C     C_R   0.330040 0.774650 0.355182 -0.188356
C6    C     C_R   0.133970 0.704507 0.698330 0.140712
C7    C     C_R   0.227403 0.683956 0.654773 -0.194878
C8    C     C_R   0.282189 0.717870 0.668786 -0.138272
C9    C     C_R   0.244197 0.772734 0.726221 -0.103244
C10   C     C_R   0.151537 0.792646 0.770908 -0.182865
C11   C     C_R   0.096442 0.758935 0.757025 -0.026374
C12   C     C_R   0.884511 0.284870 0.287614 0.166028
C13   C     C_R   0.941502 0.597194 0.340988 0.416315
C14   C     C_R   0.790699 0.300615 0.314846 -0.237876
C15   C     C_R   0.752915 0.264260 0.282472 -0.122773
C16   C     C_R   0.808524 0.212900 0.221897 -0.078607
C17   C     C_R   0.901875 0.195749 0.195375 -0.227010
C18   C     C_R   0.939954 0.230751 0.228562 0.014407
C19   C     C_R   0.720383 0.720540 0.102434 0.182386
C20   C     C_R   0.776866 0.776183 0.038614 0.015586
C21   C     C_R   0.820221 0.809039 0.068306 -0.187438
C22   C     C_R   0.807639 0.787169 0.161539 -0.097055
C23   C     C_R   0.750362 0.733681 0.225484 -0.178956
C24   C     C_R   0.041774 0.404782 0.666004 0.487426
C25   C     C_R   0.707099 0.700153 0.196114 -0.214329
C26   C     C_R   0.286249 0.284761 0.896854 0.179561
C27   C     C_R   0.229707 0.227012 0.950390 0.021849
C28   C     C_R   0.196557 0.195748 0.908779 -0.219127
C29   C     C_R   0.217446 0.223320 0.813857 -0.090598
C30   C     C_R   0.270416 0.283316 0.760163 -0.127957
C31   C     C_R   0.305226 0.313610 0.801449 -0.231993
C32   C     C_R   0.961992 0.179073 0.438067 0.888732
C33   C     C_R   0.036411 0.820671 0.562572 0.932975
C34   C     C_R   0.179233 0.437566 0.964186 0.897441
C35   C     C_R   0.820550 0.562707 0.037169 0.892236
C36   C     C_R   0.438057 0.962017 0.179637 0.892585
C37   C     C_R   0.562009 0.039202 0.820309 0.923712
C38   C     C_R   0.562045 0.821315 0.037717 0.902277
C39   C     C_R   0.594568 0.945485 0.346454 0.504578
C40   C     C_R   0.432292 0.177050 0.976298 0.903165
C41   C     C_R   0.038310 0.562131 0.820354 0.905842
C42   C     C_R   0.961467 0.437886 0.179477 0.897455
C43   C     C_R   0.821158 0.038767 0.561748 0.912818
C44   C     C_R   0.177049 0.976753 0.431616 0.920055
C45   C     C_R   0.446730 0.091015 0.696213 -0.188134
C46   C     C_R   0.549878 0.931275 0.300851 -0.314380
C47   C     C_R   0.055797 0.708896 0.447857 -0.179179
C48   C     C_R   0.931519 0.292581 0.555065 -0.306419
C49   C     C_R   0.696650 0.449085 0.086085 -0.190265
C50   C     C_R   0.041494 0.664259 0.403138 0.404891
C51   C     C_R   0.297708 0.549233 0.937971 -0.311006
C52   C     C_R   0.263499 0.046648 0.502809 -0.181342
C53   C     C_R   0.712490 0.060393 0.446005 -0.315359
C54   C     C_R   0.511369 0.268024 0.033258 -0.184619
C55   C     C_R   0.446617 0.708084 0.070027 -0.309128
C56   C     C_R   0.929151 0.551597 0.295867 -0.188543
C57   C     C_R   0.061793 0.449342 0.706866 -0.313384
C58   C     C_R   0.539423 0.041424 0.534555 -0.100071
C59   C     C_R   0.450204 0.007883 0.445825 -0.101599
C60   C     C_R   0.018145 0.542683 0.543415 -0.098011
C61   C     C_R   0.945923 0.336839 0.600961 0.505908
C62   C     C_R   0.969477 0.458561 0.461274 -0.103094
C63   C     C_R   0.534832 0.540849 0.040753 -0.102547
C64   C     C_R   0.446862 0.452395 0.005078 -0.102526
C65   C     C_R   0.586836 0.021571 0.450153 0.048004
C66   C     C_R   0.399834 0.037524 0.525424 -0.071268
C67   C     C_R   0.009413 0.453819 0.588922 0.044298
C68   C     C_R   0.975992 0.547999 0.417039 -0.061164
C69   C     C_R   0.448847 0.586265 0.026566 0.047038
C70   C     C_R   0.528780 0.404317 0.028567 -0.068471
C71   C     C_R   0.544693 0.993449 0.412256 0.047123
C72   C     C_R   0.642908 0.402001 0.089980 0.416070
C73   C     C_R   0.444996 0.056131 0.569088 -0.059325
C74   C     C_R   0.409968 0.545187 0.997790 0.045364
C75   C     C_R   0.571015 0.448159 0.049987 -0.061090
C76   C     C_R   0.977868 0.414403 0.550668 0.043534
C77   C     C_R   0.009166 0.586721 0.454192 -0.063737
C78   C     C_R   0.541405 0.064970 0.669033 -0.011593
C79   C     C_R   0.455460 0.956629 0.324919 0.029362
C80   C     C_R   0.047354 0.675066 0.542178 -0.015185
C81   C     C_R   0.943498 0.325801 0.460161 0.024530
C82   C     C_R   0.669526 0.543408 0.062087 -0.011019
C83   C     C_R   0.340251 0.594715 0.955269 0.501884
C84   C     C_R   0.324217 0.454920 0.959099 0.033730
C85   C     C_R   0.311940 0.005955 0.431521 -0.025925
C86   C     C_R   0.675951 0.055744 0.539670 0.027085
C87   C     C_R   0.435767 0.313931 0.999679 -0.017965
C88   C     C_R   0.540429 0.674915 0.058378 0.028810
C89   C     C_R   0.942130 0.457756 0.328398 -0.014009
C90   C     C_R   0.051102 0.542748 0.673426 0.029534
C91   C     C_R   0.591711 0.064843 0.719758 -0.162843
C92   C     C_R   0.408540 0.943802 0.279026 -0.147133
C93   C     C_R   0.057345 0.721913 0.590963 -0.153416
C94   C     C_R   0.306122 0.045072 0.558679 0.413542
C95   C     C_R   0.938363 0.277746 0.409645 -0.141628
C96   C     C_R   0.721073 0.593779 0.060581 -0.158065
C97   C     C_R   0.277295 0.406840 0.948847 -0.146957
C98   C     C_R   0.271340 0.973517 0.394774 -0.140747
C99   C     C_R   0.722868 0.062744 0.589987 -0.148731
C100  C     C_R   0.395748 0.271482 0.972822 -0.139752
C101  C     C_R   0.591667 0.723321 0.060880 -0.145550
C102  C     C_R   0.937301 0.408216 0.279461 -0.157523
C103  C     C_R   0.060911 0.591184 0.720327 -0.150684
C104  C     C_R   0.676582 0.079132 0.674590 -0.103090
C105  C     C_R   0.671086 0.040477 0.402083 0.490590
C106  C     C_R   0.323226 0.933808 0.324589 -0.111367
C107  C     C_R   0.076922 0.675128 0.673573 -0.108168
C108  C     C_R   0.923577 0.323010 0.324602 -0.114806
C109  C     C_R   0.677980 0.679715 0.071647 -0.118156
C110  C     C_R   0.320425 0.320710 0.940962 -0.128822
C111  C     C_R   0.585967 0.053166 0.581401 0.057967
C112  C     C_R   0.406101 0.989258 0.401450 0.053909
C113  C     C_R   0.038655 0.586924 0.586417 0.054895
C114  C     C_R   0.951717 0.413970 0.416632 0.055142
C115  C     C_R   0.581967 0.586867 0.052737 0.059324
C116  C     C_R   0.565778 0.313606 0.028266 0.408279
C117  C     C_R   0.402907 0.407416 0.986709 0.054836
C118  C     C_R   0.704822 0.132240 0.705507 0.145182
C119  C     C_R   0.760605 0.090799 0.763105 -0.028007
C120  C     C_R   0.775775 0.142118 0.800208 -0.189415
C121  C     C_R   0.735622 0.234917 0.780207 -0.088151
C122  C     C_R   0.681982 0.276911 0.721406 -0.136593
C123  C     C_R   0.666490 0.225876 0.684301 -0.199420
C124  C     C_R   0.298487 0.866181 0.310457 0.147947
C125  C     C_R   0.247087 0.891161 0.251588 -0.043874
C126  C     C_R   0.227754 0.825455 0.237973 -0.193817
H1    H     H_    0.409230 0.119212 0.752942 0.194452
H2    H     H_    0.406172 0.763372 0.098717 0.180857
H3    H     H_    0.901623 0.592319 0.239397 0.202832
H4    H     H_    0.092899 0.408065 0.760794 0.182215
H5    H     H_    0.305439 0.185056 0.588271 0.354361
H6    H     H_    0.711383 0.881267 0.281794 0.331977
H7    H     H_    0.088984 0.641917 0.285533 0.352571
H8    H     H_    0.909568 0.250687 0.719187 0.330227
H9    H     H_    0.595784 0.301165 0.173161 0.348510
H10   H     H_    0.266319 0.711752 0.901786 0.327522
H11   H     H_    0.293819 0.001040 0.687580 0.345992
H12   H     H_    0.589270 0.893828 0.251429 0.173098
H13   H     H_    0.772164 0.044235 0.291322 0.328284
H14   H     H_    0.691174 0.312305 0.977258 0.345197
H15   H     H_    0.285659 0.754238 0.084860 0.327698
H16   H     H_    0.891091 0.711530 0.367084 0.356593
H17   H     H_    0.061060 0.291392 0.759718 0.328821
H18   H     H_    0.789185 0.018480 0.782223 0.131411
H19   H     H_    0.817413 0.109717 0.845737 0.132710
H20   H     H_    0.746089 0.274353 0.810247 0.166917
H21   H     H_    0.651212 0.348840 0.705727 0.139611
H22   H     H_    0.622624 0.258954 0.640881 0.132706
H23   H     H_    0.082801 0.765490 0.404643 0.208425
H24   H     H_    0.221841 0.961366 0.216643 0.132568
H25   H     H_    0.187617 0.845101 0.193139 0.150791
H26   H     H_    0.246121 0.683578 0.270752 0.186109
H27   H     H_    0.335825 0.638709 0.375325 0.137189
H28   H     H_    0.369822 0.754124 0.400695 0.133637
H29   H     H_    0.257451 0.643217 0.608350 0.131974
H30   H     H_    0.353952 0.702556 0.634165 0.136222
H31   H     H_    0.286562 0.800030 0.735877 0.154216
H32   H     H_    0.122182 0.835358 0.815227 0.131173
H33   H     H_    0.024310 0.777745 0.789429 0.131415
H34   H     H_    0.903133 0.236404 0.596228 0.180918
H35   H     H_    0.747049 0.340654 0.361350 0.136814
H36   H     H_    0.680497 0.276099 0.304216 0.173620
H37   H     H_    0.779628 0.186001 0.195328 0.221443
H38   H     H_    0.944732 0.155183 0.149289 0.122696
H39   H     H_    0.012733 0.216102 0.208320 0.120787
H40   H     H_    0.788414 0.792176 0.965881 0.114249
H41   H     H_    0.864225 0.850717 0.018995 0.114344
H42   H     H_    0.842336 0.812066 0.183960 0.195281
H43   H     H_    0.740425 0.717152 0.297873 0.176028
H44   H     H_    0.664223 0.657506 0.246112 0.133217
H45   H     H_    0.752656 0.410875 0.114184 0.196791
H46   H     H_    0.212034 0.206242 0.024397 0.110370
H47   H     H_    0.154524 0.150350 0.950105 0.119652
H48   H     H_    0.192352 0.197675 0.782406 0.219264
H49   H     H_    0.284962 0.305992 0.686514 0.177572
H50   H     H_    0.346477 0.359711 0.759369 0.133455
H51   H     H_    0.247653 0.589082 0.901949 0.174713
H52   H     H_    0.191432 0.074271 0.522830 0.208275
H53   H     H_    0.770015 0.086048 0.402996 0.188225
H54   H     H_    0.535075 0.196444 0.059989 0.213025
O1    O     O_R   0.982940 0.138950 0.510160 -0.640222
O2    O     O_R   0.982940 0.510160 0.138950 -0.624477
O3    O     O_R   0.861050 0.017060 0.489840 -0.628878
O4    O     O_R   0.138950 0.982940 0.510160 -0.631782
O5    O     O_R   0.867700 0.025880 0.612340 -0.640947
O6    O     O_R   0.132300 0.974120 0.387660 -0.637331
O7    O     O_R   0.025880 0.612340 0.867700 -0.637655
O8    O     O_R   0.974120 0.387660 0.132300 -0.633583
O9    O     O_R   0.612340 0.867700 0.025880 -0.636179
O10   O     O_R   0.387660 0.132300 0.974120 -0.637895
O11   O     O_R   0.387660 0.974120 0.132300 -0.640257
O12   O     O_R   0.017060 0.861050 0.489840 -0.632081
O13   O     O_R   0.612340 0.025880 0.867700 -0.619703
O14   O     O_R   0.132300 0.387660 0.974120 -0.631261
O15   O     O_R   0.867700 0.612340 0.025880 -0.627486
O16   O     O_R   0.974120 0.132300 0.387660 -0.638570
O17   O     O_R   0.025880 0.867700 0.612340 -0.619962
O18   O     O_3   0.314669 0.156229 0.649685 -0.765763
O19   O     O_3   0.685377 0.903774 0.335577 -0.740149
O20   O     O_3   0.067783 0.694307 0.308782 -0.745754
O21   O     O_3   0.918163 0.311637 0.695438 -0.749151
O22   O     O_3   0.655379 0.313917 0.143601 -0.764226
O23   O     O_R   0.138950 0.510160 0.982940 -0.623915
O24   O     O_3   0.321128 0.687371 0.921863 -0.738798
O25   O     O_3   0.254644 0.041953 0.647861 -0.727882
O26   O     O_3   0.706642 0.051321 0.309195 -0.736359
O27   O     O_3   0.655899 0.268012 0.016811 -0.731303
O28   O     O_3   0.307892 0.694757 0.074005 -0.735686
O29   O     O_3   0.911840 0.689818 0.313192 -0.758932
O30   O     O_3   0.064678 0.312117 0.694165 -0.725472
O31   O     O_R   0.861050 0.489840 0.017060 -0.622847
O32   O     O_R   0.510160 0.982940 0.138950 -0.630002
O33   O     O_R   0.489840 0.017060 0.861050 -0.622529
O34   O     O_R   0.489840 0.861050 0.017060 -0.626346
O35   O     O_R   0.510160 0.138950 0.982940 -0.632787
O36   O     O_R   0.017060 0.489840 0.861050 -0.624096
Zn1   Zn    Zn3+2 0.004880 0.004880 0.583590 0.953098
Zn2   Zn    Zn3+2 0.995120 0.995120 0.416410 0.946435
Zn3   Zn    Zn3+2 0.004880 0.583590 0.004880 0.956554
Zn4   Zn    Zn3+2 0.995120 0.416410 0.995120 0.950635
Zn5   Zn    Zn3+2 0.583590 0.004880 0.004880 0.963803
Zn6   Zn    Zn3+2 0.416410 0.995120 0.995120 0.942651

loop_
_geom_bond_atom_site_label_1
_geom_bond_atom_site_label_2
_ccdc_geom_bond_type
C25   H44   S    
C50   C77   A    
C100  C110  A    
C89   C102  A    
C36   O11   A    
C15   H36   S    
C19   C20   A    
O12   Zn2   S    
C91   C104  A    
C32   O16   A    
C85   C112  A    
C46   H12   S    
O15   Zn3   S    
C88   C101  A    
C3    C126  A    
C11   H33   S    
C7    C8    A    
H11   O25   S    
C35   C96   S    
C42   O2    A    
O31   Zn4   S    
C48   H34   S    
C5    C124  A    
C3    H26   S    
O5    Zn1   S    
C79   C112  A    
C33   O12   A    
C84   C97   A    
C28   C29   A    
H13   O26   S    
C43   C99   S    
C82   C115  A    
C87   C117  A    
C38   C101  S    
C2    C55   A    
O10   Zn6   S    
C59   C66   A    
C63   C69   A    
C54   C87   A    
C81   C95   A    
O9    Zn5   S    
C28   H47   S    
C43   O5    A    
C101  C109  A    
C15   C16   A    
O35   Zn5   S    
C34   C97   S    
C48   C81   A    
C41   O7    A    
C126  H25   S    
C90   C113  A    
C37   O33   A    
C55   C88   A    
C35   O31   A    
C118  C119  A    
C39   O19   S    
C85   C98   A    
O34   Zn6   S    
C24   C67   A    
C61   O21   S    
C44   C98   S    
C45   H1    S    
C46   C79   A    
C1    O18   S    
C60   C67   A    
C24   C57   A    
C49   C72   A    
C54   C116  A    
C81   C114  A    
C6    C107  S    
C102  C108  A    
C53   C86   A    
C64   C70   A    
H17   O30   S    
C2    C69   A    
C9    C10   A    
C44   O4    A    
C45   C78   A    
C56   H3    S    
C35   O15   A    
C66   C94   A    
C13   C56   A    
C22   H42   S    
C36   C92   S    
O13   Zn5   S    
C99   C104  A    
O2    Zn3   S    
C61   C76   A    
C21   C22   A    
C119  H18   S    
C62   C76   A    
C60   C113  A    
C94   O25   S    
C47   C80   A    
C38   O34   A    
C72   C75   A    
O17   Zn1   S    
C53   H53   S    
C65   C105  A    
C18   H39   S    
C17   C18   A    
H9    O22   S    
C104  C118  S    
O32   Zn5   S    
C19   C109  S    
C16   H37   S    
C60   C77   A    
C82   C96   A    
C57   C90   A    
C37   C91   S    
C58   C111  A    
C74   C83   A    
C47   H23   S    
C32   O1    A    
C105  O26   S    
H5    O18   S    
C52   C85   A    
C95   C108  A    
C120  H19   S    
C6    C11   A    
C12   C108  S    
C41   O36   A    
C24   O30   S    
C8    C9    A    
O7    Zn3   S    
C70   C116  A    
C65   C71   A    
C66   C73   A    
H6    O19   S    
C64   C117  A    
C41   C103  S    
C37   O13   A    
C49   C82   A    
C29   C30   A    
C17   H38   S    
C13   O29   S    
O6    Zn2   S    
O33   Zn6   S    
C57   H4    S    
C58   C65   A    
C23   H43   S    
C33   O17   A    
O8    Zn4   S    
C38   O9    A    
C20   C21   A    
C59   C112  A    
C26   C27   A    
C55   H2    S    
C7    H29   S    
C69   C74   A    
C122  H21   S    
C80   C113  A    
C52   C94   A    
C86   C99   A    
O11   Zn6   S    
C79   C92   A    
C78   C111  A    
C36   O32   A    
C39   C46   A    
C64   C74   A    
C92   C106  A    
C56   C89   A    
C12   C14   A    
H7    O20   S    
C10   C11   A    
C44   O6    A    
O1    Zn1   S    
C125  C126  A    
C34   O23   A    
C2    O28   S    
C106  C124  S    
C31   H50   S    
H14   O27   S    
C51   C83   A    
C30   H49   S    
H10   O24   S    
C120  C121  A    
C63   C75   A    
H8    O21   S    
C72   O22   S    
C87   C100  A    
C42   O8    A    
C68   C77   A    
C26   C110  S    
C89   C114  A    
O4    Zn1   S    
C50   O20   S    
C121  H20   S    
C22   C23   A    
O14   Zn4   S    
O36   Zn4   S    
C83   O24   S    
C33   C93   S    
C5    H28   S    
C40   C100  S    
O16   Zn2   S    
C119  C120  A    
C121  C122  A    
C62   C114  A    
C6    C7    A    
C62   C68   A    
C78   C91   A    
O3    Zn2   S    
C20   H40   S    
C96   C109  A    
C47   C50   A    
C21   H41   S    
O23   Zn3   S    
C1    C73   A    
C9    H31   S    
C14   H35   S    
C86   C111  A    
C122  C123  A    
H15   O28   S    
C63   C115  A    
C93   C107  A    
C97   C110  A    
C30   C31   A    
C1    C45   A    
C48   C61   A    
C16   C17   A    
C98   C106  A    
C88   C115  A    
C4    C5    A    
C51   C84   A    
C40   O35   A    
C43   O3    A    
C54   H54   S    
C4    H27   S    
C118  C123  A    
C23   C25   A    
C8    H30   S    
C52   H52   S    
C90   C103  A    
C116  O27   S    
C125  H24   S    
C84   C117  A    
C19   C25   A    
C49   H45   S    
C53   C105  A    
C10   H32   S    
C26   C31   A    
C32   C95   S    
C40   O10   A    
C123  H22   S    
C42   C102  S    
C34   O14   A    
C12   C18   A    
C70   C75   A    
C39   C71   A    
C14   C15   A    
C103  C107  A    
C67   C76   A    
H16   O29   S    
C80   C93   A    
C51   H51   S    
C27   H46   S    
C29   H48   S    
C3    C4    A    
C58   C73   A    
C59   C71   A    
C124  C125  A    
C27   C28   A    
C13   C68   A    
