data_mof_unit_292.cif
_audit_creation_date              2012-12-11T15:45:14-0500
_audit_creation_method            fapswitch 2.2
_symmetry_space_group_name_H-M    P1
_symmetry_Int_Tables_number       1
_space_group_crystal_system       triclinic
_cell_length_a                    8.224986
_cell_length_b                    19.038647
_cell_length_c                    23.010123
_cell_angle_alpha                 95.365612
_cell_angle_beta                  90.135917
_cell_angle_gamma                 94.492115
_cell_volume                      3576.23598802

loop_
_atom_site_label
_atom_site_type_symbol
_atom_type_description
_atom_site_fract_x
_atom_site_fract_y
_atom_site_fract_z
_atom_type_partial_charge
Ba1   Ba    Ba6+2 0.850680 0.532880 0.472010 1.639161
Ba2   Ba    Ba6+2 0.339140 0.467180 0.527990 1.630400
C1    C     C_3   0.643425 0.793323 0.321686 -0.363311
C2    C     C_3   0.632045 0.719688 0.342619 0.363619
C3    C     C_3   0.498390 0.365131 0.351952 0.296759
C4    C     C_3   0.482212 0.345589 0.286457 -0.365070
C5    C     C_3   0.086740 0.314148 0.689343 0.334745
C6    C     C_3   0.111776 0.293079 0.750636 -0.339020
C7    C     C_3   0.560388 0.275799 0.653982 0.375232
C8    C     C_3   0.539820 0.202253 0.674264 -0.360685
C9    C     C_R   0.340474 0.519683 0.332383 -0.303621
C10   C     C_R   0.028337 0.569991 0.949396 -0.022137
C11   C     C_R   0.968482 0.567571 0.891354 0.570974
C12   C     C_3   0.105552 0.692068 0.311694 0.321677
C13   C     C_R   0.935385 0.441253 0.885534 0.579908
C14   C     C_R   0.968664 0.442659 0.946013 -0.016146
C15   C     C_R   0.025925 0.506974 0.977090 -0.051680
C16   C     C_R   0.095624 0.633362 0.979792 -0.076897
C17   C     C_R   0.161338 0.633593 0.036130 -0.072043
C18   C     C_R   0.152736 0.571393 0.065264 -0.018457
C19   C     C_R   0.080709 0.508175 0.036009 -0.053811
C20   C     C_R   0.949932 0.380900 0.975878 -0.074154
C21   C     C_R   0.995453 0.382727 0.034658 -0.074631
C22   C     C_R   0.066368 0.445848 0.064909 -0.024929
C23   C     C_3   0.075470 0.716955 0.252222 -0.340066
C24   C     C_R   0.122741 0.447821 0.123317 0.590749
C25   C     C_R   0.215308 0.570931 0.122624 0.575680
C26   C     C_2   0.783914 0.460918 0.770821 -0.081383
C27   C     C_3   0.772979 0.434811 0.707436 -0.054286
C28   C     C_1   0.006696 0.520457 0.691270 0.059923
C29   C     C_2   0.040449 0.532645 0.749986 -0.024936
C30   C     C_2   0.918701 0.499364 0.793196 0.196627
C31   C     C_R   0.402946 0.541822 0.232434 -0.100060
C32   C     C_R   0.448299 0.545909 0.291637 -0.018224
C33   C     C_R   0.189530 0.486531 0.315088 0.030377
C34   C     C_3   0.201728 0.680663 0.591189 0.309375
C35   C     C_R   0.140932 0.483473 0.255950 -0.094909
C36   C     C_R   0.246521 0.511853 0.213607 0.198923
C37   C     C_2   0.878190 0.479265 0.669386 -0.308423
C38   C     C_R   0.398787 0.700601 0.471736 -0.288712
C39   C     C_R   0.539921 0.723625 0.503578 0.064624
C40   C     C_R   0.593310 0.795670 0.509649 -0.124716
C41   C     C_R   0.502360 0.845487 0.485046 -0.018960
C42   C     C_R   0.354469 0.821533 0.455609 -0.138080
C43   C     C_R   0.302174 0.749286 0.450116 0.012714
C44   C     C_R   0.540047 0.965153 0.446701 -0.076726
C45   C     C_3   0.216032 0.760692 0.603920 -0.392580
C46   C     C_R   0.591066 0.037333 0.453672 -0.075858
C47   C     C_R   0.659982 0.068829 0.506809 0.059629
C48   C     C_R   0.678822 0.025945 0.552513 -0.077966
C49   C     C_R   0.628031 0.953630 0.545495 -0.074509
C50   C     C_R   0.557533 0.922339 0.492519 0.063044
C51   C     C_R   0.854265 0.172990 0.544494 -0.135104
C52   C     C_R   0.899853 0.245993 0.549648 0.018303
C53   C     C_R   0.659251 0.266567 0.495323 0.035289
C54   C     C_R   0.612130 0.194100 0.489833 -0.120261
C55   C     C_R   0.708480 0.146288 0.514663 -0.011125
C56   C     C_3   0.995167 0.318237 0.406307 0.312370
C57   C     C_R   0.798755 0.292315 0.527086 -0.284649
C58   C     C_3   0.981531 0.237907 0.393105 -0.385598
C59   C     C_3   0.691264 0.620618 0.646223 0.294571
C60   C     C_3   0.734458 0.643166 0.710172 -0.399124
H1    H     H_    0.707442 0.721429 0.383024 0.088011
H2    H     H_    0.302486 0.776300 0.640846 0.118459
H3    H     H_    0.260653 0.786661 0.565115 0.068723
H4    H     H_    0.095237 0.779267 0.615568 0.133792
H5    H     H_    0.874445 0.336232 0.418400 0.003239
H6    H     H_    0.082053 0.332704 0.443355 0.073861
H7    H     H_    0.887394 0.221756 0.358503 0.129929
H8    H     H_    0.946774 0.211426 0.432910 0.065764
H9    H     H_    0.100837 0.220015 0.378053 0.127444
H10   H     H_    0.797354 0.597384 0.624714 0.020434
H11   H     H_    0.586341 0.580234 0.643974 0.068931
H12   H     H_    0.771916 0.809514 0.310882 0.143054
H13   H     H_    0.858676 0.670856 0.714043 0.130810
H14   H     H_    0.730627 0.595980 0.735170 0.072555
H15   H     H_    0.646344 0.679846 0.729412 0.134724
H16   H     H_    0.502327 0.705130 0.352647 -0.063597
H17   H     H_    0.601406 0.831829 0.356622 0.068814
H18   H     H_    0.377503 0.378721 0.368997 0.021434
H19   H     H_    0.587881 0.411921 0.359588 0.058849
H20   H     H_    0.391524 0.299515 0.277342 0.138613
H21   H     H_    0.440942 0.390983 0.264839 0.069907
H22   H     H_    0.601920 0.331858 0.268150 0.130515
H23   H     H_    0.565059 0.793864 0.282220 0.120936
H24   H     H_    0.105494 0.675526 0.217799 0.134958
H25   H     H_    0.156481 0.365894 0.685663 0.091625
H26   H     H_    0.954492 0.319244 0.682862 -0.050787
H27   H     H_    0.242405 0.282765 0.757799 0.154567
H28   H     H_    0.079921 0.337188 0.783226 0.138354
H29   H     H_    0.031407 0.244191 0.756921 0.116473
H30   H     H_    0.692053 0.289028 0.647555 -0.078444
H31   H     H_    0.495375 0.274974 0.611621 0.086375
H32   H     H_    0.587494 0.164225 0.640374 0.067433
H33   H     H_    0.408733 0.187036 0.681300 0.148028
H34   H     H_    0.038467 0.639359 0.313716 0.086507
H35   H     H_    0.607548 0.200220 0.716033 0.116118
H36   H     H_    0.977084 0.334259 0.056092 0.123510
H37   H     H_    0.898981 0.330898 0.953959 0.121318
H38   H     H_    0.218622 0.682972 0.056938 0.121583
H39   H     H_    0.489092 0.561898 0.201353 0.120650
H40   H     H_    0.104969 0.682383 0.959024 0.116406
H41   H     H_    0.692571 0.439327 0.799737 0.117638
H42   H     H_    0.021540 0.458921 0.243019 0.128362
H43   H     H_    0.377274 0.522293 0.377765 0.082688
H44   H     H_    0.238326 0.687407 0.316708 -0.041605
H45   H     H_    0.863658 0.464664 0.622929 0.078641
H46   H     H_    0.502018 0.175212 0.465454 0.076562
H47   H     H_    0.577815 0.068413 0.417107 0.064377
H48   H     H_    0.488480 0.942660 0.405106 0.063560
H49   H     H_    0.704453 0.812668 0.534054 0.087033
H50   H     H_    0.729551 0.048626 0.594190 0.063958
H51   H     H_    0.640925 0.922512 0.582060 0.061899
H52   H     H_    0.934906 0.137281 0.561402 0.076667
H53   H     H_    0.277044 0.858905 0.439335 0.079758
H54   H     H_    0.835225 0.348421 0.530339 0.062001
H55   H     H_    0.945250 0.726696 0.246984 0.152293
H56   H     H_    0.356976 0.645024 0.468054 0.069607
H57   H     H_    0.152271 0.766873 0.246986 0.115426
H58   H     H_    0.323315 0.662349 0.582188 0.001324
H59   H     H_    0.120520 0.666065 0.552650 0.081194
N1    N     N_R   0.944883 0.503353 0.857235 -0.423854
N2    N     N_R   0.195272 0.510136 0.152224 -0.422972
O1    O     O_2   0.896730 0.461690 0.361000 -0.458735
O2    O     O_3   0.650251 0.680126 0.619621 -0.634484
O3    O     O_3   0.049278 0.741412 0.354439 -0.598540
O4    O     O_2   0.292960 0.538340 0.639040 -0.473138
O5    O     O_3   0.052540 0.537650 0.567960 -0.486690
O6    O     O_3   0.532200 0.411510 0.604930 -0.471173
O7    O     O_3   0.138530 0.651620 0.640701 -0.644443
O8    O     O_3   0.629030 0.416090 0.471500 -0.477358
O9    O     O_3   0.120120 0.375640 0.576470 -0.490688
O10   O     O_2   0.235662 0.251226 0.540872 -0.485851
O11   O     O_3   0.142832 0.261961 0.648956 -0.596122
O12   O     O_3   0.137170 0.462400 0.432040 -0.491672
O13   O     O_3   0.560670 0.583970 0.528500 -0.489381
O14   O     O_2   0.373560 0.329680 0.473470 -0.456857
O15   O     O_3   0.551663 0.307277 0.378343 -0.639741
O16   O     O_2   0.429628 0.455012 0.709438 -0.506117
O17   O     O_3   0.493869 0.324143 0.695588 -0.586346
O18   O     O_2   0.938660 0.622456 0.871305 -0.605489
O19   O     O_2   0.898235 0.384306 0.858164 -0.620047
O20   O     O_2   0.109884 0.393444 0.147988 -0.596759
O21   O     O_2   0.287009 0.624955 0.146143 -0.615591
O22   O     O_3   0.657500 0.588540 0.395070 -0.487322
O23   O     O_2   0.788064 0.543821 0.293090 -0.495152
O24   O     O_3   0.048589 0.348775 0.356020 -0.626696
O25   O     O_3   0.690594 0.671729 0.298930 -0.598938
O26   O     O_2   0.816140 0.670340 0.526560 -0.454639
O27   O     O_3   0.069580 0.624410 0.423530 -0.491656
O28   O     O_2   0.970120 0.749906 0.463834 -0.484498
P1    P     P_3+3 0.067040 0.441110 0.370020 0.995540
P2    P     P_3+3 0.640420 0.660110 0.543790 0.985338
P3    P     P_3+3 0.097933 0.716626 0.423082 0.940076
P4    P     P_3+3 0.122660 0.558950 0.629980 0.978570
P5    P     P_3+3 0.099636 0.283311 0.578573 0.946591
P6    P     P_3+3 0.647415 0.585877 0.318878 0.955650
P7    P     P_3+3 0.555608 0.327897 0.454098 0.948577
P8    P     P_3+3 0.558710 0.409805 0.679693 0.942647
C61   C     C_3   0.153055 0.596177 0.776375 -0.166407
C62   C     C_3   0.324987 0.612978 0.754079 -0.395735
H60   H     H_    0.393747 0.566000 0.749175 0.179318
H61   H     H_    0.328015 0.640972 0.714518 0.169503
H62   H     H_    0.392281 0.650483 0.787344 0.099470
H63   H     H_    0.086694 0.644827 0.777901 0.149203
H64   H     H_    0.182462 0.585747 0.821248 0.129520

loop_
_geom_bond_atom_site_label_1
_geom_bond_atom_site_label_2
_ccdc_geom_bond_type
C38   H56   S    
C53   C54   A    
Ba2   P4    S    
C4    H20   S    
C13   N1    Am   
C53   C57   A    
C1    H23   S    
O10   P5    D    
C39   C40   A    
C60   H15   S    
Ba1   O22   S    
C17   C18   A    
Ba1   O5    S    
C41   C42   A    
C1    H17   S    
C62   H60   S    
C3    O15   S    
C27   P8    S    
O23   P6    D    
C51   C52   A    
C51   H52   S    
C37   H45   S    
C2    H1    S    
C49   H51   S    
O14   P7    D    
C34   C45   S    
C31   H39   S    
C24   O20   D    
C58   H7    S    
C26   C27   S    
C33   C35   A    
C22   C24   A    
Ba1   Ba2   S    
O17   P8    S    
C52   P5    S    
C28   C29   D    
C7    O17   S    
C41   C50   S    
C8    H32   S    
C56   C58   S    
O12   P1    S    
C2    O25   S    
C44   C50   A    
C25   N2    Am   
Ba2   O6    S    
C47   C55   S    
C54   C55   A    
Ba1   P1    S    
C16   C17   A    
C16   H40   S    
O28   P3    D    
C40   C41   A    
C1    H12   S    
O26   P2    D    
C54   H46   S    
O5    P4    S    
C53   P7    S    
O11   P5    S    
C5    H26   S    
C42   H53   S    
C14   C15   A    
C10   C15   A    
C9    H43   S    
Ba2   O9    S    
C21   C22   A    
Ba1   O26   S    
O7    P4    S    
C20   H37   S    
C61   H64   S    
Ba1   O13   S    
C7    C8    S    
C45   H4    S    
C29   C61   S    
Ba2   O4    S    
C46   H47   S    
O1    P1    D    
O16   P8    D    
C60   H14   S    
C23   H57   S    
C7    H30   S    
C12   H34   S    
C62   H61   S    
O2    P2    S    
Ba2   O8    S    
C39   P2    S    
C52   C57   A    
C38   C43   A    
C44   C46   A    
C4    H22   S    
O13   P2    S    
C49   C50   A    
C30   N1    S    
C26   C30   D    
C5    O11   S    
O4    P4    D    
C45   H2    S    
C51   C55   A    
C56   O24   S    
C57   H54   S    
C58   H9    S    
C59   H11   S    
Ba2   O13   S    
C8    H35   S    
C40   H49   S    
C2    H16   S    
C35   C36   A    
O8    P7    S    
C34   O7    S    
C13   O19   D    
C3    H19   S    
O15   P7    S    
C29   C30   S    
C58   H8    S    
C27   C37   S    
C48   H50   S    
C31   C32   A    
Ba1   O27   S    
C48   C49   A    
C6    H29   S    
C61   H63   S    
C10   C11   A    
C3    H18   S    
Ba1   P2    S    
C24   N2    Am   
O3    P3    S    
C59   H10   S    
C56   H6    S    
C38   C39   A    
C11   O18   D    
C44   H48   S    
C60   H13   S    
C6    H28   S    
C33   P1    S    
C1    C2    S    
C7    H31   S    
O6    P8    S    
C62   H62   S    
C42   C43   A    
C28   P4    S    
C14   C20   A    
C4    H21   S    
Ba2   O14   S    
C9    C32   A    
C36   N2    S    
Ba1   O8    S    
C23   H55   S    
C35   H42   S    
C17   H38   S    
C43   P3    S    
C18   C25   A    
O22   P6    S    
Ba2   O12   S    
C12   O3    S    
C61   C62   S    
C9    C33   A    
O24   P1    S    
Ba1   O1    S    
C11   N1    Am   
C26   H41   S    
C25   O21   D    
C3    C4    S    
C8    H33   S    
C46   C47   A    
C23   H24   S    
O9    P5    S    
C28   C37   D    
C34   H59   S    
O25   P6    S    
C12   C23   S    
C59   C60   S    
C34   H58   S    
C15   C19   A    
C5    C6    S    
C32   P6    S    
C56   H5    S    
C12   H44   S    
C21   H36   S    
C5    H25   S    
C18   C19   A    
C47   C48   A    
O27   P3    S    
C19   C22   A    
C10   C16   A    
C20   C21   A    
C31   C36   A    
C59   O2    S    
C6    H27   S    
Ba1   O12   S    
C45   H3    S    
C13   C14   A    
Ba2   O5    S    
