data_mof_unit_1867.cif
_audit_creation_date              2012-12-10T16:53:12-0500
_audit_creation_method            fapswitch 2.2
_symmetry_space_group_name_H-M    P1
_symmetry_Int_Tables_number       1
_space_group_crystal_system       triclinic
_cell_length_a                    10.814927
_cell_length_b                    10.935729
_cell_length_c                    9.699415
_cell_angle_alpha                 90.405648
_cell_angle_beta                  91.545606
_cell_angle_gamma                 91.11231
_cell_volume                      1146.47456394

loop_
_atom_site_label
_atom_site_type_symbol
_atom_type_description
_atom_site_fract_x
_atom_site_fract_y
_atom_site_fract_z
_atom_type_partial_charge
C1    C     C_R   0.501500 0.265434 0.499794 0.894345
C2    C     C_R   0.071828 0.591077 0.614285 0.076137
C3    C     C_R   0.131015 0.548005 0.494423 -0.146139
C4    C     C_R   0.058768 0.528923 0.372231 0.011166
C5    C     C_R   0.932589 0.511187 0.381661 -0.293032
C6    C     C_R   0.872460 0.532286 0.505032 -0.115730
C7    C     C_2   0.502250 0.932299 0.387299 -0.145498
C8    C     C_2   0.492482 0.866515 0.502803 -0.305540
C9    C     C_2   0.497019 0.066141 0.386514 -0.130151
C10   C     C_2   0.507593 0.133630 0.502075 -0.323595
C11   C     C_2   0.434201 0.424216 0.918122 -0.146503
C12   C     C_R   0.263779 0.517340 0.498325 0.824853
C13   C     C_2   0.422623 0.433890 0.071787 0.099567
C14   C     C_R   0.498667 0.734628 0.500393 0.825961
C15   C     C_R   0.737908 0.510371 0.502139 0.796640
C16   C     C_R   0.139447 0.649245 0.724434 -0.157955
C17   C     C_R   0.080426 0.692681 0.840086 -0.125102
C18   C     C_R   0.952612 0.685562 0.845904 -0.157475
C19   C     C_R   0.882959 0.635183 0.736030 -0.174894
C20   C     C_R   0.940574 0.584215 0.619663 0.105843
Cu1   Cu    Cu3+1 0.500020 0.500020 0.638630 0.932957
Cu2   Cu    Cu3+1 0.499980 0.499980 0.361370 1.007035
H1    H     H_    0.523444 0.093658 0.602526 0.143475
H2    H     H_    0.380478 0.353646 0.862932 0.158304
H3    H     H_    0.542106 0.571370 0.896856 0.189047
H4    H     H_    0.574610 0.538694 0.109226 0.173906
H5    H     H_    0.237429 0.668861 0.720068 0.164008
H6    H     H_    0.133863 0.736358 0.923295 0.167960
H7    H     H_    0.906752 0.723479 0.933915 0.138802
H8    H     H_    0.784432 0.643524 0.743053 0.162919
H9    H     H_    0.880146 0.485215 0.288767 0.160419
H10   H     H_    0.512801 0.887075 0.288342 0.171062
H11   H     H_    0.477059 0.907757 0.602388 0.144647
H12   H     H_    0.486121 0.109793 0.286785 0.189396
N1    N     N_2   0.498640 0.498660 0.846910 -0.285836
N2    N     N_2   0.498610 0.498630 0.153040 -0.282111
O1    O     O_R   0.500020 0.321960 0.617040 -0.582165
O2    O     O_R   0.499980 0.321920 0.382900 -0.522492
O3    O     O_R   0.319670 0.500020 0.617100 -0.594994
O4    O     O_R   0.319630 0.499980 0.382950 -0.496280
O5    O     O_R   0.500020 0.678080 0.617100 -0.606653
O6    O     O_R   0.499980 0.678040 0.382960 -0.566995
O7    O     O_R   0.680370 0.500020 0.617050 -0.590096
O8    O     O_R   0.680330 0.499980 0.382900 -0.591494
C21   C     C_2   0.106606 0.537410 0.230995 0.396006
H13   H     H_    0.065166 0.481080 0.148842 0.040450
O9    O     O_2   0.184533 0.614765 0.202333 -0.550039
C22   C     C_2   0.313762 0.363885 0.120769 0.445465
H14   H     H_    0.231277 0.357931 0.054585 0.008214
O10   O     O_2   0.315658 0.304210 0.225948 -0.537816

loop_
_geom_bond_atom_site_label_1
_geom_bond_atom_site_label_2
_ccdc_geom_bond_type
C13   N2    D    
C12   O4    A    
C13   C22   S    
Cu1   N1    S    
C10   H1    S    
C2    C16   A    
C9    C10   D    
C19   C20   A    
Cu1   O3    S    
C1    O1    A    
C14   O6    A    
Cu2   O4    S    
C17   H6    S    
C12   O3    A    
C11   N1    D    
C2    C3    A    
C15   O7    A    
C7    C8    D    
C18   H7    S    
Cu1   O7    S    
Cu1   Cu2   S    
C11   C13   S    
Cu2   O6    S    
C1    O2    A    
H3    N1    S    
C14   O5    A    
Cu1   O5    S    
C22   O10   D    
C22   H14   S    
C15   O8    A    
C17   C18   A    
C4    C21   S    
C21   O9    D    
C5    C6    A    
C7    H10   S    
Cu2   O8    S    
C16   C17   A    
C2    C20   A    
C3    C4    A    
Cu2   O2    S    
C11   H2    S    
C6    C20   A    
Cu1   O1    S    
C18   C19   A    
C16   H5    S    
H4    N2    S    
C7    C9    S    
C4    C5    A    
C8    C14   S    
C3    C12   S    
C6    C15   S    
C21   H13   S    
C19   H8    S    
Cu2   N2    S    
C1    C10   S    
C9    H12   S    
C8    H11   S    
C5    H9    S    
