data_mof_unit_1392.cif
_audit_creation_date              2012-12-10T17:11:45-0500
_audit_creation_method            fapswitch 2.2
_symmetry_space_group_name_H-M    P1
_symmetry_Int_Tables_number       1
_space_group_crystal_system       triclinic
_cell_length_a                    19.221499
_cell_length_b                    10.793651
_cell_length_c                    10.076253
_cell_angle_alpha                 89.918662
_cell_angle_beta                  90.205911
_cell_angle_gamma                 91.774951
_cell_volume                      2089.50341877

loop_
_atom_site_label
_atom_site_type_symbol
_atom_type_description
_atom_site_fract_x
_atom_site_fract_y
_atom_site_fract_z
_atom_type_partial_charge
C1    C     C_R   0.501495 0.263293 0.499504 0.877655
C2    C     C_R   0.853770 0.508772 0.481111 -0.389109
C3    C     C_2   0.505311 0.938319 0.388430 0.210339
C4    C     C_R   0.365424 0.497769 0.499722 1.019881
C5    C     C_2   0.514645 0.867752 0.497225 0.477041
C6    C     C_2   0.525461 0.067289 0.398817 0.244008
C7    C     C_2   0.495398 0.132221 0.495536 0.430748
C8    C     C_2   0.553091 0.472917 0.925912 0.716603
C9    C     C_2   0.555498 0.498756 0.072457 0.661324
C10   C     C_R   0.500402 0.737322 0.499273 0.837567
C11   C     C_R   0.633968 0.503313 0.500071 1.074355
C12   C     C_R   0.289104 0.498788 0.497468 -0.395716
C13   C     C_R   0.247973 0.440594 0.597634 0.255717
C14   C     C_R   0.176087 0.463082 0.600896 0.295722
C15   C     C_R   0.144815 0.515994 0.488044 -0.313612
C16   C     C_R   0.185102 0.563693 0.382345 0.273989
C17   C     C_R   0.257156 0.561757 0.392553 0.532791
C18   C     C_R   0.929703 0.510657 0.476419 0.452946
C19   C     C_R   0.069704 0.514932 0.478400 0.465389
C20   C     C_R   0.817014 0.406480 0.535743 0.565483
C21   C     C_R   0.745052 0.407179 0.544234 0.592711
C22   C     C_R   0.709238 0.509885 0.499133 -0.456306
C23   C     C_R   0.745541 0.615257 0.448585 0.194272
C24   C     C_R   0.817804 0.612397 0.436694 0.575983
F1    F     F_    0.545912 0.916722 0.608072 -0.549370
F2    F     F_    0.449584 0.076926 0.581708 -0.613029
F3    F     F_    0.607790 0.416044 0.870206 -0.579352
F4    F     F_    0.462592 0.592946 0.899420 -0.515018
F5    F     F_    0.619282 0.517775 0.127869 -0.610073
F6    F     F_    0.296565 0.621588 0.299636 -0.569703
F7    F     F_    0.850586 0.306816 0.583459 -0.525448
F8    F     F_    0.710072 0.307326 0.596369 -0.518476
F9    F     F_    0.853282 0.709890 0.380948 -0.542140
H1    H     H_    0.374031 0.216272 0.706408 0.434617
H2    H     H_    0.670587 0.047834 0.167738 0.415833
H3    H     H_    0.318806 0.466061 0.087112 0.418834
H4    H     H_    0.033726 0.510239 0.835940 0.414940
H5    H     H_    0.219897 0.726694 0.109733 0.417181
H6    H     H_    0.674863 0.735318 0.207989 0.411281
H7    H     H_    0.413075 0.987117 0.075668 0.418992
N1    N     N_R   0.035375 0.622197 0.484060 -0.045381
N2    N     N_R   0.966360 0.619918 0.483200 -0.033625
N3    N     N_R   0.964440 0.403532 0.469599 -0.042265
N4    N     N_R   0.033481 0.405607 0.470837 -0.080533
N5    N     N_2   0.500750 0.501330 0.852150 0.099859
N6    N     N_2   0.500770 0.501360 0.147810 -0.008869
O1    O     O_R   0.499990 0.319060 0.613040 -0.567890
O2    O     O_2   0.230762 0.233310 0.748889 -0.162220
O3    O     O_3   0.349072 0.256178 0.632440 -0.522833
O4    O     O_2   0.556588 0.193151 0.175114 -0.207318
O5    O     O_2   0.639389 0.214520 0.360026 -0.259876
O6    O     O_3   0.635321 0.008426 0.226961 -0.441254
O7    O     O_2   0.438926 0.326115 0.986865 -0.271639
O8    O     O_2   0.401212 0.332219 0.213228 -0.233653
O9    O     O_3   0.362731 0.509593 0.060662 -0.365902
O10   O     O_2   0.091087 0.307276 0.737457 -0.192165
O11   O     O_2   0.169760 0.441532 0.869843 -0.149643
O12   O     O_R   0.500010 0.319100 0.386900 -0.597782
O13   O     O_3   0.063154 0.539696 0.761095 -0.522904
O14   O     O_2   0.085359 0.547718 0.193694 -0.221890
O15   O     O_2   0.121144 0.754627 0.270508 -0.220282
O16   O     O_3   0.203352 0.638902 0.111315 -0.411893
O17   O     O_2   0.663002 0.789381 0.537199 -0.231241
O18   O     O_2   0.752294 0.859900 0.381260 -0.118886
O19   O     O_3   0.645748 0.734276 0.288809 -0.480997
O20   O     O_2   0.505801 0.818204 0.154940 -0.192264
O21   O     O_2   0.395444 0.816495 0.277241 -0.219685
O22   O     O_3   0.435256 0.019374 0.158045 -0.452644
O23   O     O_R   0.398130 0.499970 0.613110 -0.558210
O24   O     O_R   0.398150 0.500010 0.386970 -0.532320
O25   O     O_R   0.499990 0.680900 0.613100 -0.542315
O26   O     O_R   0.500010 0.680940 0.386960 -0.584705
O27   O     O_R   0.601850 0.499990 0.613030 -0.568365
O28   O     O_R   0.601870 0.500030 0.386890 -0.547676
O29   O     O_2   0.312547 0.395986 0.827307 -0.187765
S1    S     S_3+6 0.284344 0.329688 0.706931 0.154662
S2    S     S_3+6 0.590359 0.126482 0.288174 0.144528
S3    S     S_3+6 0.426407 0.412561 0.100594 0.210858
S4    S     S_3+6 0.125266 0.434118 0.747011 0.152591
S5    S     S_3+6 0.146449 0.627872 0.237789 0.154763
S6    S     S_3+6 0.702238 0.754902 0.414965 0.147209
S7    S     S_3+6 0.459427 0.892747 0.241800 0.137648
Zn1   Zn    Zn3+2 0.499990 0.499970 0.650990 1.235870
Zn2   Zn    Zn3+2 0.500010 0.500030 0.349010 1.230050

loop_
_geom_bond_atom_site_label_1
_geom_bond_atom_site_label_2
_ccdc_geom_bond_type
C2    C18   S    
N1    N2    A    
O11   S4    D    
O29   S1    D    
C3    C6    S    
C4    O24   A    
C15   C19   S    
O10   S4    D    
O17   S6    D    
O16   S5    S    
C18   N2    A    
O15   S5    D    
C15   C16   A    
O2    S1    D    
C8    N5    D    
C8    C9    S    
C12   C17   A    
C23   C24   A    
O1    Zn1   S    
C4    C12   S    
O24   Zn2   S    
C9    F5    S    
C10   O25   A    
C9    N6    D    
C13   C14   A    
C17   F6    S    
H6    O19   S    
N5    Zn1   S    
C1    O12   A    
C4    O23   A    
O25   Zn1   S    
C22   C23   A    
C21   F8    S    
F4    N5    S    
C2    C20   A    
C11   O27   A    
O13   S4    S    
N6    S3    S    
O9    S3    S    
C1    O1    A    
C6    S2    S    
C16   S5    S    
N3    N4    A    
O5    S2    D    
O23   Zn1   S    
O12   Zn2   S    
O20   S7    D    
O19   S6    S    
C13   S1    S    
C3    S7    S    
O3    S1    S    
O26   Zn2   S    
C14   S4    S    
C20   C21   A    
C7    F2    S    
H4    O13   S    
C5    F1    S    
C2    C24   A    
N6    Zn2   S    
O6    S2    S    
O4    S2    D    
C19   N4    A    
O14   S5    D    
H1    O3    S    
C23   S6    S    
C1    C7    S    
O28   Zn2   S    
C3    C5    D    
C11   O28   A    
C6    C7    D    
C11   C22   S    
C24   F9    S    
O22   S7    S    
O7    S3    D    
C5    C10   S    
H3    O9    S    
C18   N3    A    
C16   C17   A    
O18   S6    D    
C12   C13   A    
O21   S7    D    
H7    O22   S    
H2    O6    S    
C8    F3    S    
C14   C15   A    
O8    S3    D    
C21   C22   A    
O27   Zn1   S    
C19   N1    A    
H5    O16   S    
C20   F7    S    
C10   O26   A    
