data_mof_unit_379.cif
_audit_creation_date              2012-12-10T17:23:10-0500
_audit_creation_method            fapswitch 2.2
_symmetry_space_group_name_H-M    P1
_symmetry_Int_Tables_number       1
_space_group_crystal_system       triclinic
_cell_length_a                    15.86311
_cell_length_b                    10.820251
_cell_length_c                    9.629058
_cell_angle_alpha                 90.5849
_cell_angle_beta                  90.132761
_cell_angle_gamma                 94.759666
_cell_volume                      1646.96515094

loop_
_atom_site_label
_atom_site_type_symbol
_atom_type_description
_atom_site_fract_x
_atom_site_fract_y
_atom_site_fract_z
_atom_type_partial_charge
C1    C     C_R   0.504965 0.262814 0.499965 0.794519
C2    C     C_3   0.082854 0.497533 0.499782 0.095383
C3    C     C_3   0.976553 0.596935 0.569823 -0.174099
C4    C     C_3   0.916634 0.495267 0.500132 0.152194
C5    C     C_3   0.032827 0.600112 0.437772 -0.167907
C6    C     C_3   0.971156 0.498808 0.367856 -0.165166
C7    C     C_1   0.174703 0.498525 0.499570 -0.035993
C8    C     C_1   0.824951 0.494830 0.500067 -0.040902
C9    C     C_R   0.553989 0.120143 0.748877 -0.197823
C10   C     C_R   0.543632 0.062615 0.877388 0.015799
C11   C     C_R   0.492943 0.951539 0.887035 -0.217152
C12   C     C_R   0.339994 0.499176 0.499833 0.828362
C13   C     C_R   0.462153 0.889928 0.766290 -0.019717
C14   C     C_R   0.485767 0.938402 0.633550 0.051149
C15   C     C_R   0.516943 0.063780 0.627819 0.071103
C16   C     C_R   0.508558 0.128011 0.501489 -0.102969
C17   C     C_R   0.490354 0.060965 0.378509 -0.163161
C18   C     C_R   0.481749 0.932847 0.379905 -0.200816
C19   C     C_R   0.481277 0.869652 0.506233 -0.110154
C20   C     C_R   0.606993 0.672578 0.155218 -0.117171
C21   C     C_R   0.652684 0.770854 0.096442 -0.245565
C22   C     C_R   0.654490 0.780567 0.956141 -0.220939
C23   C     C_R   0.491275 0.736091 0.501403 0.808200
C24   C     C_R   0.612493 0.689915 0.870263 -0.011320
C25   C     C_R   0.554395 0.589836 0.927751 0.147640
C26   C     C_R   0.553308 0.586432 0.078147 0.181327
C27   C     C_R   0.448855 0.418144 0.071603 0.055516
C28   C     C_R   0.449479 0.417919 0.924253 -0.066510
C29   C     C_R   0.659729 0.496177 0.499922 0.834234
C30   C     C_3   0.965944 0.392086 0.562504 -0.233200
C31   C     C_3   0.021938 0.397659 0.431390 0.006007
C32   C     C_1   0.250281 0.498952 0.499570 -0.129698
C33   C     C_1   0.749402 0.495042 0.499996 -0.150912
C34   C     C_3   0.027238 0.493994 0.629678 0.007702
Cu1   Cu    Cu3+1 0.499990 0.499990 0.640660 0.962694
Cu2   Cu    Cu3+1 0.500010 0.500010 0.359340 0.963901
H1    H     H_    0.616666 0.670556 0.263362 0.215204
H2    H     H_    0.483761 0.107265 0.280507 0.185555
N1    N     N_R   0.500800 0.501210 0.147910 -0.219233
N2    N     N_R   0.500830 0.501290 0.852040 -0.201507
O1    O     O_R   0.499990 0.319640 0.618810 -0.595310
O2    O     O_R   0.500000 0.319660 0.381240 -0.568508
O3    O     O_R   0.379070 0.499980 0.618770 -0.560530
O4    O     O_R   0.379080 0.500000 0.381190 -0.571022
O5    O     O_R   0.500000 0.680340 0.618760 -0.585815
O6    O     O_R   0.500010 0.680360 0.381190 -0.608395
O7    O     O_R   0.620920 0.500000 0.618810 -0.584255
O8    O     O_R   0.620930 0.500020 0.381230 -0.594722
C35   C     C_1   0.047437 0.288863 0.355127 0.252136
N3    N     N_1   0.067614 0.203078 0.294972 -0.261641
H3    H     H_    0.477285 0.913156 0.988323 0.145283
C36   C     C_1   0.395001 0.792544 0.782956 0.266982
N4    N     N_1   0.340883 0.715247 0.797272 -0.259516
H4    H     H_    0.475089 0.883355 0.281582 0.168498
C37   C     C_1   0.391266 0.329291 0.140409 0.301625
N5    N     N_1   0.344644 0.257669 0.195085 -0.286858
H5    H     H_    0.689767 0.838094 0.160585 0.173927
H6    H     H_    0.694285 0.858356 0.914712 0.162144
C38   C     C_1   0.643789 0.714603 0.732633 0.353097
N6    N     N_1   0.672447 0.743280 0.625924 -0.336079
H7    H     H_    0.408038 0.350824 0.867108 0.144839
H8    H     H_    0.937805 0.306880 0.613575 0.146866
H9    H     H_    0.946869 0.499932 0.259677 0.150779
H10   H     H_    0.061183 0.685177 0.386769 0.157081
H11   H     H_    0.956654 0.678799 0.627771 0.146144
C39   C     C_1   0.058508 0.491847 0.773059 0.246839
N7    N     N_1   0.083203 0.490162 0.886131 -0.267182
H12   H     H_    0.592321 0.207543 0.744164 0.164180
C40   C     C_1   0.580900 0.121861 0.000029 0.202641
N8    N     N_1   0.611252 0.169852 0.098069 -0.287803

loop_
_geom_bond_atom_site_label_1
_geom_bond_atom_site_label_2
_ccdc_geom_bond_type
C6    H9    S    
C22   H6    S    
C19   C23   S    
C37   N5    T    
C24   C25   A    
Cu2   O6    S    
C23   O5    A    
C13   C36   S    
Cu1   O3    S    
C9    C10   A    
Cu2   O2    S    
C2    C7    S    
C18   H4    S    
C4    C8    S    
C40   N8    T    
Cu1   O7    S    
C28   H7    S    
C2    C34   S    
C39   N7    T    
C9    C15   A    
C9    H12   S    
C38   N6    T    
C12   O4    A    
C1    C16   S    
C21   C22   A    
C12   C32   S    
C21   H5    S    
C20   H1    S    
C11   C13   A    
C34   C39   S    
C3    H11   S    
C20   C26   A    
C29   O7    A    
C24   C38   S    
C5    C6    S    
C1    O1    A    
C31   C35   S    
Cu2   O8    S    
C12   O3    A    
C22   C24   A    
C8    C33   T    
C30   H8    S    
C25   N2    A    
C30   C31   S    
Cu1   O1    S    
C35   N3    T    
C27   C37   S    
C26   N1    A    
Cu2   O4    S    
C2    C5    S    
C11   H3    S    
C10   C11   A    
C30   C34   S    
C29   O8    A    
Cu1   N2    S    
C15   C16   A    
Cu1   O5    S    
C10   C40   S    
C29   C33   S    
C1    O2    A    
C16   C17   A    
C36   N4    T    
C17   C18   A    
C4    C6    S    
C17   H2    S    
C27   C28   A    
C23   O6    A    
C28   N2    A    
C14   C15   A    
C18   C19   A    
C6    C31   S    
C7    C32   T    
C3    C34   S    
C25   C26   A    
C13   C14   A    
C14   C19   A    
C20   C21   A    
Cu2   N1    S    
C4    C30   S    
C3    C4    S    
C5    H10   S    
C27   N1    A    
C2    C31   S    
C3    C5    S    
Cu1   Cu2   S    
