data_mof_unit_1141.cif
_audit_creation_date              2013-03-05T15:54:36-0500
_audit_creation_method            fapswitch 2.2
_symmetry_space_group_name_H-M    P1
_symmetry_Int_Tables_number       1
_space_group_crystal_system       triclinic
_cell_length_a                    17.484975
_cell_length_b                    24.544582
_cell_length_c                    14.956895
_cell_angle_alpha                 90.539557
_cell_angle_beta                  126.025541
_cell_angle_gamma                 89.326334
_cell_volume                      5190.95094402

loop_
_atom_site_label
_atom_site_type_symbol
_atom_site_description
_atom_site_fract_x
_atom_site_fract_y
_atom_site_fract_z
_atom_type_partial_charge
C1    C     C_R   0.857470 0.653497 0.905872 0.264055
C2    C     C_R   0.142810 0.653050 0.093962 0.264402
C3    C     C_R   0.357478 0.153495 0.905870 0.263952
C4    C     C_R   0.642796 0.153057 0.093947 0.264601
N1    N     N_R   0.892620 0.603790 0.941770 -0.093274
N2    N     N_R   0.107380 0.603790 0.058230 -0.093768
N3    N     N_R   0.392620 0.103790 0.941770 -0.093348
N4    N     N_R   0.607380 0.103790 0.058230 -0.093729
C5    C     C_R   0.924978 0.358680 0.093776 -0.273420
C6    C     C_R   0.094675 0.376523 0.905327 -0.262092
C7    C     C_R   0.425033 0.858650 0.093783 -0.273158
C8    C     C_R   0.594720 0.876585 0.905325 -0.262240
H1    H     H_    0.960784 0.346674 0.178714 0.138117
H2    H     H_    0.068080 0.374147 0.819589 0.154062
H3    H     H_    0.460846 0.846651 0.178726 0.138101
H4    H     H_    0.568101 0.874196 0.819581 0.154150
N5    N     N_R   0.952270 0.397640 0.058010 -0.069316
N6    N     N_R   0.047730 0.397640 0.941990 -0.077807
N7    N     N_R   0.452270 0.897640 0.058010 -0.069291
N8    N     N_R   0.547730 0.897640 0.941990 -0.077897
C9    C     C_R   0.981749 0.547540 0.248330 -0.000365
C10   C     C_R   0.951016 0.547162 0.697601 -0.101242
C11   C     C_R   0.481749 0.047539 0.248329 -0.000317
C12   C     C_R   0.451015 0.047163 0.697602 -0.101304
H5    H     H_    0.966063 0.589752 0.251307 0.094926
H6    H     H_    0.930278 0.588776 0.671414 0.169460
H7    H     H_    0.466069 0.089750 0.251316 0.094943
H8    H     H_    0.430276 0.088778 0.671415 0.169393
N9    N     N_R   0.026310 0.529110 0.206760 -0.031428
N10   N     N_R   0.973690 0.529110 0.793240 -0.038168
N11   N     N_R   0.526310 0.029110 0.206760 -0.031419
N12   N     N_R   0.473690 0.029110 0.793240 -0.038202
C13   C     C_R   0.730766 0.455781 0.748415 -0.174166
C14   C     C_R   0.267151 0.455447 0.290380 -0.110635
C15   C     C_R   0.230827 0.955781 0.748771 -0.174116
C16   C     C_R   0.766704 0.955463 0.291380 -0.107667
H9    H     H_    0.705361 0.414821 0.723766 0.171658
H10   H     H_    0.285400 0.415325 0.326161 0.163539
H11   H     H_    0.205409 0.914815 0.724316 0.171510
H12   H     H_    0.784566 0.915330 0.327106 0.162865
N13   N     N_R   0.818570 0.472310 0.793020 -0.053085
N14   N     N_R   0.181430 0.472310 0.206980 -0.059121
N15   N     N_R   0.318570 0.972310 0.793020 -0.053070
N16   N     N_R   0.681430 0.972310 0.206980 -0.059229
C17   C     C_R   0.989312 0.456473 0.259136 -0.102626
C18   C     C_R   0.949519 0.456502 0.693332 -0.121102
C19   C     C_R   0.489299 0.956472 0.259120 -0.102651
C20   C     C_R   0.449516 0.956504 0.693329 -0.121098
H13   H     H_    0.986569 0.415375 0.281211 0.098614
H14   H     H_    0.930459 0.415291 0.662184 0.082496
H15   H     H_    0.486538 0.915372 0.281173 0.098635
H16   H     H_    0.430454 0.915294 0.662178 0.082487
N17   N     N_R   0.026930 0.472300 0.207330 -0.050701
N18   N     N_R   0.973070 0.472300 0.792670 -0.044659
N19   N     N_R   0.526930 0.972300 0.207330 -0.050677
N20   N     N_R   0.473070 0.972300 0.792670 -0.044656
C21   C     C_R   0.730991 0.546778 0.751909 -0.065824
C22   C     C_R   0.268840 0.546559 0.284419 -0.057572
C23   C     C_R   0.231048 0.046768 0.752255 -0.065637
C24   C     C_R   0.768532 0.046552 0.285488 -0.057327
H17   H     H_    0.707528 0.588759 0.736858 0.127695
H18   H     H_    0.289933 0.588289 0.309223 0.144801
H19   H     H_    0.207586 0.088747 0.737380 0.127528
H20   H     H_    0.789514 0.088277 0.310422 0.145412
N21   N     N_R   0.817960 0.529130 0.792460 -0.024838
N22   N     N_R   0.182040 0.529130 0.207540 -0.035024
N23   N     N_R   0.317960 0.029130 0.792460 -0.024773
N24   N     N_R   0.682040 0.029130 0.207540 -0.035680
C25   C     C_R   0.833709 0.356811 0.909746 0.558525
C26   C     C_R   0.184227 0.369939 0.089158 0.582116
C27   C     C_R   0.333792 0.856764 0.909763 0.558201
C28   C     C_R   0.684382 0.870121 0.089156 0.582823
N25   N     N_R   0.894850 0.397640 0.943830 -0.103678
N26   N     N_R   0.105150 0.397640 0.056170 -0.106500
N27   N     N_R   0.394850 0.897640 0.943830 -0.103703
N28   N     N_R   0.605150 0.897640 0.056170 -0.106431
C29   C     C_R   0.940151 0.652818 0.088923 -0.146361
C30   C     C_R   0.060930 0.651276 0.910316 -0.113216
C31   C     C_R   0.440127 0.152813 0.088913 -0.145871
C32   C     C_R   0.560936 0.151266 0.910300 -0.113306
H21   H     H_    0.981398 0.666914 0.173599 0.179711
H22   H     H_    0.022658 0.663853 0.825054 0.193589
H23   H     H_    0.481316 0.166904 0.173588 0.179767
H24   H     H_    0.522664 0.163838 0.825034 0.193583
N29   N     N_R   0.950040 0.603780 0.055950 -0.069281
N30   N     N_R   0.049960 0.603780 0.944050 -0.070554
N31   N     N_R   0.450040 0.103780 0.055950 -0.069234
N32   N     N_R   0.549960 0.103780 0.944050 -0.070589
C33   C     C_R   0.882213 0.684577 0.995994 -0.070967
C34   C     C_R   0.118958 0.682698 0.003656 -0.060695
C35   C     C_R   0.382223 0.184574 0.995984 -0.071064
C36   C     C_R   0.618959 0.182690 0.003629 -0.060671
C37   C     C_R   0.846289 0.335384 0.001847 -0.029365
C38   C     C_R   0.181553 0.358970 0.996219 -0.045711
C39   C     C_R   0.346387 0.835323 0.001863 -0.029260
C40   C     C_R   0.681680 0.859116 0.996206 -0.046206
C41   C     C_R   0.958177 0.503025 0.282793 0.032369
C42   C     C_R   0.935363 0.502851 0.632410 0.042795
C43   C     C_R   0.458171 0.003024 0.282785 0.032295
C44   C     C_R   0.435364 0.002853 0.632411 0.042891
C45   C     C_R   0.675394 0.501521 0.723410 -0.010486
C46   C     C_R   0.322575 0.500913 0.336029 -0.018068
C47   C     C_R   0.175507 0.001509 0.724067 -0.010662
C48   C     C_R   0.821966 0.000924 0.337749 -0.018325
Ni1   Ni    Ni4+2 0.934160 0.565860 0.869070 0.292614
Ni2   Ni    Ni4+2 0.065840 0.565860 0.130930 0.308694
Ni3   Ni    Ni4+2 0.434160 0.065860 0.869070 0.292643
Ni4   Ni    Ni4+2 0.565840 0.065860 0.130930 0.308424
Ni5   Ni    Ni4+2 0.067260 0.435560 0.132230 0.196592
Ni6   Ni    Ni4+2 0.932740 0.435560 0.867770 0.184694
Ni7   Ni    Ni4+2 0.567260 0.935560 0.132230 0.196772
Ni8   Ni    Ni4+2 0.432740 0.935560 0.867770 0.184688
C49   C     C_3   0.505433 0.456807 0.592297 -0.163001
C50   C     C_3   0.487596 0.456988 0.478156 -0.157284
C51   C     C_3   0.005518 0.956674 0.593728 -0.163178
C52   C     C_3   0.987067 0.957093 0.479276 -0.157028
C53   C     C_3   0.428869 0.501551 0.553543 -0.107983
C54   C     C_3   0.561038 0.502113 0.516316 -0.117231
C55   C     C_3   0.928877 0.001305 0.555626 -0.107945
C56   C     C_3   0.060287 0.002314 0.517188 -0.117497
H25   H     H_    0.371407 0.501315 0.564604 0.152909
H26   H     H_    0.617449 0.502365 0.503401 0.134453
H27   H     H_    0.871729 0.000886 0.567207 0.152799
H28   H     H_    0.116351 0.002749 0.503710 0.134591
H29   H     H_    0.515967 0.420397 0.641985 0.135453
H30   H     H_    0.479009 0.420620 0.428375 0.140339
H31   H     H_    0.016414 0.920162 0.643351 0.135340
H32   H     H_    0.978345 0.920812 0.429231 0.140627
C57   C     C_3   0.413229 0.501616 0.441412 0.163301
C58   C     C_3   0.577871 0.502010 0.629388 0.165963
C59   C     C_3   0.912634 0.001605 0.443180 0.163348
C60   C     C_3   0.077758 0.001981 0.630585 0.165872
C61   C     C_3   0.485616 0.546773 0.478521 -0.150219
C62   C     C_3   0.503569 0.546779 0.592787 -0.146856
C63   C     C_3   0.984839 0.046861 0.480079 -0.150136
C64   C     C_3   0.003403 0.046637 0.594655 -0.146677
H33   H     H_    0.475724 0.583218 0.429210 0.126221
H34   H     H_    0.512622 0.583123 0.642825 0.128391
H35   H     H_    0.974651 0.083416 0.430881 0.126027
H36   H     H_    0.012623 0.082890 0.644978 0.128301
C65   C     C_R   0.812529 0.276734 0.102494 0.101398
C66   C     C_R   0.216238 0.300414 0.891267 0.135546
C67   C     C_R   0.312577 0.776708 0.102522 0.101315
C68   C     C_R   0.716270 0.800462 0.891268 0.135734
C69   C     C_R   0.781017 0.302785 0.004578 0.060156
C70   C     C_R   0.248629 0.327768 0.989494 0.047476
C71   C     C_R   0.281097 0.802733 0.004589 0.060214
C72   C     C_R   0.748738 0.827888 0.989456 0.047245
C73   C     C_R   0.684264 0.302316 0.916022 -0.164598
C74   C     C_R   0.342207 0.318693 0.082613 -0.155750
C75   C     C_R   0.184345 0.802274 0.916029 -0.164678
C76   C     C_R   0.842330 0.818796 0.082548 -0.155947
H37   H     H_    0.656166 0.326685 0.842772 0.169813
H38   H     H_    0.371998 0.342035 0.157835 0.177440
H39   H     H_    0.156264 0.826629 0.842765 0.169711
H40   H     H_    0.872200 0.842177 0.157736 0.177956
C77   C     C_R   0.124607 0.766714 0.919139 -0.172123
C78   C     C_R   0.893456 0.774318 0.082997 -0.183987
C79   C     C_R   0.624554 0.266725 0.919118 -0.171961
C80   C     C_R   0.393404 0.274272 0.083029 -0.183740
H41   H     H_    0.052331 0.762143 0.846816 0.192946
H42   H     H_    0.961294 0.763922 0.158616 0.176705
H43   H     H_    0.552277 0.262148 0.846800 0.193027
H44   H     H_    0.461229 0.263872 0.158663 0.176624
C81   C     C_R   0.162757 0.732873 0.011193 0.078587
C82   C     C_R   0.850554 0.740067 0.989882 0.075621
C83   C     C_R   0.662737 0.232867 0.011154 0.078568
C84   C     C_R   0.350566 0.240057 0.989867 0.075682
C85   C     C_R   0.254570 0.741696 0.105519 0.255032
C86   C     C_R   0.766040 0.756924 0.892060 0.265060
C87   C     C_R   0.754552 0.241691 0.105471 0.255012
C88   C     C_R   0.266070 0.256923 0.892024 0.264823
C89   C     C_3   0.333989 0.702179 0.177211 -0.507576
C90   C     C_3   0.678418 0.725317 0.811127 -0.498859
C91   C     C_3   0.833985 0.202177 0.177120 -0.507339
C92   C     C_3   0.178471 0.225313 0.811002 -0.498520
C93   C     C_3   0.898088 0.241530 0.173867 -0.487680
C94   C     C_3   0.123231 0.273216 0.810046 -0.524031
C95   C     C_3   0.398117 0.741500 0.173935 -0.487584
C96   C     C_3   0.623235 0.773264 0.810133 -0.524028
H45   H     H_    0.325756 0.662851 0.134903 0.187890
H46   H     H_    0.671507 0.687998 0.847425 0.180502
H47   H     H_    0.825762 0.162865 0.134770 0.187969
H48   H     H_    0.171559 0.187959 0.847214 0.180396
H49   H     H_    0.350367 0.698385 0.260859 0.217874
H50   H     H_    0.667536 0.719186 0.730656 0.230895
H51   H     H_    0.850370 0.198354 0.260767 0.217776
H52   H     H_    0.167624 0.219238 0.730539 0.230979
H53   H     H_    0.926980 0.225272 0.129570 0.210280
H54   H     H_    0.084117 0.263500 0.845475 0.206623
H55   H     H_    0.427009 0.725207 0.129662 0.210308
H56   H     H_    0.584149 0.763604 0.845624 0.206530
H57   H     H_    0.950912 0.260572 0.255526 0.199475
H58   H     H_    0.080873 0.294494 0.729052 0.203118
H59   H     H_    0.450942 0.760554 0.255578 0.199488
H60   H     H_    0.580856 0.794506 0.729099 0.203160
C97   C     C_R   0.904335 0.555641 0.473695 0.049771
C98   C     C_R   0.915600 0.555054 0.389960 -0.038608
C99   C     C_R   0.404369 0.055644 0.473718 0.049791
C100  C     C_R   0.415632 0.055055 0.389982 -0.038582
C101  C     C_R   0.900479 0.506165 0.517052 0.056961
C102  C     C_R   0.915494 0.505991 0.341610 0.100707
C103  C     C_R   0.400488 0.006168 0.517057 0.057020
C104  C     C_R   0.415497 0.005993 0.341611 0.100722
C105  C     C_R   0.878383 0.458648 0.452994 -0.153178
C106  C     C_R   0.885164 0.458706 0.364347 -0.163829
C107  C     C_R   0.378374 0.958654 0.452988 -0.153099
C108  C     C_R   0.385152 0.958711 0.364339 -0.163865
H61   H     H_    0.867169 0.420228 0.478306 0.123181
H62   H     H_    0.877685 0.420516 0.323239 0.123345
H63   H     H_    0.367146 0.920236 0.478291 0.123193
H64   H     H_    0.377659 0.920523 0.323219 0.123345
C109  C     C_3   0.982270 0.602605 0.437682 0.049378
C110  C     C_3   0.967622 0.604429 0.527913 0.035002
C111  C     C_3   0.482336 0.102591 0.437727 0.049486
C112  C     C_3   0.467690 0.104418 0.527960 0.034878
H65   H     H_    0.954918 0.638963 0.382899 0.121158
H66   H     H_    0.033060 0.596902 0.612442 0.124421
H67   H     H_    0.455010 0.138955 0.382963 0.121254
H68   H     H_    0.533122 0.096875 0.612486 0.124435
N33   N     N_R   0.841211 0.674984 0.806555 0.219007
O1    O     O_R   0.822019 0.642185 0.727205 -0.432156
O2    O     O_R   0.864983 0.724745 0.804366 -0.411125
N34   N     N_R   0.160555 0.676284 0.193470 0.216323
O3    O     O_R   0.158544 0.728842 0.204294 -0.420969
O4    O     O_R   0.159116 0.645512 0.262709 -0.416653
N35   N     N_R   0.341212 0.174977 0.806550 0.219045
O5    O     O_R   0.321752 0.142197 0.727069 -0.432045
O6    O     O_R   0.365162 0.224697 0.804425 -0.411147
N36   N     N_R   0.660442 0.176324 0.193386 0.216314
O7    O     O_R   0.658593 0.228890 0.204237 -0.420975
O8    O     O_R   0.658672 0.145607 0.262447 -0.417118
N37   N     N_R   0.080005 0.588110 0.481248 0.245120
O9    O     O_R   0.120314 0.544467 0.540606 -0.396441
O10   O     O_R   0.128423 0.620204 0.463501 -0.353396
N38   N     N_R   0.915604 0.653310 0.521237 0.250228
O11   O     O_R   0.832472 0.664800 0.431525 -0.387770
O12   O     O_R   0.953913 0.686626 0.604922 -0.384825
N39   N     N_R   0.580060 0.088072 0.481284 0.245102
O13   O     O_R   0.620340 0.044421 0.540622 -0.396622
O14   O     O_R   0.628497 0.120151 0.463540 -0.353507
N40   N     N_R   0.415706 0.153310 0.521306 0.250260
O15   O     O_R   0.332577 0.164816 0.431604 -0.387446
O16   O     O_R   0.454043 0.186622 0.605001 -0.384816
O17   O     O_3   0.783871 0.331438 0.807161 -0.641706
C113  C     C_3   0.838672 0.329164 0.766093 -0.214102
H69   H     H_    0.909936 0.311098 0.827473 0.134948
H70   H     H_    0.844767 0.369953 0.739648 0.131890
H71   H     H_    0.802429 0.302457 0.691970 0.188185
O18   O     O_3   0.245656 0.345603 0.191179 -0.654953
C114  C     C_3   0.193330 0.320236 0.223382 -0.223023
H72   H     H_    0.142438 0.290217 0.160123 0.143964
H73   H     H_    0.155457 0.350706 0.240008 0.127404
H74   H     H_    0.243182 0.297631 0.301248 0.207842
O19   O     O_3   0.283984 0.831384 0.807182 -0.641665
C115  C     C_3   0.338700 0.829239 0.766005 -0.213865
H75   H     H_    0.410051 0.811272 0.827343 0.134881
H76   H     H_    0.344567 0.870052 0.739464 0.131952
H77   H     H_    0.302526 0.802507 0.691921 0.188165
O20   O     O_3   0.746281 0.846169 0.191449 -0.655368
C116  C     C_3   0.694418 0.819998 0.223409 -0.224635
H78   H     H_    0.644894 0.789451 0.160502 0.144689
H79   H     H_    0.655143 0.849874 0.239021 0.127530
H80   H     H_    0.744734 0.797883 0.301785 0.207878

loop_
_geom_bond_atom_site_label_1
_geom_bond_atom_site_label_2
_geom_bond_distance
_ccdc_geom_bond_type
C38   C70   1.445095 S    
C99   C103  1.402845 A    
C22   H18   1.078646 S    
C10   C42   1.371734 A    
C3    N35   1.442198 S    
C43   C104  1.451189 S    
N11   Ni4   1.879836 S    
C66   C70   1.393420 A    
C42   C101  1.455745 S    
C15   H11   1.074572 S    
N39   O13   1.302515 A    
C14   N14   1.330298 A    
C46   C57   1.434745 S    
C20   N20   1.341911 A    
C41   C102  1.451203 S    
C68   C72   1.393505 A    
N8    Ni8   1.868449 S    
N34   O3    1.301273 A    
C90   H46   1.112435 S    
N26   Ni5   1.857811 S    
C31   N31   1.343863 A    
C19   C43   1.389746 A    
N25   Ni6   1.876257 S    
C91   C93   1.510662 S    
C95   H59   1.111609 S    
C109  C110  1.514639 S    
C30   C34   1.380300 A    
C67   C71   1.384741 A    
C88   C92   1.497794 S    
C94   H58   1.111869 S    
C25   C37   1.370077 A    
C29   C33   1.382512 A    
N27   Ni8   1.876257 S    
C14   C46   1.372383 A    
C93   H57   1.111619 S    
C65   C93   1.494197 S    
C80   H44   1.082362 S    
C3    C35   1.374101 A    
C26   C38   1.387023 A    
N14   Ni5   1.856523 S    
C20   H16   1.080580 S    
C3    N3    1.326968 A    
C116  H78   1.113934 S    
C94   H54   1.112620 S    
C44   C103  1.455730 S    
N10   N18   1.394454 A    
C114  H73   1.112751 S    
C49   H29   1.110182 S    
N5    N25   1.381174 A    
C6    C38   1.381219 A    
N17   Ni5   1.862758 S    
C51   C52   1.544430 S    
C115  H77   1.109063 S    
C68   C86   1.365875 A    
C65   C87   1.357833 A    
C100  C111  1.506044 S    
C51   H31   1.110154 S    
N38   O11   1.302343 A    
N8    N28   1.381173 A    
C1    N33   1.442248 S    
C54   H26   1.111090 S    
C21   H17   1.080044 S    
C2    C34   1.369909 A    
N35   O5    1.299598 A    
C53   H25   1.110200 S    
C7    N7    1.322495 A    
C73   H37   1.082477 S    
C23   N23   1.331496 A    
C70   C74   1.408285 A    
C7    H3    1.076984 S    
C64   H36   1.110081 S    
C22   N22   1.327336 A    
N3    N31   1.381176 A    
N31   Ni4   1.878279 S    
C68   C96   1.500899 S    
N38   O12   1.300560 A    
N12   Ni3   1.861698 S    
C115  H76   1.108773 S    
C26   N26   1.341335 A    
C55   C59   1.532204 S    
N37   O10   1.300639 A    
C25   N25   1.334744 A    
C91   H51   1.111797 S    
C22   C46   1.368308 A    
C75   H39   1.082478 S    
C100  C104  1.398290 A    
C15   N15   1.330990 A    
C47   C60   1.437047 S    
C26   O18   1.383129 S    
C31   C35   1.382462 A    
C63   C64   1.545306 S    
C96   H60   1.111885 S    
C4    N4    1.321891 A    
N1    N29   1.381176 A    
C45   C58   1.436855 S    
C30   N30   1.334367 A    
C92   C94   1.507606 S    
C18   C42   1.390437 A    
C89   H45   1.112451 S    
C99   C100  1.377415 A    
N6    N26   1.381173 A    
C56   C60   1.536495 S    
O17   C113  1.410306 S    
C32   N32   1.334317 A    
C107  H63   1.081383 S    
C8    N8    1.325723 A    
C58   C62   1.528440 S    
N22   Ni2   1.868587 S    
C109  N37   1.466866 S    
C53   C62   1.550108 S    
N4    Ni4   1.881651 S    
N21   Ni1   1.881184 S    
C108  H64   1.082230 S    
C92   H52   1.111464 S    
C76   C78   1.400387 A    
C51   C60   1.529179 S    
C81   C85   1.397411 A    
C8    H4    1.077901 S    
C40   C72   1.445377 S    
C113  H70   1.108905 S    
C72   C76   1.408368 A    
C27   N27   1.334791 A    
C93   H53   1.112379 S    
C49   C58   1.529010 S    
C101  C105  1.407687 A    
N19   Ni7   1.862759 S    
C107  C108  1.398914 A    
C75   C77   1.390795 A    
C76   H40   1.082047 S    
C35   C84   1.447185 S    
C16   H12   1.076940 S    
C20   C44   1.390430 A    
C39   C71   1.421825 S    
C67   C85   1.357897 A    
C114  H72   1.114384 S    
C96   H56   1.112630 S    
C66   C88   1.365854 A    
C77   C81   1.399559 A    
C32   H24   1.080800 S    
C116  H79   1.112378 S    
N32   Ni3   1.891362 S    
C109  H65   1.113209 S    
C14   H10   1.076885 S    
C114  H74   1.109355 S    
N1    Ni1   1.862976 S    
O18   C114  1.412145 S    
C105  C106  1.398915 A    
C5    C37   1.374367 A    
C87   C91   1.501725 S    
C48   C59   1.435160 S    
C13   H9    1.074646 S    
C2    N2    1.321820 A    
C24   N24   1.327042 A    
N34   O4    1.299762 A    
N4    N32   1.381173 A    
N18   Ni6   1.880938 S    
C11   N11   1.324578 A    
C32   C36   1.380217 A    
C15   C47   1.376125 A    
C71   C75   1.407436 A    
C111  C112  1.514635 S    
C12   N12   1.319253 A    
N15   N23   1.394602 A    
C98   C102  1.398293 A    
N33   O1    1.299664 A    
C54   C58   1.536667 S    
C111  H67   1.113208 S    
N36   O8    1.299682 A    
C112  H68   1.113357 S    
C11   C43   1.378570 A    
C106  H62   1.082228 S    
C59   C63   1.527796 S    
N40   O16   1.300561 A    
C99   C112  1.507782 S    
C105  H61   1.081382 S    
C60   C64   1.528440 S    
C89   H49   1.111795 S    
C115  H75   1.113967 S    
C18   N18   1.341903 A    
C2    N34   1.442764 S    
C17   H13   1.074664 S    
N2    Ni2   1.881651 S    
C95   H55   1.112372 S    
C28   N28   1.341323 A    
N39   O14   1.300639 A    
C5    N5    1.322486 A    
C37   C69   1.421723 S    
C73   C79   1.390786 A    
C27   O19   1.386913 S    
C50   C54   1.536512 S    
C54   C61   1.536547 S    
C74   C80   1.400274 A    
C103  C107  1.407689 A    
C110  H66   1.113355 S    
N35   O6    1.301550 A    
N33   O2    1.301658 A    
C28   O20   1.382747 S    
C11   H7    1.075839 S    
N13   Ni6   1.843903 S    
C25   O17   1.386872 S    
C34   C81   1.426123 S    
C102  C106  1.406389 A    
C61   C62   1.545445 S    
C50   C57   1.526403 S    
C79   H43   1.082959 S    
N9    Ni2   1.879836 S    
C16   N16   1.330026 A    
N30   Ni1   1.891362 S    
C111  N39   1.466869 S    
N15   Ni8   1.843903 S    
C52   H32   1.110351 S    
C5    H1    1.076974 S    
O19   C115  1.410208 S    
C77   H41   1.082953 S    
C1    N1    1.327043 A    
C10   H6    1.076995 S    
C53   C57   1.532349 S    
C104  C108  1.406384 A    
C78   C82   1.404623 A    
C19   N19   1.339817 A    
C49   C50   1.544538 S    
C86   C90   1.497712 S    
C49   C53   1.548842 S    
C7    C39   1.374334 A    
C92   H48   1.112425 S    
C9    H5    1.075850 S    
C113  H69   1.114075 S    
C1    C33   1.374223 A    
C57   C61   1.527586 S    
C10   N10   1.319258 A    
N40   O15   1.302342 A    
C12   C44   1.371726 A    
C91   H47   1.112458 S    
C23   H19   1.080032 S    
C110  N38   1.465048 S    
N29   Ni2   1.878279 S    
C12   H8    1.077007 S    
C21   N21   1.331327 A    
N7    Ni7   1.881538 S    
C30   H22   1.080801 S    
N5    Ni5   1.881538 S    
C9    N9    1.324590 A    
C62   H34   1.110089 S    
C116  H80   1.109241 S    
C19   H15   1.074668 S    
C82   C86   1.396197 A    
C55   H27   1.110147 S    
C21   C45   1.374658 A    
C18   H14   1.080576 S    
C90   C96   1.507628 S    
C51   C55   1.549033 S    
C55   C64   1.550445 S    
N2    N30   1.381173 A    
C97   C101  1.402852 A    
C83   C87   1.397380 A    
C24   H20   1.078519 S    
C56   C63   1.536256 S    
C23   C47   1.374685 A    
C13   C45   1.376255 A    
N7    N27   1.381174 A    
C13   N13   1.330935 A    
N36   O7    1.301262 A    
N10   Ni1   1.861698 S    
C17   C41   1.389747 A    
O20   C116  1.411691 S    
C31   H23   1.080262 S    
C36   C83   1.426044 S    
N23   Ni3   1.881184 S    
C16   C48   1.371936 A    
C66   C94   1.500805 S    
C52   C59   1.526460 S    
N9    N17   1.394362 A    
C6    N6    1.325610 A    
N28   Ni7   1.857811 S    
C50   H30   1.110343 S    
C17   N17   1.339820 A    
N20   Ni8   1.880938 S    
C65   C69   1.384720 A    
C56   H28   1.111041 S    
C79   C83   1.399547 A    
C63   H35   1.110290 S    
N3    Ni3   1.862976 S    
C80   C84   1.404609 A    
N13   N21   1.394602 A    
C97   C98   1.377424 A    
C69   C73   1.407434 A    
C33   C82   1.447346 S    
C61   H33   1.110314 S    
N16   N24   1.394695 A    
C9    C41   1.378576 A    
C78   H42   1.082370 S    
C29   N29   1.343896 A    
C6    H2    1.077909 S    
C28   C40   1.387068 A    
N16   Ni7   1.856523 S    
C52   C56   1.536291 S    
C84   C88   1.396246 A    
C27   C39   1.370074 A    
C85   C89   1.501757 S    
N6    Ni6   1.868449 S    
C29   H21   1.080291 S    
C74   H38   1.082079 S    
C67   C95   1.494156 S    
N14   N22   1.394695 A    
C89   C95   1.510649 S    
C8    C40   1.381275 A    
N24   Ni4   1.868587 S    
N11   N19   1.394360 A    
C24   C48   1.367830 A    
C98   C109  1.506037 S    
N12   N20   1.394454 A    
C90   H50   1.111476 S    
C97   C110  1.507781 S    
C112  N40   1.465045 S    
N37   O9    1.302515 A    
C4    N36   1.442821 S    
C4    C36   1.369924 A    
C113  H71   1.109079 S    
