data_mof_unit_16.cif
_audit_creation_date              2013-03-05T16:16:19-0500
_audit_creation_method            fapswitch 2.2
_symmetry_space_group_name_H-M    P1
_symmetry_Int_Tables_number       1
_space_group_crystal_system       triclinic
_cell_length_a                    8.442812
_cell_length_b                    19.084105
_cell_length_c                    26.973845
_cell_angle_alpha                 98.789894
_cell_angle_beta                  92.030824
_cell_angle_gamma                 85.860956
_cell_volume                      4282.56107073

loop_
_atom_site_label
_atom_site_type_symbol
_atom_site_description
_atom_site_fract_x
_atom_site_fract_y
_atom_site_fract_z
_atom_type_partial_charge
P1    P     P_3+3 0.084800 0.558370 0.611580 0.465086
O1    O     O_2   0.914730 0.537460 0.618690 -0.382700
O2    O     O_3   0.146720 0.537410 0.558510 -0.374143
O3    O     O_3   0.666360 0.409390 0.586570 -0.307328
O4    O     O_2   0.825524 0.445344 0.673074 -0.466255
O5    O     O_3   0.074324 0.652088 0.617337 -0.634503
O6    O     O_3   0.603586 0.355741 0.674822 -0.638308
H1    H     H_    0.835545 0.315216 0.654524 0.061079
C1    C     C_3   0.759576 0.280157 0.723014 0.143461
P2    P     P_3+3 0.628800 0.338360 0.458800 0.529689
P3    P     P_3+3 0.106632 0.280320 0.557401 0.468938
O7    O     O_2   0.806150 0.327840 0.473120 -0.365933
O8    O     O_3   0.073640 0.373350 0.561550 -0.365347
O9    O     O_2   0.945570 0.249973 0.540021 -0.408421
O10   O     O_3   0.661687 0.329914 0.393622 -0.620546
O11   O     O_3   0.131964 0.263313 0.619155 -0.532618
C2    C     C_3   0.255861 0.302878 0.642136 0.324605
H2    H     H_    0.241630 0.359213 0.635958 0.034217
H3    H     H_    0.371057 0.278867 0.627038 0.137433
C3    C     C_3   0.255549 0.303438 0.698663 0.195117
H4    H     H_    0.346338 0.339436 0.716250 0.106550
H5    H     H_    0.136849 0.325252 0.712574 0.090943
C4    C     C_3   0.069926 0.294893 0.364697 0.973095
H6    H     H_    0.948964 0.312970 0.378063 -0.070985
C5    C     C_3   0.069640 0.266777 0.306599 0.282480
Ba1   Ba    Ba6+2 0.852670 0.466460 0.522850 1.587366
C6    C     C_3   0.950955 0.688100 0.647893 1.015004
H7    H     H_    0.853655 0.653738 0.651586 0.044395
C7    C     C_3   0.014906 0.712950 0.701573 -0.781338
H8    H     H_    0.044559 0.665446 0.719991 0.232048
H9    H     H_    0.124265 0.741101 0.700081 0.204235
C8    C     C_3   0.582418 0.280301 0.357866 0.732071
C9    C     C_3   0.549342 0.208135 0.374519 0.922480
H10   H     H_    0.461082 0.219241 0.404549 -0.068658
P4    P     P_3+3 0.104900 0.441570 0.388420 0.419942
O12   O     O_2   0.274960 0.462520 0.381280 -0.341186
O13   O     O_3   0.042980 0.462530 0.441480 -0.440225
O14   O     O_3   0.523340 0.590550 0.413420 -0.380474
O15   O     O_3   0.171831 0.350714 0.375725 -0.575600
P5    P     P_3+3 0.095642 0.719402 0.441398 0.439059
O16   O     O_3   0.635780 0.584660 0.526290 -0.346498
O17   O     O_3   0.116060 0.626590 0.438450 -0.383484
O18   O     O_2   0.249809 0.749870 0.465552 -0.410311
O19   O     O_3   0.090351 0.740923 0.380257 -0.565169
Ba2   Ba    Ba6+2 0.337150 0.533490 0.477140 1.579095
P6    P     P_3+3 0.655818 0.431893 0.651789 0.460770
C10   C     C_3   0.724189 0.299940 0.669834 0.954910
H11   H     H_    0.652440 0.254949 0.733261 0.111254
O20   O     O_3   0.553920 0.415280 0.473710 -0.331217
C11   C     C_3   0.454394 0.678854 0.633313 0.303748
H12   H     H_    0.347105 0.711606 0.623386 0.085278
H13   H     H_    0.434311 0.621780 0.623150 0.080560
C12   C     C_3   0.494144 0.696843 0.690023 -0.375174
H14   H     H_    0.615854 0.673690 0.696362 0.183091
P7    P     P_3+3 0.565549 0.673377 0.543296 0.475468
O21   O     O_2   0.383540 0.672140 0.526840 -0.370899
O22   O     O_3   0.586161 0.694467 0.608344 -0.575256
C13   C     C_3   0.102859 0.677888 0.345654 0.257009
H15   H     H_    0.221930 0.651243 0.349637 0.131396
H16   H     H_    0.011628 0.641317 0.351755 0.075369
C14   C     C_3   0.080494 0.693795 0.291892 0.205102
H17   H     H_    0.092345 0.642425 0.266273 0.082896
H18   H     H_    0.178067 0.724973 0.282015 0.045210
P8    P     P_3+3 0.539943 0.574593 0.347692 0.437206
C15   C     C_3   0.556896 0.712952 0.360675 0.485337
O23   O     O_2   0.385504 0.541156 0.327224 -0.441588
O24   O     O_3   0.521676 0.655435 0.323439 -0.527824
H19   H     H_    0.499246 0.710040 0.396693 0.098886
H20   H     H_    0.548093 0.789682 0.307823 0.226594
C16   C     C_3   0.488708 0.782203 0.342588 -0.614660
H21   H     H_    0.361051 0.777557 0.333223 0.219977
C17   C     C_R   0.054799 0.454709 0.178888 0.512033
O25   O     O_2   0.103372 0.406240 0.201131 -0.648880
N1    N     N_R   0.955431 0.509443 0.203245 -0.166496
C18   C     C_R   0.899439 0.564365 0.177588 0.521827
C19   C     C_2   0.755875 0.519163 0.269430 -0.161538
C20   C     C_3   0.709908 0.511996 0.322529 0.141090
C21   C     C_1   0.990085 0.487436 0.341656 0.232810
C22   C     C_2   0.033027 0.493663 0.295431 -0.326995
C23   C     C_2   0.910366 0.508742 0.255537 0.149365
C24   C     C_R   0.037904 0.508294 0.101732 -0.103205
C25   C     C_R   0.099292 0.453462 0.128206 -0.056106
C26   C     C_R   0.202807 0.398685 0.103043 0.124675
C27   C     C_R   0.938855 0.564153 0.126781 -0.074265
C28   C     C_2   0.851139 0.515366 0.358207 -0.347107
H22   H     H_    0.156596 0.486213 0.285666 0.193149
C29   C     C_2   0.360635 0.495584 0.638777 -0.391275
C30   C     C_R   0.235360 0.457508 0.976548 0.086602
C31   C     C_R   0.028485 0.552839 0.969940 -0.155911
C32   C     C_R   0.152237 0.505088 0.947801 0.027954
C33   C     C_R   0.363752 0.413913 0.954168 -0.300118
C34   C     C_R   0.403849 0.413503 0.904103 0.099648
C35   C     C_R   0.315143 0.457665 0.873982 -0.064456
C36   C     C_R   0.190086 0.503745 0.896225 -0.102119
C37   C     C_R   0.100762 0.547942 0.866764 -0.103304
C38   C     C_R   0.144137 0.549917 0.816731 0.553485
N2    N     N_R   0.267264 0.505009 0.794709 -0.159669
C39   C     C_R   0.347084 0.456942 0.822303 0.506223
C40   C     C_2   0.463307 0.508615 0.728531 0.009000
C41   C     C_3   0.504898 0.505882 0.673134 0.133984
C42   C     C_1   0.217973 0.516062 0.655640 0.233936
C43   C     C_2   0.181466 0.507770 0.701782 -0.350382
C44   C     C_2   0.309074 0.506367 0.742225 0.132632
O26   O     O_2   0.444273 0.412596 0.801599 -0.621660
C45   C     C_R   0.187102 0.454699 0.026520 0.058442
C46   C     C_R   0.076863 0.507835 0.050316 0.060104
C47   C     C_R   0.007725 0.561271 0.023260 0.029205
C48   C     C_R   0.245222 0.400086 0.053486 -0.292577
H23   H     H_    0.439368 0.380512 0.975230 0.126756
H24   H     H_    0.321123 0.355731 0.036411 0.124412
O27   O     O_2   0.816512 0.614127 0.199089 -0.552472
C49   C     C_R   0.888138 0.621060 0.101460 -0.141758
H25   H     H_    0.662261 0.526749 0.241746 0.156895
H26   H     H_    0.823933 0.667555 0.121377 0.170651
C50   C     C_R   0.923318 0.586104 0.936915 0.565778
C51   C     C_R   0.965280 0.587231 0.887266 -0.247089
O28   O     O_2   0.072638 0.592390 0.793037 -0.630803
C52   C     C_R   0.927118 0.622093 0.051537 0.059442
H27   H     H_    0.886215 0.616619 0.864085 0.189903
H28   H     H_    0.058970 0.504374 0.710951 0.207607
H29   H     H_    0.839841 0.543354 0.396277 0.155651
H30   H     H_    0.376678 0.475210 0.599330 0.202521
N3    N     N_R   0.515437 0.956375 0.512316 -0.071365
N4    N     N_R   0.463215 0.024224 0.514684 -0.080515
C53   C     C_2   0.399194 0.292551 0.512390 0.299142
C54   C     C_3   0.272764 0.240592 0.513882 0.050096
C55   C     C_2   0.346025 0.169211 0.522605 -0.273025
C56   C     C_2   0.500957 0.150777 0.511769 0.035909
C57   C     C_2   0.601861 0.206875 0.497629 -0.276545
C58   C     C_1   0.538826 0.271724 0.492453 0.151535
N5    N     N_R   0.721513 0.054864 0.505085 -0.100301
N6    N     N_R   0.774051 0.986570 0.502776 -0.092741
C59   C     C_R   0.671837 0.935700 0.506637 0.150584
C60   C     C_R   0.564591 0.075251 0.511325 0.118455
C61   C     C_R   0.632137 0.810794 0.523243 -0.083651
C62   C     C_R   0.674984 0.736994 0.515043 0.277767
C63   C     C_R   0.917211 0.758538 0.475744 0.275212
C64   C     C_R   0.871291 0.831667 0.480962 -0.356746
C65   C     C_R   0.726653 0.858641 0.503882 0.016688
C66   C     C_R   0.817173 0.711997 0.491905 -0.437771
H31   H     H_    0.268087 0.130812 0.532277 0.164524
H32   H     H_    0.725863 0.193107 0.489749 0.205960
H33   H     H_    0.945763 0.866811 0.465911 0.167071
H34   H     H_    0.851547 0.655670 0.487117 0.171906
O29   O     O_3   0.228850 0.245962 0.292106 -0.517410
C67   C     C_3   0.247169 0.227753 0.239651 -0.186341
H35   H     H_    0.238287 0.275850 0.220986 0.162551
H36   H     H_    0.163252 0.188679 0.221964 0.101892
H37   H     H_    0.368452 0.202444 0.232970 0.164242
N7    N     N_3   0.972530 0.204900 0.295571 -0.233432
H38   H     H_    0.042188 0.158066 0.297753 0.121197
H39   H     H_    0.925989 0.199602 0.258859 0.074708
N8    N     N_3   0.002236 0.324848 0.280805 -0.268847
H40   H     H_    0.970454 0.306241 0.243569 0.120935
H41   H     H_    0.091262 0.359357 0.279806 0.168414
O30   O     O_3   0.880078 0.746264 0.625856 -0.631025
C68   C     C_3   0.993498 0.788081 0.609309 -0.205832
H42   H     H_    0.060328 0.758306 0.577083 0.174682
H43   H     H_    0.076366 0.809002 0.639933 0.107560
H44   H     H_    0.929453 0.834739 0.595979 0.159117
N9    N     N_3   0.901477 0.760241 0.732668 -0.178627
H45   H     H_    0.860134 0.802673 0.714335 0.174599
H46   H     H_    0.805642 0.731943 0.739612 0.146656
N10   N     N_3   0.687576 0.261163 0.315185 -0.221570
H47   H     H_    0.735354 0.306580 0.306558 0.040864
H48   H     H_    0.626446 0.237451 0.283277 0.120070
O31   O     O_3   0.438155 0.313569 0.342321 -0.588170
C69   C     C_3   0.458796 0.365711 0.311190 0.112259
H49   H     H_    0.500343 0.342070 0.273350 0.019748
H50   H     H_    0.537835 0.406146 0.329667 0.105760
H51   H     H_    0.342570 0.392232 0.303238 0.160614
O32   O     O_3   0.900007 0.234532 0.722843 -0.612937
C70   C     C_3   0.889660 0.186046 0.757027 -0.237216
H52   H     H_    0.875759 0.214004 0.796059 0.120834
H53   H     H_    0.001560 0.151713 0.756053 0.179567
H54   H     H_    0.790936 0.150740 0.746259 0.132537
O33   O     O_3   0.696486 0.179618 0.392509 -0.710343
C71   C     C_3   0.701425 0.105841 0.393611 -0.340134
H55   H     H_    0.597432 0.090587 0.412426 0.156275
H56   H     H_    0.808302 0.090660 0.415641 0.171237
H57   H     H_    0.714197 0.075795 0.355160 0.188486
O34   O     O_3   0.490464 0.163258 0.331445 -0.634104
C72   C     C_3   0.383201 0.114529 0.342877 -0.128861
H58   H     H_    0.337745 0.124985 0.381646 0.125475
H59   H     H_    0.440630 0.059877 0.336320 0.102564
H60   H     H_    0.281219 0.114432 0.316168 0.174061
O35   O     O_3   0.661749 0.242652 0.636861 -0.664125
C73   C     C_3   0.772588 0.183687 0.626153 -0.134219
H61   H     H_    0.757457 0.145240 0.652304 0.149944
H62   H     H_    0.897669 0.197761 0.627390 0.206414
H63   H     H_    0.747706 0.156544 0.587794 0.165559
N11   N     N_3   0.490801 0.773986 0.705895 -0.204998
H64   H     H_    0.573432 0.795208 0.685387 0.160905
H65   H     H_    0.378710 0.796770 0.697331 0.103421
N12   N     N_3   0.391789 0.664255 0.721386 -0.215976
H66   H     H_    0.297351 0.642719 0.700129 0.116173
H67   H     H_    0.346276 0.701348 0.750929 0.168962
N13   N     N_3   0.779722 0.344834 0.758964 -0.188765
H68   H     H_    0.889565 0.364190 0.753564 0.112513
H69   H     H_    0.781701 0.332159 0.795331 0.120465
O36   O     O_3   0.289060 0.233853 0.709653 -0.541792
C74   C     C_3   0.300763 0.236067 0.762165 -0.152771
H70   H     H_    0.190304 0.260593 0.780758 0.142479
H71   H     H_    0.404686 0.265102 0.778314 0.139210
H72   H     H_    0.318535 0.180856 0.770481 0.137034
O37   O     O_3   0.926180 0.725224 0.284409 -0.536125
C75   C     C_3   0.932133 0.798274 0.281971 -0.094345
H73   H     H_    0.996483 0.806365 0.248233 0.107910
H74   H     H_    0.987839 0.826701 0.316563 0.137194
H75   H     H_    0.809061 0.821911 0.278659 0.132093
N14   N     N_3   0.728815 0.713657 0.367847 -0.143052
H76   H     H_    0.766389 0.672780 0.388068 0.057780
H77   H     H_    0.756753 0.760534 0.390464 0.096437
N15   N     N_3   0.502403 0.845256 0.380584 -0.209030
H78   H     H_    0.618419 0.861328 0.381998 0.126039
H79   H     H_    0.475586 0.833691 0.415891 0.157623
N16   N     N_3   0.267500 0.340936 0.127506 -0.174338
H80   H     H_    0.233794 0.293385 0.106536 0.090676
H81   H     H_    0.391419 0.340562 0.127499 0.095550
N17   N     N_3   0.585063 0.523098 0.766459 -0.193092
H82   H     H_    0.673156 0.481603 0.761466 0.170746
H83   H     H_    0.636587 0.569209 0.760532 0.101926
N18   N     N_3   0.537748 0.368470 0.884586 -0.173923
H84   H     H_    0.517361 0.316039 0.887995 0.092216
H85   H     H_    0.638012 0.382728 0.906677 0.088644
O38   O     O_3   0.774035 0.614440 0.951511 -0.640431
C76   C     C_3   0.669006 0.559307 0.944391 -0.229886
H86   H     H_    0.704526 0.517829 0.968274 0.137796
H87   H     H_    0.660569 0.534987 0.904212 0.143622
H88   H     H_    0.548627 0.582004 0.955646 0.178222
N19   N     N_3   0.909067 0.690283 0.034809 -0.214860
H89   H     H_    0.789511 0.702068 0.026087 0.168785
H90   H     H_    0.980441 0.692857 0.004411 0.128213
N20   N     N_3   0.499748 0.838137 0.554013 -0.208790
H91   H     H_    0.521739 0.825135 0.589978 0.129946
H92   H     H_    0.397555 0.814589 0.538939 0.153293
O39   O     O_3   0.358984 0.363141 0.525130 -0.672959
C77   C     C_3   0.252289 0.381881 0.487660 0.137009
H93   H     H_    0.153932 0.346440 0.476777 0.096619
H94   H     H_    0.310925 0.384184 0.452586 0.157164
H95   H     H_    0.198646 0.433200 0.503708 0.227514
O40   O     O_3   0.144658 0.240553 0.389761 -0.647454
C78   C     C_3   0.038526 0.198298 0.408487 -0.371585
H96   H     H_    0.989953 0.159816 0.378141 0.188931
H97   H     H_    0.944408 0.230055 0.430291 0.238841
H98   H     H_    0.104962 0.166387 0.434392 0.165006

loop_
_geom_bond_atom_site_label_1
_geom_bond_atom_site_label_2
_geom_bond_distance
_ccdc_geom_bond_type
C40   C44   1.371454 D    
P7    O21   1.585120 D    
C31   C50   1.421398 A    
C35   C36   1.413404 A    
C6    C7    1.544260 S    
O36   C74   1.410783 S    
C45   C46   1.419048 A    
C37   C38   1.417544 A    
C62   C66   1.392004 A    
N5    C60   1.362482 A    
C56   C57   1.515539 S    
C24   C27   1.408360 A    
N17   H83   1.045164 S    
C71   H55   1.107618 S    
C43   H28   1.080588 S    
C61   C62   1.414326 A    
O3    P6    1.749820 S    
C70   H52   1.111285 S    
C1    N13   1.464773 S    
C61   C65   1.422578 A    
C77   H95   1.082571 S    
N10   H48   1.046473 S    
C27   C49   1.402889 A    
C74   H71   1.111732 S    
N3    C59   1.357722 A    
C73   H63   1.104340 S    
C6    H7    1.103785 S    
O30   C68   1.415108 S    
P4    O13   1.526305 S    
C3    O36   1.411222 S    
C67   H35   1.109171 S    
C64   H33   1.082656 S    
C72   H59   1.109454 S    
O29   C67   1.415661 S    
C26   N16   1.434630 S    
P3    O9    1.545896 D    
N15   H79   1.045812 S    
C18   C27   1.421050 A    
C46   C47   1.422875 A    
C13   H16   1.108670 S    
C78   H96   1.101586 S    
N2    C39   1.390504 Am   
C2    C3    1.523251 S    
C26   C48   1.400749 A    
C73   H62   1.106421 S    
P1    O1    1.543814 D    
C55   H31   1.085466 S    
C14   H18   1.112830 S    
O34   C72   1.417399 S    
O16   P7    1.750864 S    
O14   Ba2   2.760737 S    
Ba1   Ba2   4.634930 S    
C29   C42   1.314130 D    
C53   C58   1.322478 D    
C69   H51   1.100747 S    
C76   H86   1.113286 S    
Ba2   O21   2.824932 S    
O19   C13   1.405332 S    
N6    C59   1.362443 A    
C15   O24   1.411042 S    
C74   H72   1.109069 S    
C75   H75   1.108703 S    
C11   H13   1.105614 S    
C4    H6    1.108696 S    
C28   H29   1.086671 S    
N13   H68   1.045548 S    
O37   C75   1.410228 S    
N8    H41   1.038132 S    
C37   C51   1.403814 A    
C47   C52   1.429823 A    
C67   H36   1.108698 S    
C33   C34   1.402537 A    
C14   O37   1.415436 S    
P2    Ba1   3.417379 S    
C13   C14   1.528959 S    
C69   H50   1.105616 S    
C20   C28   1.504298 S    
C68   H43   1.108979 S    
N1    C23   1.476138 S    
O39   C77   1.400119 S    
C38   N2    1.388379 Am   
C68   H42   1.111016 S    
C36   C37   1.407929 A    
N20   H92   1.042580 S    
C49   H26   1.084105 S    
N17   H82   1.043026 S    
N9    H46   1.042174 S    
C32   C36   1.434438 A    
O14   P8    1.761285 S    
P5    O18   1.545989 D    
C45   C48   1.410219 A    
C77   H94   1.091390 S    
O3    Ba1   2.761462 S    
C39   O26   1.220324 D    
C11   C12   1.546026 S    
C74   H70   1.112971 S    
C9    O33   1.419642 S    
C43   C44   1.507637 S    
C16   N15   1.465103 S    
C42   C43   1.327983 D    
C7    N9    1.461477 S    
C38   O28   1.220761 D    
N3    N4    1.330171 A    
P3    C54   1.900350 S    
C9    H10   1.106274 S    
C19   C20   1.525687 S    
N18   H84   1.045652 S    
C17   N1    1.389032 Am   
N1    C18   1.388528 Am   
C72   H60   1.102843 S    
C31   C32   1.420972 A    
O31   C69   1.420015 S    
N15   H78   1.045030 S    
O11   C2    1.404850 S    
C57   H32   1.081321 S    
C11   H12   1.111352 S    
C13   H15   1.102715 S    
C12   H14   1.107015 S    
C5    N8    1.467206 S    
O2    Ba2   2.755083 S    
C24   C25   1.413299 A    
C75   H73   1.112333 S    
O7    Ba1   2.824906 S    
C73   H61   1.109201 S    
P1    O2    1.526548 S    
P4    O12   1.544154 D    
P8    O23   1.540643 D    
P4    O15   1.770264 S    
C72   H58   1.110994 S    
P2    C58   1.886616 S    
N14   H76   1.043434 S    
C7    H8    1.107887 S    
C56   C60   1.499873 S    
C67   H37   1.108754 S    
P3    O11   1.748072 S    
P5    O17   1.757039 S    
O5    C6    1.421595 S    
C30   C33   1.412205 A    
Ba2   O20   2.792749 S    
C52   N19   1.437453 S    
N12   H66   1.037446 S    
C15   H19   1.112569 S    
P5    C63   1.846778 S    
C31   C47   1.438133 A    
C2    H2    1.110292 S    
C61   N20   1.435174 S    
O12   Ba2   2.780668 S    
O1    Ba1   2.780203 S    
C40   N17   1.435212 S    
C4    O40   1.421343 S    
O6    P6    1.755104 S    
N2    C44   1.475604 S    
C70   H53   1.108919 S    
P2    O7    1.539749 D    
C50   O38   1.381192 S    
C21   C28   1.316711 D    
C69   H49   1.109156 S    
N14   H77   1.040004 S    
C30   C32   1.415242 A    
P7    C62   1.844731 S    
C25   C26   1.417944 A    
C68   H44   1.108630 S    
P7    O22   1.744572 S    
C53   C54   1.514035 S    
C12   N12   1.462697 S    
N7    H39   1.045378 S    
O8    Ba1   2.770915 S    
Ba1   O20   2.965784 S    
C5    O29   1.424841 S    
N20   H91   1.044664 S    
C10   O35   1.420224 S    
C55   C56   1.359953 D    
P4    Ba2   3.395606 S    
P1    C42   1.842849 S    
N19   H89   1.044683 S    
C16   H21   1.104960 S    
C53   O39   1.359752 S    
O32   C70   1.411434 S    
C29   C41   1.509902 S    
C63   C64   1.408395 A    
C70   H54   1.112299 S    
C6    O30   1.422705 S    
P6    C41   1.868866 S    
C24   C46   1.435256 A    
N10   H47   1.042541 S    
C78   H98   1.107562 S    
O40   C78   1.403280 S    
C21   C22   1.335580 D    
C11   O22   1.393672 S    
O33   C71   1.410393 S    
C34   N18   1.434374 S    
P8    O24   1.760384 S    
C19   C23   1.362245 D    
C3    H5    1.112250 S    
C17   O25   1.217037 D    
N5    N6    1.339025 A    
O10   C8    1.428720 S    
C29   H30   1.085304 S    
C71   H56   1.108231 S    
N18   H85   1.045780 S    
Ba1   O13   2.754439 S    
C59   C65   1.501061 S    
C9    O34   1.430711 S    
N16   H81   1.045737 S    
O2    Ba1   2.973195 S    
O4    P6    1.548608 D    
P4    C21   1.850752 S    
C18   O27   1.221827 D    
C51   H27   1.083816 S    
N4    C60   1.357153 A    
P2    O10   1.770736 S    
C1    C10   1.551890 S    
C8    C9    1.558852 S    
C33   H23   1.078375 S    
C19   H25   1.085326 S    
C57   C58   1.336721 D    
H1    C10   1.115037 S    
O35   C73   1.411810 S    
C7    H9    1.106147 S    
C76   H87   1.113831 S    
N9    H45   1.044749 S    
C40   C41   1.539364 S    
N11   H64   1.045630 S    
C49   C52   1.400912 A    
C30   C45   1.431775 A    
P3    O8    1.764161 S    
C50   C51   1.401079 A    
P1    Ba1   3.395085 S    
C54   C55   1.503225 S    
C4    O15   1.407435 S    
C63   C66   1.394618 A    
C8    N10   1.464304 S    
N16   H80   1.045677 S    
C77   H93   1.111906 S    
C34   C35   1.416444 A    
C2    H3    1.108351 S    
C48   H24   1.078317 S    
C4    C5    1.576920 S    
C14   H17   1.110088 S    
C12   N11   1.467541 S    
H20   C16   1.111629 S    
C15   N14   1.458260 S    
C71   H57   1.110588 S    
C64   C65   1.415608 A    
N19   H90   1.043786 S    
C22   C23   1.511921 S    
P5    O19   1.757741 S    
C76   H88   1.109441 S    
C3    H4    1.111383 S    
C1    H11   1.116773 S    
O38   C76   1.411058 S    
C8    O31   1.412769 S    
P1    O5    1.767478 S    
C75   H74   1.112288 S    
P8    C20   1.876353 S    
O16   Ba2   2.964952 S    
N7    H38   1.042082 S    
C5    N7    1.473177 S    
C1    O32   1.419171 S    
N13   H69   1.044908 S    
C78   H97   1.095115 S    
N12   H67   1.045850 S    
C66   H34   1.082409 S    
P2    O20   1.555610 S    
O13   Ba2   2.974153 S    
C35   C39   1.427013 A    
O17   Ba2   2.771292 S    
C22   H22   1.079171 S    
C17   C25   1.426805 A    
C15   C16   1.543817 S    
Ba1   O16   2.793193 S    
O6    C10   1.413613 S    
N8    H40   1.045240 S    
N11   H65   1.045867 S    
