data_mof_unit_4530.cif
_audit_creation_date              2012-12-11T15:54:56-0500
_audit_creation_method            fapswitch 2.2
_symmetry_space_group_name_H-M    P1
_symmetry_Int_Tables_number       1
_space_group_crystal_system       triclinic
_cell_length_a                    17.731125
_cell_length_b                    24.407331
_cell_length_c                    15.16904
_cell_angle_alpha                 89.99873
_cell_angle_beta                  126.294875
_cell_angle_gamma                 89.735258
_cell_volume                      5290.93505996

loop_
_atom_site_label
_atom_site_type_symbol
_atom_type_description
_atom_site_fract_x
_atom_site_fract_y
_atom_site_fract_z
_atom_type_partial_charge
Br1   Br    Br    0.746672 0.064791 0.402808 -0.209783
Br2   Br    Br    0.835795 0.815626 0.780366 -0.304491
Br3   Br    Br    0.341751 0.684555 0.781641 -0.310301
Br4   Br    Br    0.317426 0.312525 0.776687 -0.308741
Br5   Br    Br    0.592462 0.239953 0.976132 -0.386949
Br6   Br    Br    0.593518 0.761078 0.985473 -0.391713
Br7   Br    Br    0.093055 0.740285 0.977203 -0.381952
Br8   Br    Br    0.231242 0.251243 0.172738 -0.326317
Br9   Br    Br    0.634663 0.982250 0.489897 -0.350168
Br10  Br    Br    0.580949 0.106303 0.528043 -0.312759
Br11  Br    Br    0.138059 0.479540 0.494046 -0.354754
Br12  Br    Br    0.754738 0.930271 0.390547 -0.166635
Br13  Br    Br    0.085477 0.605129 0.527601 -0.318458
Br14  Br    Br    0.387598 0.889165 0.548392 -0.314710
Br15  Br    Br    0.331879 0.994342 0.613004 -0.415557
Br16  Br    Br    0.886141 0.391387 0.550077 -0.344066
Br17  Br    Br    0.830517 0.498685 0.609043 -0.421114
Br18  Br    Br    0.903919 0.119310 0.645681 -0.383863
Br19  Br    Br    0.894693 0.882321 0.646615 -0.330357
Br20  Br    Br    0.400357 0.618592 0.643530 -0.330357
Br21  Br    Br    0.388712 0.382613 0.648165 -0.325798
Br22  Br    Br    0.244856 0.563052 0.400903 -0.212293
Br23  Br    Br    0.255265 0.428664 0.389420 -0.148269
Br24  Br    Br    0.103501 0.066457 0.668867 -0.499312
Br25  Br    Br    0.109457 0.939984 0.660811 -0.490250
Br26  Br    Br    0.601975 0.566492 0.670227 -0.492555
Br27  Br    Br    0.609481 0.440107 0.663014 -0.498461
Br28  Br    Br    0.841122 0.184246 0.781036 -0.327935
C1    C     C_R   0.943445 0.847718 0.091534 -0.165974
C2    C     C_R   0.186908 0.871782 0.092514 0.726242
C3    C     C_R   0.388815 0.685562 0.001201 -0.041666
C4    C     C_R   0.674492 0.001817 0.720519 -0.312696
C5    C     C_R   0.174939 0.502345 0.722711 -0.308274
C6    C     C_R   0.958381 0.999794 0.280702 0.262983
C7    C     C_R   0.460710 0.499331 0.283517 0.255160
C8    C     C_R   0.250324 0.954257 0.307359 -0.052712
C9    C     C_R   0.247100 0.044540 0.308778 0.007808
C10   C     C_R   0.751644 0.454566 0.306916 -0.049628
C11   C     C_R   0.749129 0.545209 0.306997 -0.035185
C12   C     C_R   0.943888 0.045282 0.692464 0.332934
C13   C     C_R   0.686263 0.628502 0.092883 0.729385
C14   C     C_R   0.944385 0.954427 0.693117 0.285412
C15   C     C_R   0.442149 0.544883 0.691602 0.319172
C16   C     C_R   0.442986 0.454018 0.693062 0.278976
C17   C     C_R   0.686690 0.371580 0.092280 0.723637
C18   C     C_R   0.294187 0.999257 0.372676 0.092567
C19   C     C_R   0.796501 0.499939 0.370827 0.109921
C20   C     C_R   0.925805 0.999785 0.626615 0.051891
C21   C     C_R   0.423499 0.499186 0.625905 0.058058
C22   C     C_R   0.182564 0.857109 0.001536 -0.191739
C23   C     C_R   0.183305 0.144095 0.005889 -0.152182
C24   C     C_R   0.682041 0.356799 0.001083 -0.187464
C25   C     C_R   0.945358 0.152823 0.091318 -0.177274
C26   C     C_R   0.681396 0.643953 0.002055 -0.188423
C27   C     C_3   0.874026 0.045112 0.346102 0.644519
C28   C     C_3   0.905644 0.943491 0.370936 0.630159
C29   C     C_3   0.373473 0.543398 0.346075 0.642642
C30   C     C_3   0.408785 0.442067 0.374415 0.637560
C31   C     C_3   0.873678 0.049671 0.447291 0.160172
C32   C     C_3   0.886880 0.945427 0.457570 0.181281
C33   C     C_3   0.372366 0.548368 0.446641 0.157801
C34   C     C_3   0.387804 0.444137 0.459327 0.181903
C35   C     C_3   0.040086 0.009010 0.475385 -0.693990
C36   C     C_R   0.445643 0.348511 0.093623 -0.155935
C37   C     C_3   0.540531 0.509242 0.477726 -0.687644
C38   C     C_3   0.943276 0.999391 0.365713 -0.270228
C39   C     C_3   0.444635 0.498504 0.367825 -0.275295
C40   C     C_3   0.927690 0.999718 0.527751 -0.288296
C41   C     C_3   0.426887 0.498885 0.528214 -0.295100
C42   C     C_R   0.861274 0.154651 0.910437 0.485238
C43   C     C_R   0.858273 0.846226 0.910100 0.456788
C44   C     C_R   0.361575 0.654755 0.910711 0.486842
C45   C     C_R   0.357753 0.345834 0.912393 0.454085
C46   C     C_3   0.034673 0.003887 0.572534 0.535756
C47   C     C_R   0.445364 0.652763 0.091510 -0.181449
C48   C     C_3   0.534187 0.503743 0.574148 0.530153
C49   C     C_3   0.772714 0.259854 0.884980 -0.434106
C50   C     C_3   0.767475 0.742880 0.885201 -0.437138
C51   C     C_3   0.273073 0.759988 0.885418 -0.433953
C52   C     C_3   0.228248 0.282925 0.931184 -0.477101
C53   C     C_3   0.210030 0.803385 0.882593 0.654876
C54   C     C_3   0.172506 0.233115 0.920959 0.725402
C55   C     C_3   0.709614 0.303221 0.882115 0.655371
C56   C     C_3   0.705466 0.699541 0.882915 0.659121
C57   C     C_3   0.403008 0.777920 0.082381 -0.345206
C58   C     C_R   0.097802 0.875623 0.909648 -0.021610
C59   C     C_3   0.355513 0.215510 0.970406 -0.315084
C60   C     C_3   0.902576 0.277818 0.081987 -0.334769
C61   C     C_3   0.900362 0.722461 0.080140 -0.345940
C62   C     C_3   0.773257 0.211290 0.031855 -0.436460
C63   C     C_3   0.772620 0.789408 0.036792 -0.433989
C64   C     C_3   0.273586 0.711501 0.032331 -0.438452
C65   C     C_3   0.363432 0.260663 0.124361 -0.505627
C66   C     C_3   0.836389 0.233078 0.999960 0.140445
C67   C     C_3   0.833333 0.768206 0.000819 0.142865
C68   C     C_3   0.336722 0.733193 0.000374 0.147697
C69   C     C_R   0.098167 0.127074 0.911805 -0.076006
C70   C     C_3   0.334762 0.269424 0.006930 0.164734
C71   C     C_3   0.238533 0.812871 0.000230 0.042985
C72   C     C_3   0.239372 0.189445 0.008679 -0.007911
C73   C     C_3   0.738019 0.312628 0.999722 0.043729
C74   C     C_3   0.736581 0.688425 0.001117 0.037828
C75   C     C_3   0.344587 0.827244 0.075330 -0.519520
C76   C     C_3   0.304312 0.167351 0.979671 -0.545941
C77   C     C_3   0.844047 0.327068 0.074903 -0.524604
C78   C     C_3   0.842562 0.673186 0.073313 -0.520383
C79   C     C_3   0.223946 0.759060 0.044199 0.283552
C80   C     C_R   0.597246 0.375329 0.909227 -0.027983
C81   C     C_3   0.302134 0.217331 0.124274 0.310246
C82   C     C_3   0.723411 0.258784 0.043555 0.283081
C83   C     C_3   0.723705 0.741604 0.048530 0.287096
C84   C     C_3   0.451170 0.976207 0.434209 -0.575137
C85   C     C_3   0.424933 0.060217 0.506762 -0.633187
C86   C     C_3   0.953534 0.475205 0.435481 -0.576014
C87   C     C_3   0.927166 0.560935 0.503455 -0.634263
C88   C     C_R   0.731370 0.955559 0.752161 0.765507
C89   C     C_R   0.733094 0.046301 0.753769 0.760808
C90   C     C_R   0.231529 0.456051 0.754382 0.770206
C91   C     C_R   0.597290 0.625221 0.909965 -0.019619
C92   C     C_R   0.233563 0.546558 0.754946 0.753765
C93   C     C_3   0.552075 0.967858 0.532238 0.925854
C94   C     C_3   0.530782 0.063008 0.592855 0.996504
C95   C     C_3   0.053900 0.467046 0.534872 0.926315
C96   C     C_3   0.032609 0.563531 0.591182 0.996607
C97   C     C_3   0.412386 0.967837 0.573326 0.553509
C98   C     C_3   0.912091 0.470023 0.572536 0.554385
C99   C     C_3   0.392620 0.999994 0.471253 -0.042670
C100  C     C_3   0.894302 0.500663 0.470086 -0.042413
C101  C     C_3   0.571796 0.002791 0.631343 -0.246522
C102  C     C_R   0.187828 0.125695 0.094556 0.776790
C103  C     C_3   0.072671 0.503336 0.632173 -0.247428
C104  C     C_3   0.517471 0.975646 0.671452 -0.367781
C105  C     C_3   0.016837 0.477704 0.671557 -0.364624
C106  C     C_R   0.985035 0.046134 0.252518 -0.141367
C107  C     C_R   0.984776 0.953713 0.251475 -0.071713
C108  C     C_R   0.486484 0.545896 0.254503 -0.136510
C109  C     C_R   0.486532 0.453458 0.253406 -0.062701
C110  C     C_R   0.884540 0.815804 0.000943 -0.042412
C111  C     C_R   0.888629 0.185535 0.000868 -0.039088
C112  C     C_R   0.384923 0.316583 0.004736 -0.044220
F1    F     F_    0.785556 0.034216 0.251764 -0.561770
F2    F     F_    0.711842 0.098877 0.757307 -0.622810
F3    F     F_    0.203961 0.404111 0.749545 -0.624823
F4    F     F_    0.212630 0.599251 0.758092 -0.623451
F5    F     F_    0.562996 0.912441 0.557138 -0.561149
F6    F     F_    0.546094 0.092512 0.680313 -0.582964
F7    F     F_    0.063979 0.411897 0.561691 -0.564807
F8    F     F_    0.046419 0.594139 0.676742 -0.582550
F9    F     F_    0.258709 0.130467 0.201917 -0.732893
F10   F     F_    0.252731 0.856434 0.197390 -0.727262
F11   F     F_    0.752239 0.642747 0.198212 -0.734387
F12   F     F_    0.826920 0.928701 0.268531 -0.593081
F13   F     F_    0.752475 0.356114 0.197088 -0.728970
F14   F     F_    0.285652 0.531113 0.251947 -0.562046
F15   F     F_    0.331701 0.425869 0.271999 -0.584062
F16   F     F_    0.617724 0.285540 0.811143 -0.605573
F17   F     F_    0.613382 0.717914 0.814844 -0.601094
F18   F     F_    0.118114 0.785711 0.811758 -0.604276
F19   F     F_    0.101768 0.248777 0.929529 -0.622938
F20   F     F_    0.704219 0.903073 0.743650 -0.617214
H1    H     H_    0.983215 0.834922 0.176141 0.141670
H2    H     H_    0.092565 0.979638 0.484537 0.273444
H3    H     H_    0.563985 0.551033 0.475036 0.247920
H4    H     H_    0.594386 0.480622 0.488140 0.274327
H5    H     H_    0.816313 0.279302 0.863173 0.195204
H6    H     H_    0.809602 0.723395 0.861096 0.197344
H7    H     H_    0.316710 0.779432 0.863659 0.198366
H8    H     H_    0.203744 0.295118 0.847597 0.210585
H9    H     H_    0.726580 0.228667 0.822493 0.272910
H10   H     H_    0.720806 0.774853 0.824318 0.267570
H11   H     H_    0.226912 0.728820 0.822892 0.271770
H12   H     H_    0.984885 0.165154 0.176029 0.142883
H13   H     H_    0.213079 0.318077 0.965396 0.246227
H14   H     H_    0.216921 0.842187 0.849351 0.078429
H15   H     H_    0.138527 0.215928 0.837575 0.067335
H16   H     H_    0.716532 0.342053 0.848986 0.078321
H17   H     H_    0.711344 0.661273 0.847358 0.080436
H18   H     H_    0.452002 0.791582 0.063794 0.231799
H19   H     H_    0.331357 0.218467 0.884484 0.233141
H20   H     H_    0.951589 0.291535 0.063455 0.231851
H21   H     H_    0.947772 0.709086 0.058779 0.229266
H22   H     H_    0.357762 0.863552 0.041925 0.214207
H23   H     H_    0.490016 0.336403 0.178727 0.143644
H24   H     H_    0.263072 0.144584 0.900929 0.240724
H25   H     H_    0.857185 0.363413 0.041550 0.213942
H26   H     H_    0.854507 0.637299 0.037654 0.214494
H27   H     H_    0.814907 0.188344 0.110686 0.166647
H28   H     H_    0.816002 0.811216 0.116503 0.185996
H29   H     H_    0.315194 0.688515 0.111116 0.167117
H30   H     H_    0.438134 0.247438 0.179583 0.186097
H31   H     H_    0.721521 0.182062 0.968262 0.255079
H32   H     H_    0.720323 0.819514 0.975315 0.242176
H33   H     H_    0.221722 0.682330 0.968701 0.254214
H34   H     H_    0.484785 0.664977 0.176278 0.141814
H35   H     H_    0.357219 0.299594 0.157839 0.232033
H36   H     H_    0.256589 0.763902 0.132861 0.158524
H37   H     H_    0.351304 0.186736 0.186810 0.172915
H38   H     H_    0.755870 0.263602 0.132170 0.157958
H39   H     H_    0.757916 0.735565 0.137346 0.160856
H40   H     H_    0.445732 0.761287 0.167191 0.198818
H41   H     H_    0.432135 0.207207 0.022179 0.227494
H42   H     H_    0.945295 0.261189 0.166801 0.199560
H43   H     H_    0.944734 0.738026 0.165521 0.199710
H44   H     H_    0.368116 0.837962 0.159208 0.265959
H45   H     H_    0.913586 0.087355 0.488515 0.122349
H46   H     H_    0.356416 0.138190 0.043988 0.235033
H47   H     H_    0.867541 0.337750 0.158774 0.266018
H48   H     H_    0.867553 0.661462 0.157395 0.263412
H49   H     H_    0.423487 0.936390 0.391021 0.262550
H50   H     H_    0.387812 0.079157 0.537950 0.265674
H51   H     H_    0.925635 0.435072 0.393772 0.262398
H52   H     H_    0.889107 0.581167 0.532287 0.266001
H53   H     H_    0.447128 0.004742 0.374199 0.208844
H54   H     H_    0.406082 0.085715 0.435732 0.229558
H55   H     H_    0.950642 0.502657 0.374852 0.206149
H56   H     H_    0.925760 0.909729 0.509526 0.127314
H57   H     H_    0.909844 0.585253 0.431749 0.223123
H58   H     H_    0.550102 0.935784 0.712188 0.268864
H59   H     H_    0.523764 0.001611 0.735695 0.239728
H60   H     H_    0.048633 0.437982 0.713716 0.266439
H61   H     H_    0.022609 0.504553 0.734469 0.240375
H62   H     H_    0.981070 0.088492 0.269903 0.109043
H63   H     H_    0.979422 0.911146 0.265857 0.120176
H64   H     H_    0.482532 0.588204 0.272226 0.108872
H65   H     H_    0.481901 0.410869 0.268402 0.121874
H66   H     H_    0.262221 0.912026 0.332560 0.219550
H67   H     H_    0.411629 0.586312 0.487346 0.125412
H68   H     H_    0.251460 0.085766 0.337448 0.176766
H69   H     H_    0.764137 0.412434 0.332819 0.218613
H70   H     H_    0.755247 0.586915 0.334283 0.181079
H71   H     H_    0.072820 0.872870 0.825906 0.221485
H72   H     H_    0.073767 0.134246 0.829073 0.193017
H73   H     H_    0.571459 0.372290 0.825133 0.221804
H74   H     H_    0.572433 0.628599 0.826471 0.227283
H75   H     H_    0.895170 0.085467 0.333582 -0.001038
H76   H     H_    0.959647 0.911241 0.396356 0.020499
H77   H     H_    0.393130 0.583923 0.332144 0.002422
H78   H     H_    0.426031 0.408639 0.512880 0.129316
H79   H     H_    0.464414 0.410599 0.402287 0.025224
H80   H     H_    0.065002 0.050424 0.473274 0.247634
N1    N     N_R   0.950530 0.896220 0.057200 -0.074740
N2    N     N_R   0.818150 0.028600 0.792440 -0.166661
N3    N     N_R   0.318150 0.471400 0.792440 -0.161938
N4    N     N_R   0.318150 0.528600 0.792440 -0.167223
N5    N     N_R   0.025710 0.028600 0.207560 -0.057932
N6    N     N_R   0.025710 0.971400 0.207560 -0.064959
N7    N     N_R   0.525710 0.528600 0.207560 -0.054988
N8    N     N_R   0.525710 0.471400 0.207560 -0.065128
N9    N     N_R   0.181850 0.971400 0.207560 -0.075841
N10   N     N_R   0.181850 0.028600 0.207560 -0.069163
N11   N     N_R   0.681850 0.471400 0.207560 -0.074377
N12   N     N_R   0.950530 0.103780 0.057200 -0.074228
N13   N     N_R   0.681850 0.528600 0.207560 -0.071142
N14   N     N_R   0.974290 0.028600 0.792440 -0.110733
N15   N     N_R   0.974290 0.971400 0.792440 -0.114953
N16   N     N_R   0.474290 0.528600 0.792440 -0.115597
N17   N     N_R   0.474290 0.471400 0.792440 -0.114280
N18   N     N_R   0.049470 0.896220 0.942800 -0.083541
N19   N     N_R   0.049470 0.103780 0.942800 -0.077562
N20   N     N_R   0.549470 0.396220 0.942800 -0.085357
N21   N     N_R   0.549470 0.603780 0.942800 -0.086624
N22   N     N_R   0.106670 0.103780 0.057200 -0.117889
N23   N     N_R   0.450530 0.396220 0.057200 -0.076837
N24   N     N_R   0.106670 0.896220 0.057200 -0.115576
N25   N     N_R   0.606670 0.603780 0.057200 -0.116444
N26   N     N_R   0.606670 0.396220 0.057200 -0.116060
N27   N     N_R   0.450530 0.603780 0.057200 -0.072673
N28   N     N_R   0.893330 0.103780 0.942800 -0.088447
N29   N     N_R   0.893330 0.896220 0.942800 -0.094447
N30   N     N_R   0.393330 0.603780 0.942800 -0.088624
N31   N     N_R   0.393330 0.396220 0.942800 -0.091545
N32   N     N_R   0.818150 0.971400 0.792440 -0.163696
Ni1   Ni    Ni4+2 0.065600 0.934400 0.131190 0.242314
Ni2   Ni    Ni4+2 0.065600 0.065600 0.131190 0.242704
Ni3   Ni    Ni4+2 0.565600 0.434400 0.131190 0.242075
Ni4   Ni    Ni4+2 0.565600 0.565600 0.131190 0.237430
Ni5   Ni    Ni4+2 0.934400 0.065600 0.868810 0.311086
Ni6   Ni    Ni4+2 0.934400 0.934400 0.868810 0.313996
Ni7   Ni    Ni4+2 0.434400 0.565600 0.868810 0.311603
Ni8   Ni    Ni4+2 0.434400 0.434400 0.868810 0.312674

loop_
_geom_bond_atom_site_label_1
_geom_bond_atom_site_label_2
_ccdc_geom_bond_type
C16   C21   A    
C23   C69   A    
C35   H2    S    
C71   C75   S    
C63   H28   S    
C30   C34   S    
Br27  C48   S    
C27   F1    S    
C104  H59   S    
C27   C31   S    
C82   H38   S    
C75   H22   S    
C56   C74   S    
Br6   C83   S    
N16   Ni7   S    
C81   H37   S    
C92   F4    S    
C64   C68   S    
C4    C89   A    
N19   N22   A    
C27   H75   S    
C6    C38   S    
C91   H74   S    
Br24  C46   S    
C36   N23   A    
C19   C100  S    
C47   N27   A    
C65   H30   S    
C64   H29   S    
C1    C110  A    
C96   F8    S    
N9    N10   A    
C33   H67   S    
Br14  C97   S    
C87   H52   S    
C58   H71   S    
C14   N15   A    
N11   Ni3   S    
C52   H13   S    
C88   F20   S    
N1    Ni1   S    
Br1   C31   S    
C78   H48   S    
N20   Ni8   S    
N27   N30   A    
Br17  C98   S    
N11   N13   A    
C69   H72   S    
Br5   C82   S    
C49   C55   S    
C40   C46   S    
C3    C68   S    
C60   H42   S    
C49   C66   S    
C50   H10   S    
C41   C48   S    
Br25  C46   S    
C92   N4    A    
C51   H11   S    
C29   C33   S    
C87   H57   S    
Br18  C12   S    
C75   H44   S    
C58   N18   A    
C84   C99   S    
C109  H65   S    
N25   Ni4   S    
C25   H12   S    
C83   H39   S    
C16   N17   A    
C36   H23   S    
C13   N25   A    
N12   N28   A    
C72   C76   S    
C85   C94   S    
C98   C105  S    
C57   H18   S    
C37   C39   S    
C108  H64   S    
C61   C78   S    
N18   Ni6   S    
Br9   C93   S    
C105  H61   S    
C9    C18   A    
C8    C18   A    
N5    N6    A    
C87   C96   S    
C76   H46   S    
C28   F12   S    
C50   C67   S    
C106  N5    A    
C104  H58   S    
C57   C75   S    
Br19  C14   S    
C59   C70   S    
C12   N14   A    
C89   N2    A    
C5    C103  S    
N23   N31   A    
C11   N13   A    
C2    C22   A    
C35   C38   S    
C5    C90   A    
C61   H43   S    
C21   C41   S    
C55   H16   S    
Br7   C79   S    
N32   Ni6   S    
C66   C111  S    
C107  N6    A    
Br16  C98   S    
C74   C83   S    
C65   H35   S    
C85   H54   S    
C29   C39   S    
C79   H36   S    
C23   C102  A    
Br4   C45   S    
C62   C66   S    
C10   H69   S    
C62   H31   S    
Br23  C34   S    
C94   C101  S    
C73   C77   S    
N22   Ni2   S    
C60   C66   S    
N27   Ni4   S    
C50   H6    S    
C105  H60   S    
C3    C44   A    
C1    H1    S    
C18   C99   S    
C35   C46   S    
C78   H26   S    
N8    Ni3   S    
C52   C54   S    
C90   F3    S    
C45   N31   A    
C4    C101  S    
C35   H80   S    
C51   C53   S    
Br13  C96   S    
C15   C21   A    
C57   C68   S    
C55   F16   S    
C53   C71   S    
C17   C24   A    
C106  H62   S    
C73   C82   S    
C84   H53   S    
C63   C67   S    
N28   Ni5   S    
N4    Ni7   S    
C4    C88   A    
C87   C100  S    
C28   C32   S    
C108  N7    A    
C70   C112  S    
N5    Ni2   S    
C25   N12   A    
N2    N32   A    
N30   Ni7   S    
C61   C67   S    
N21   N25   A    
N14   N15   A    
C60   H20   S    
C31   C40   S    
Br21  C16   S    
C86   C100  S    
C64   C79   S    
Br26  C48   S    
C10   N11   A    
N21   Ni7   S    
C7    C39   S    
N26   Ni3   S    
C43   N29   A    
N16   N17   A    
C37   H3    S    
C102  F9    S    
C8    N9    A    
C22   C71   S    
C15   N16   A    
C14   C20   A    
C43   C110  A    
C20   C40   S    
C109  N8    A    
C98   C100  S    
C13   C26   A    
C37   C48   S    
C32   C40   S    
C10   C19   A    
C102  N22   A    
C24   C73   S    
C11   H70   S    
Br10  C94   S    
C86   C95   S    
C34   C41   S    
C57   H40   S    
C17   N26   A    
C76   H24   S    
C95   F7    S    
C64   H33   S    
N23   Ni3   S    
N15   Ni6   S    
Br15  C97   S    
N17   Ni8   S    
C96   C103  S    
C93   F5    S    
C80   N20   A    
C17   F13   S    
C63   C83   S    
N20   N26   A    
Br2   C43   S    
C1    N1    A    
C3    C47   A    
C27   C38   S    
C107  H63   S    
C90   N3    A    
C69   N19   A    
C11   C19   A    
C30   H79   S    
C36   C112  A    
Br11  C95   S    
C23   C72   S    
C12   C20   A    
C72   C81   S    
C80   H73   S    
N31   Ni8   S    
C67   C110  S    
C8    H66   S    
C53   F18   S    
C55   C73   S    
C95   C103  S    
C25   C111  A    
C54   C72   S    
C86   H55   S    
C26   C74   S    
N6    Ni1   S    
Br28  C42   S    
C9    N10   A    
C93   C101  S    
C103  C105  S    
N13   Ni4   S    
N3    Ni8   S    
C85   H50   S    
N18   N24   A    
C56   F17   S    
C44   N30   A    
C42   N28   A    
C85   C99   S    
C45   C112  A    
C51   C68   S    
C71   C79   S    
C63   H32   S    
C49   H5    S    
C77   H25   S    
N24   Ni1   S    
C34   H78   S    
C77   H47   S    
C33   C41   S    
C53   H14   S    
C101  C104  S    
C86   H51   S    
Br3   C44   S    
C32   H56   S    
C84   C93   S    
N19   Ni5   S    
C88   N32   A    
Br8   C81   S    
C7    C109  A    
Br22  C33   S    
C60   C77   S    
C9    H68   S    
C97   C104  S    
C31   H45   S    
C91   N21   A    
C52   C70   S    
C6    C107  A    
C28   C38   S    
C37   H4    S    
N14   Ni5   S    
C13   F11   S    
N1    N29   A    
N29   Ni6   S    
C89   F2    S    
C7    C108  A    
N9    Ni1   S    
C94   F6    S    
C56   H17   S    
C2    N24   A    
Br20  C15   S    
C2    F10   S    
C30   F15   S    
C22   C58   A    
C59   H19   S    
C59   C76   S    
Br12  C32   S    
C47   H34   S    
C50   C56   S    
C30   C39   S    
C42   C111  A    
C84   H49   S    
C54   H15   S    
C24   C80   A    
C5    C92   A    
C49   H9    S    
C52   H8    S    
C62   H27   S    
C74   C78   S    
C65   C81   S    
C97   C99   S    
C6    C106  A    
C28   H76   S    
N10   Ni2   S    
N2    Ni5   S    
C51   H7    S    
N7    Ni4   S    
C26   C91   A    
C29   F14   S    
N12   Ni2   S    
C65   C70   S    
C59   H41   S    
C54   F19   S    
C29   H77   S    
N3    N4    A    
N7    N8    A    
C61   H21   S    
C62   C82   S    
