data_mof_unit_2000.cif
_audit_creation_date              2012-12-10T20:41:45-0500
_audit_creation_method            fapswitch 2.2
_symmetry_space_group_name_H-M    P1
_symmetry_Int_Tables_number       1
_space_group_crystal_system       triclinic
_cell_length_a                    15.124248
_cell_length_b                    15.031083
_cell_length_c                    9.870103
_cell_angle_alpha                 90.083392
_cell_angle_beta                  90.195152
_cell_angle_gamma                 89.975563
_cell_volume                      2243.79269655

loop_
_atom_site_label
_atom_site_type_symbol
_atom_type_description
_atom_site_fract_x
_atom_site_fract_y
_atom_site_fract_z
_atom_type_partial_charge
C1    C     C_R   0.379585 0.880588 0.500062 0.880856
C2    C     C_R   0.380987 0.121192 0.500010 0.909302
C3    C     C_R   0.879569 0.380602 0.500066 0.880856
C4    C     C_R   0.880996 0.621205 0.500011 0.909306
C5    C     C_3   0.231916 0.164901 0.718674 -0.486415
C6    C     C_3   0.360313 0.705455 0.680200 -0.486948
C7    C     C_3   0.732212 0.665195 0.719035 -0.486457
C8    C     C_3   0.860101 0.205695 0.680636 -0.486714
C9    C     C_R   0.446868 0.942985 0.070666 0.205164
C10   C     C_R   0.946570 0.443254 0.070658 0.205241
C11   C     C_R   0.557869 0.051241 0.072272 -0.075977
C12   C     C_R   0.058174 0.550902 0.072276 -0.076205
C13   C     C_R   0.557855 0.051259 0.928545 -0.141714
C14   C     C_R   0.058162 0.550918 0.928546 -0.141556
C15   C     C_R   0.446727 0.943181 0.928185 0.206623
C16   C     C_R   0.946434 0.443449 0.928181 0.206705
C17   C     C_3   0.348356 0.939506 0.921832 -0.482326
C18   C     C_3   0.848042 0.440253 0.921794 -0.482424
C19   C     C_3   0.348463 0.938614 0.075557 -0.482677
C20   C     C_3   0.848133 0.439373 0.075521 -0.482916
C21   C     C_R   0.616427 0.123288 0.500235 0.938950
C22   C     C_R   0.624524 0.885043 0.500081 0.905640
C23   C     C_R   0.116438 0.623276 0.500233 0.939077
C24   C     C_R   0.124511 0.385030 0.500085 0.905746
C25   C     C_R   0.283647 0.220444 0.621682 0.147220
C26   C     C_R   0.295942 0.767248 0.614128 0.128236
C27   C     C_R   0.783824 0.720624 0.621731 0.147225
C28   C     C_R   0.795793 0.267400 0.614243 0.128236
C29   C     C_R   0.324610 0.196544 0.501486 -0.135570
C30   C     C_R   0.307084 0.821680 0.502343 -0.113511
C31   C     C_R   0.824660 0.696594 0.501483 -0.135482
C32   C     C_R   0.807028 0.321737 0.502374 -0.113603
C33   C     C_R   0.317823 0.251738 0.387574 -0.213440
C34   C     C_R   0.242289 0.825817 0.401242 -0.276492
C35   C     C_R   0.817782 0.751697 0.387477 -0.213343
C36   C     C_R   0.742269 0.325838 0.401217 -0.276330
C37   C     C_R   0.759011 0.823029 0.388383 -0.072663
C38   C     C_R   0.673331 0.264505 0.400970 -0.039862
C39   C     C_R   0.259051 0.323068 0.388504 -0.072653
C40   C     C_R   0.173346 0.764492 0.401015 -0.039998
C41   C     C_R   0.703019 0.832533 0.502537 -0.200765
C42   C     C_R   0.673117 0.198524 0.503613 -0.176185
C43   C     C_R   0.202970 0.332477 0.502563 -0.200735
C44   C     C_R   0.173170 0.698473 0.503597 -0.176098
C45   C     C_R   0.722787 0.787078 0.621771 0.131662
C46   C     C_R   0.729719 0.206086 0.614521 0.121671
C47   C     C_R   0.222612 0.286900 0.621730 0.131780
C48   C     C_R   0.229866 0.705932 0.614409 0.121801
C49   C     C_3   0.663925 0.739055 0.718866 -0.449056
C50   C     C_3   0.786453 0.137267 0.681333 -0.456117
C51   C     C_3   0.163634 0.238767 0.718525 -0.449213
C52   C     C_3   0.286665 0.637032 0.680902 -0.456159
H1    H     H_    0.356813 0.238543 0.297911 0.236348
H2    H     H_    0.245806 0.876224 0.323189 0.187222
H3    H     H_    0.856694 0.738426 0.297756 0.236190
H4    H     H_    0.745808 0.376223 0.323142 0.187141
H5    H     H_    0.318359 0.998991 0.121555 0.216649
H6    H     H_    0.325094 0.874331 0.117597 0.224808
H7    H     H_    0.818317 0.499904 0.121510 0.216694
H8    H     H_    0.824447 0.375198 0.117534 0.224885
H9    H     H_    0.658871 0.774108 0.817820 0.220442
H10   H     H_    0.799628 0.078972 0.614809 0.211234
H11   H     H_    0.158467 0.273702 0.817559 0.220415
H12   H     H_    0.299767 0.578811 0.614187 0.211341
H13   H     H_    0.599724 0.719035 0.672706 0.193874
H14   H     H_    0.763070 0.120742 0.784917 0.201773
H15   H     H_    0.099487 0.218811 0.672137 0.193814
H16   H     H_    0.263387 0.620386 0.784504 0.201652
H17   H     H_    0.266363 0.157485 0.817683 0.217805
H18   H     H_    0.416342 0.687344 0.612832 0.199283
H19   H     H_    0.766779 0.657916 0.817975 0.217810
H20   H     H_    0.916201 0.187511 0.613455 0.199213
H21   H     H_    0.207634 0.101830 0.672693 0.196867
H22   H     H_    0.379660 0.728166 0.783332 0.204703
H23   H     H_    0.707881 0.602062 0.673309 0.196861
H24   H     H_    0.879334 0.228534 0.783754 0.204810
H25   H     H_    0.603800 0.093588 0.126146 0.179602
H26   H     H_    0.104356 0.592984 0.126155 0.179634
H27   H     H_    0.603633 0.093737 0.875295 0.157827
H28   H     H_    0.104199 0.593125 0.875295 0.157729
H29   H     H_    0.318899 0.000780 0.877780 0.211153
H30   H     H_    0.324029 0.876314 0.876696 0.209805
H31   H     H_    0.818887 0.501671 0.877726 0.211104
H32   H     H_    0.823422 0.377170 0.876652 0.209861
N1    N     N_R   0.499140 0.000000 0.142800 -0.108938
N2    N     N_R   0.999140 0.500000 0.142800 -0.108944
N3    N     N_R   0.499160 0.000000 0.857150 -0.108846
N4    N     N_R   0.999160 0.500000 0.857150 -0.108833
O1    O     O_R   0.408400 0.908380 0.614690 -0.622391
O2    O     O_R   0.408400 0.091620 0.614690 -0.619467
O3    O     O_R   0.908400 0.408380 0.614690 -0.622401
O4    O     O_R   0.908400 0.591620 0.614690 -0.619499
O5    O     O_R   0.408370 0.908370 0.385350 -0.625679
O6    O     O_R   0.408370 0.091630 0.385350 -0.603327
O7    O     O_R   0.908370 0.408370 0.385350 -0.625605
O8    O     O_R   0.908370 0.591630 0.385350 -0.603378
O9    O     O_R   0.591610 0.091610 0.614650 -0.635958
O10   O     O_R   0.591610 0.908390 0.614650 -0.619389
O11   O     O_R   0.091610 0.591610 0.614650 -0.635928
O12   O     O_R   0.091610 0.408390 0.614650 -0.619396
O13   O     O_R   0.591590 0.091600 0.385310 -0.585152
O14   O     O_R   0.591590 0.908400 0.385310 -0.596133
O15   O     O_R   0.091590 0.591600 0.385310 -0.585169
O16   O     O_R   0.091590 0.408400 0.385310 -0.596152
Zn1   Zn    Zn3+2 0.500010 0.000000 0.653130 0.948351
Zn2   Zn    Zn3+2 0.000010 0.500000 0.653130 0.948385
Zn3   Zn    Zn3+2 0.499980 0.000000 0.346870 0.995594
Zn4   Zn    Zn3+2 0.999980 0.500000 0.346870 0.995571
C53   C     C_2   0.757865 0.883830 0.269926 0.953337
O17   O     O_2   0.745820 0.963611 0.286064 -0.634206
O18   O     O_R   0.774304 0.850271 0.140185 -0.818586
H33   H     H_    0.772380 0.898144 0.067956 0.337590
C54   C     C_2   0.604957 0.271646 0.293394 0.917217
O19   O     O_2   0.528131 0.252551 0.317543 -0.649102
O20   O     O_R   0.627976 0.303605 0.165265 -0.825303
H34   H     H_    0.575689 0.305966 0.100803 0.345149
C55   C     C_2   0.258009 0.383980 0.270179 0.953214
O21   O     O_2   0.245908 0.463740 0.286455 -0.634522
O22   O     O_R   0.274615 0.350552 0.140416 -0.818416
H35   H     H_    0.272758 0.398492 0.068291 0.337599
C56   C     C_2   0.104927 0.771673 0.293510 0.917412
O23   O     O_2   0.028103 0.752603 0.317732 -0.649029
O24   O     O_R   0.127907 0.803635 0.165363 -0.825116
H36   H     H_    0.075594 0.806022 0.100954 0.345203

loop_
_geom_bond_atom_site_label_1
_geom_bond_atom_site_label_2
_ccdc_geom_bond_type
O13   Zn3   S    
C23   O11   A    
C13   H27   S    
C6    H18   S    
C22   O10   A    
C2    O6    A    
O18   H33   S    
C7    C27   S    
O24   H36   S    
C19   H5    S    
C40   C56   S    
C28   C46   A    
C33   C39   A    
O10   Zn1   S    
C49   H13   S    
C2    C29   S    
C34   C40   A    
C32   C36   A    
C35   C37   A    
C38   C42   A    
C53   O18   S    
C7    H19   S    
C22   C41   S    
O20   H34   S    
C29   C33   A    
C8    H24   S    
N4    Zn2   S    
C3    O3    A    
C17   H30   S    
C42   C46   A    
C2    O2    A    
C5    H17   S    
C11   H25   S    
C9    N1    A    
C4    O8    A    
C9    C19   S    
C23   O15   A    
C10   C20   S    
C12   H26   S    
C18   H32   S    
O15   Zn4   S    
C14   H28   S    
C20   H8    S    
C17   H29   S    
C25   C47   A    
C40   C44   A    
C37   C53   S    
C52   H16   S    
C26   C48   A    
O9    Zn1   S    
C27   C45   A    
O8    Zn4   S    
C25   C29   A    
O3    Zn2   S    
C6    H22   S    
C19   H6    S    
C33   H1    S    
O6    Zn3   S    
C8    H20   S    
C49   H9    S    
C30   C34   A    
C35   H3    S    
C28   C32   A    
C51   H11   S    
C7    C49   S    
C52   H12   S    
C38   C54   S    
C7    H23   S    
C39   C55   S    
C27   C31   A    
C23   C44   S    
C24   O16   A    
C36   H4    S    
C21   O9    A    
N3    Zn1   S    
C45   C49   S    
C13   N3    A    
C18   H31   S    
O14   Zn3   S    
C16   C18   S    
C51   H15   S    
C20   H7    S    
C50   H14   S    
C56   O23   D    
C5    C25   S    
O4    Zn2   S    
C12   C14   A    
C34   H2    S    
C4    O4    A    
C50   H10   S    
C31   C35   A    
C8    C50   S    
O16   Zn4   S    
C15   N3    A    
C54   O19   D    
C15   C17   S    
O11   Zn2   S    
C10   N2    A    
C1    O1    A    
C24   O12   A    
C5    H21   S    
N2    Zn4   S    
O2    Zn1   S    
C47   C51   S    
O22   H35   S    
C26   C30   A    
C46   C50   S    
O12   Zn2   S    
C22   O14   A    
C12   N2    A    
N1    Zn3   S    
C55   O22   S    
C9    C15   A    
C14   N4    A    
C21   O13   A    
C10   C16   A    
C55   O21   D    
O5    Zn3   S    
C11   C13   A    
C6    C26   S    
C11   N1    A    
C8    C28   S    
C36   C38   A    
C1    C30   S    
C17   C19   S    
C18   C20   S    
C37   C41   A    
C3    C32   S    
C56   O24   S    
C4    C31   S    
O7    Zn4   S    
C21   C42   S    
C48   C52   S    
C39   C43   A    
C1    O5    A    
O1    Zn1   S    
C16   N4    A    
C24   C43   S    
C41   C45   A    
C5    C51   S    
C3    O7    A    
C6    C52   S    
C53   O17   D    
C43   C47   A    
C44   C48   A    
C54   O20   S    
