data_mof_unit_4773.cif
_audit_creation_date              2012-12-11T16:37:19-0500
_audit_creation_method            fapswitch 2.2
_symmetry_space_group_name_H-M    P1
_symmetry_Int_Tables_number       1
_space_group_crystal_system       triclinic
_cell_length_a                    19.57829
_cell_length_b                    6.957303
_cell_length_c                    17.66752
_cell_angle_alpha                 89.999982
_cell_angle_beta                  108.956069
_cell_angle_gamma                 90.000033
_cell_volume                      2276.01881201

loop_
_atom_site_label
_atom_site_type_symbol
_atom_type_description
_atom_site_fract_x
_atom_site_fract_y
_atom_site_fract_z
_atom_type_partial_charge
O1    O     O_R   0.561710 0.369960 0.440200 -0.553006
O2    O     O_R   0.061710 0.630040 0.940200 -0.553006
O3    O     O_R   0.412630 0.033330 0.406330 -0.485438
O4    O     O_R   0.912630 0.966670 0.906330 -0.485437
O5    O     O_R   0.438290 0.869790 0.559800 -0.507775
O6    O     O_R   0.938290 0.130210 0.059800 -0.507771
C1    C     C_R   0.384336 0.203102 0.383754 0.776632
C2    C     C_R   0.884336 0.796897 0.883754 0.776633
O7    O     O_R   0.559570 0.039810 0.430640 -0.533089
O8    O     O_R   0.059570 0.960190 0.930640 -0.533089
O9    O     O_R   0.586280 0.876320 0.584290 -0.530153
O10   O     O_R   0.086280 0.123680 0.084290 -0.530153
C3    C     C_R   0.579383 0.209261 0.413465 0.698713
C4    C     C_R   0.079383 0.790739 0.913466 0.698714
O11   O     O_R   0.413720 0.363440 0.415710 -0.528277
O12   O     O_R   0.913720 0.636560 0.915710 -0.528277
O13   O     O_3   0.508590 0.205630 0.550380 -0.342009
O14   O     O_3   0.008590 0.794370 0.050380 -0.342007
V1    V     V_3+5 0.498410 0.928130 0.490650 1.680224
V2    V     V_3+5 0.998410 0.071870 0.990650 1.680227
O15   O     O_R   0.587370 0.546990 0.593670 -0.551814
O16   O     O_R   0.087370 0.453010 0.093670 -0.551814
C5    C     C_R   0.614089 0.717153 0.618029 0.720917
C6    C     C_R   0.114089 0.282847 0.118029 0.720918
O17   O     O_R   0.440430 0.540520 0.569360 -0.525651
O18   O     O_R   0.940430 0.459480 0.069360 -0.525652
C7    C     C_R   0.420824 0.709985 0.586752 0.770150
C8    C     C_R   0.920824 0.290015 0.086752 0.770153
V3    V     V_3+5 0.501590 0.428960 0.509350 1.606521
V4    V     V_3+5 0.001590 0.571040 0.009350 1.606520
O19   O     O_3   0.491410 0.701330 0.449620 -0.327841
O20   O     O_3   0.991410 0.298670 0.949620 -0.327843
C9    C     C_R   0.327339 0.882262 0.734907 -0.192977
C10   C     C_R   0.827339 0.117740 0.234908 -0.192985
H1    H     H_    0.328338 0.004123 0.773570 0.108359
H2    H     H_    0.828338 0.995879 0.273571 0.108356
C11   C     C_R   0.373999 0.879804 0.689128 -0.026803
C12   C     C_R   0.873998 0.120195 0.189129 -0.026803
C13   C     C_R   0.373212 0.721043 0.637938 -0.094344
C14   C     C_R   0.873212 0.278956 0.137938 -0.094338
C15   C     C_R   0.325699 0.567701 0.636346 -0.126058
C16   C     C_R   0.825700 0.432299 0.136347 -0.126067
H3    H     H_    0.322987 0.445269 0.597666 0.161759
H4    H     H_    0.822989 0.554732 0.097667 0.161758
C17   C     C_R   0.279513 0.572164 0.682581 -0.142904
C18   C     C_R   0.779514 0.427837 0.182582 -0.142905
H5    H     H_    0.242616 0.453652 0.678553 0.114446
H6    H     H_    0.742618 0.546350 0.178554 0.114445
C19   C     C_R   0.279090 0.731147 0.731260 0.089190
C20   C     C_R   0.779090 0.268855 0.231261 0.089194
C21   C     C_R   0.217170 0.592751 0.823528 -0.146676
C22   C     C_R   0.717168 0.407253 0.323526 -0.146677
H7    H     H_    0.248315 0.461871 0.828604 0.108396
H8    H     H_    0.748312 0.538135 0.328600 0.108393
C23   C     C_R   0.168974 0.610017 0.866865 -0.168329
C24   C     C_R   0.668972 0.389987 0.366863 -0.168326
H9    H     H_    0.165035 0.491250 0.904867 0.119002
H10   H     H_    0.665031 0.508756 0.404863 0.119001
C25   C     C_R   0.127266 0.777863 0.862402 -0.052054
C26   C     C_R   0.627266 0.222137 0.362401 -0.052055
C27   C     C_R   0.134381 0.928588 0.810853 -0.040008
C28   C     C_R   0.634382 0.071409 0.310855 -0.040007
C29   C     C_R   0.185595 0.912525 0.770887 -0.205426
C30   C     C_R   0.685597 0.087474 0.270889 -0.205424
H11   H     H_    0.191093 0.028404 0.732184 0.106451
H12   H     H_    0.691097 0.971593 0.232188 0.106450
C31   C     C_R   0.226777 0.745022 0.776144 0.106130
C32   C     C_R   0.726777 0.254980 0.276144 0.106132
C33   C     C_R   0.804148 0.629604 0.759803 0.077213
C34   C     C_R   0.304148 0.370395 0.259803 0.077212
C35   C     C_R   0.815994 0.782139 0.814730 -0.182097
C36   C     C_R   0.315994 0.217861 0.314730 -0.182097
C37   C     C_R   0.757898 0.907680 0.806448 -0.183599
C38   C     C_R   0.257898 0.092320 0.306448 -0.183600
H13   H     H_    0.761610 0.011883 0.852554 0.183008
H14   H     H_    0.261610 0.988118 0.352554 0.183007
C39   C     C_R   0.691558 0.885749 0.744131 0.344937
C40   C     C_R   0.191558 0.114251 0.244131 0.344937
C41   C     C_R   0.681812 0.736242 0.686878 -0.141908
C42   C     C_R   0.181812 0.263758 0.186878 -0.141908
C43   C     C_R   0.739859 0.611833 0.695063 -0.041819
C44   C     C_R   0.239859 0.388167 0.195063 -0.041819
C45   C     C_3   0.738112 0.398979 0.702867 -0.478295
C46   C     C_3   0.238112 0.601020 0.202866 -0.478297
C47   C     C_3   0.804291 0.418603 0.776710 0.348647
C48   C     C_3   0.304291 0.581397 0.276710 0.348648
H15   H     H_    0.748329 0.325577 0.651681 0.210480
H16   H     H_    0.248330 0.674422 0.151680 0.210480
H17   H     H_    0.688637 0.349077 0.714487 0.205700
H18   H     H_    0.188637 0.650924 0.214487 0.205699
Cl1   Cl    Cl    0.618809 0.031196 0.747042 -0.717083
Cl2   Cl    Cl    0.118809 0.968804 0.247043 -0.717077
Cl3   Cl    Cl    0.881895 0.300788 0.766921 -0.533155
Cl4   Cl    Cl    0.381895 0.699211 0.266921 -0.533153
C49   C     C_2   0.788391 0.377967 0.853342 0.329789
H19   H     H_    0.737024 0.421161 0.859166 0.049031
O21   O     O_2   0.833133 0.301486 0.910027 -0.515501
C50   C     C_2   0.288391 0.622034 0.353342 0.329788
H20   H     H_    0.237024 0.578843 0.359165 0.049032
O22   O     O_2   0.333133 0.698513 0.410026 -0.515500
C51   C     C_2   0.424091 0.043406 0.700086 0.391215
H21   H     H_    0.463599 0.069709 0.758444 0.095636
O23   O     O_2   0.417946 0.158124 0.646139 -0.514509
C52   C     C_2   0.924089 0.956590 0.200086 0.391220
H22   H     H_    0.963592 0.930273 0.258446 0.095626
O24   O     O_2   0.917949 0.841882 0.146137 -0.514506
C53   C     C_2   0.087046 0.099608 0.791751 0.424652
H23   H     H_    0.108263 0.236130 0.779662 0.032645
O25   O     O_2   0.022872 0.086800 0.783248 -0.471248
C54   C     C_2   0.587050 0.900385 0.291755 0.424652
H24   H     H_    0.608269 0.763862 0.279670 0.032641
O26   O     O_2   0.522875 0.913189 0.283249 -0.471246

loop_
_geom_bond_atom_site_label_1
_geom_bond_atom_site_label_2
_ccdc_geom_bond_type
C45   H15   S    
C29   H11   S    
C51   H21   S    
C23   C25   A    
O13   V3    S    
C49   H19   S    
O4    C2    A    
V1    O19   S    
C52   O24   D    
C13   C15   A    
C3    C26   S    
C4    C25   S    
O9    V1    S    
C16   H4    S    
C11   C51   S    
C30   C32   A    
C46   C48   S    
O3    C1    A    
C40   C42   A    
C8    C14   S    
C9    C19   A    
C26   C28   A    
C16   C18   A    
C33   C35   A    
O7    C3    A    
C54   H24   S    
C12   C52   S    
C48   Cl4   S    
C6    C42   S    
O5    C7    A    
C47   Cl3   S    
O7    V1    S    
O6    C8    A    
O8    V2    S    
C28   C30   A    
C53   H23   S    
O3    V1    S    
O14   V4    S    
V4    O20   S    
C19   C31   S    
C21   C23   A    
C22   C32   A    
C17   H5    S    
C2    O12   A    
C15   H3    S    
C46   H18   S    
C27   C53   S    
C52   H22   S    
C43   C45   S    
C22   H8    S    
O11   V3    S    
C48   C50   S    
C18   H6    S    
C39   C41   A    
O17   V3    S    
C45   H17   S    
C29   C31   A    
C10   C20   A    
C25   C27   A    
C36   C38   A    
O8    C4    A    
C7    C13   S    
C1    C36   S    
C41   C43   A    
O13   V1    S    
C1    O11   A    
C40   Cl2   S    
O15   V3    S    
C9    C11   A    
C24   C26   A    
C21   H7    S    
C30   H12   S    
C28   C54   S    
C17   C19   A    
O10   V2    S    
O1    V3    S    
C21   C31   A    
C38   H14   S    
C42   C44   A    
C45   C47   S    
O18   V4    S    
C44   C46   S    
O15   C5    A    
O16   C6    A    
O1    C3    A    
C37   H13   S    
C34   C48   S    
C33   C47   S    
C35   C37   A    
V2    O20   S    
C34   C44   A    
C18   C20   A    
C39   Cl1   S    
C2    C35   S    
C37   C39   A    
O16   V4    S    
C10   C12   A    
C27   C29   A    
C46   H16   S    
C14   C16   A    
C49   O21   D    
O5    V1    S    
O17   C7    A    
O6    V2    S    
O10   C6    A    
O18   C8    A    
C51   O23   D    
O2    V4    S    
C23   H9    S    
C11   C13   A    
C12   C14   A    
C47   C49   S    
C53   O25   D    
C20   C32   S    
O9    C5    A    
C9    H1    S    
C10   H2    S    
C24   H10   S    
O14   V2    S    
O2    C4    A    
C50   O22   D    
C54   O26   D    
C33   C43   A    
O4    V2    S    
V3    O19   S    
C50   H20   S    
C38   C40   A    
C15   C17   A    
C34   C36   A    
C5    C41   S    
O12   V4    S    
C22   C24   A    
