data_mof_unit_4254.cif
_audit_creation_date              2012-12-10T17:25:22-0500
_audit_creation_method            fapswitch 2.2
_symmetry_space_group_name_H-M    P1
_symmetry_Int_Tables_number       1
_space_group_crystal_system       triclinic
_cell_length_a                    27.803946
_cell_length_b                    10.819365
_cell_length_c                    9.629859
_cell_angle_alpha                 89.602594
_cell_angle_beta                  89.946577
_cell_angle_gamma                 93.147832
_cell_volume                      2892.4212645

loop_
_atom_site_label
_atom_site_type_symbol
_atom_type_description
_atom_site_fract_x
_atom_site_fract_y
_atom_site_fract_z
_atom_type_partial_charge
C1    C     C_R   0.497101 0.262756 0.500507 0.805142
C2    C     C_R   0.279211 0.529178 0.617817 -0.098453
C3    C     C_R   0.253532 0.489998 0.499246 0.335547
C4    C     C_R   0.101243 0.473904 0.493568 -0.125105
C5    C     C_R   0.125704 0.402608 0.591646 -0.066826
C6    C     C_R   0.098760 0.325811 0.685726 0.455906
C7    C     C_R   0.127987 0.550360 0.399030 0.004839
C8    C     C_R   0.354677 0.497139 0.499794 -0.031724
C9    C     C_R   0.644908 0.489531 0.497253 -0.032521
C10   C     C_R   0.972203 0.405560 0.594291 0.033168
C11   C     C_R   0.975083 0.521557 0.374942 0.006149
C12   C     C_R   0.407610 0.499333 0.500020 0.765090
C13   C     C_R   0.948059 0.462610 0.483596 0.063558
C14   C     C_R   0.944845 0.358785 0.707670 -0.199338
C15   C     C_R   0.894656 0.359389 0.710584 0.163453
C16   C     C_R   0.869780 0.409806 0.596001 -0.030623
C17   C     C_R   0.896786 0.461505 0.481896 -0.119529
C18   C     C_R   0.872654 0.512720 0.366349 -0.030231
C19   C     C_R   0.821777 0.513581 0.370481 0.545233
C20   C     C_R   0.818949 0.413166 0.591848 0.546884
C21   C     C_R   0.715073 0.367318 0.467120 -0.089575
C22   C     C_R   0.664932 0.374373 0.471965 0.102018
C23   C     C_R   0.498361 0.737091 0.499807 0.833184
C24   C     C_R   0.675667 0.596646 0.513828 0.082002
C25   C     C_R   0.725625 0.587521 0.507598 -0.083501
C26   C     C_R   0.745316 0.473381 0.485051 0.274004
C27   C     C_R   0.023225 0.399560 0.590498 0.007431
C28   C     C_R   0.050076 0.469235 0.489618 0.073714
C29   C     C_R   0.026110 0.534578 0.384622 0.066424
C30   C     C_R   0.048263 0.325003 0.683774 -0.315212
C31   C     C_R   0.103964 0.620544 0.301440 -0.132208
C32   C     C_R   0.950478 0.564047 0.258137 -0.202644
C33   C     C_R   0.900284 0.560451 0.251470 0.168490
C34   C     C_R   0.592208 0.498215 0.499662 0.814216
C35   C     C_R   0.054054 0.612800 0.293983 -0.213060
C36   C     C_R   0.423252 0.115803 0.658540 -0.166850
C37   C     C_R   0.388765 0.044764 0.733568 -0.125445
C38   C     C_R   0.388726 0.916268 0.731164 -0.117763
C39   C     C_R   0.423299 0.857938 0.654223 -0.148132
C40   C     C_R   0.459408 0.927871 0.579670 0.025001
C41   C     C_R   0.459155 0.058828 0.581488 0.097462
C42   C     C_R   0.493549 0.128607 0.500934 -0.146749
C43   C     C_R   0.525610 0.070156 0.416144 -0.291818
C44   C     C_R   0.527606 0.942359 0.417726 0.397413
C45   C     C_R   0.176664 0.409161 0.590676 0.575159
C46   C     C_R   0.494842 0.870859 0.499670 -0.137879
C47   C     C_R   0.565528 0.661722 0.141686 -0.252321
C48   C     C_R   0.596807 0.744980 0.069066 0.435507
C49   C     C_R   0.591678 0.757251 0.926745 0.114702
C50   C     C_R   0.561790 0.671465 0.855534 -0.241652
C51   C     C_R   0.531020 0.582642 0.924799 0.181551
C52   C     C_R   0.531639 0.580957 0.073794 0.153249
C53   C     C_R   0.470027 0.422439 0.074481 -0.043150
C54   C     C_R   0.470255 0.421931 0.926783 -0.046594
C55   C     C_R   0.178413 0.556159 0.404786 0.536870
C56   C     C_R   0.278685 0.454755 0.380947 -0.094869
C57   C     C_R   0.328876 0.459105 0.380791 -0.211024
C58   C     C_R   0.329450 0.531969 0.618487 -0.230947
Cu1   Cu    Cu3+1 0.500000 0.499990 0.640660 0.933101
Cu2   Cu    Cu3+1 0.500000 0.500010 0.359340 0.950473
H1    H     H_    0.348530 0.562411 0.711234 0.154636
H2    H     H_    0.259257 0.423515 0.289130 0.153588
H3    H     H_    0.123692 0.681964 0.229601 0.187006
H4    H     H_    0.970052 0.597368 0.167431 0.141710
H5    H     H_    0.749573 0.668855 0.521933 0.146822
H6    H     H_    0.038247 0.672895 0.218979 0.141434
H7    H     H_    0.550262 0.124722 0.350500 0.156759
H8    H     H_    0.420640 0.215090 0.659192 0.137275
H9    H     H_    0.361455 0.089623 0.791974 0.146142
H10   H     H_    0.260194 0.557445 0.709472 0.151621
H11   H     H_    0.361368 0.861401 0.787659 0.139911
H12   H     H_    0.420583 0.758031 0.651912 0.149433
H13   H     H_    0.445402 0.358802 0.129916 0.131559
H14   H     H_    0.568241 0.666455 0.251011 0.234365
H15   H     H_    0.564686 0.676502 0.746203 0.220271
H16   H     H_    0.445828 0.357847 0.872435 0.128571
H17   H     H_    0.730895 0.279620 0.448504 0.148903
H18   H     H_    0.962234 0.325243 0.799376 0.143777
H19   H     H_    0.029229 0.261215 0.753584 0.134856
H20   H     H_    0.347447 0.431002 0.288242 0.155113
N1    N     N_R   0.201711 0.485490 0.498761 -0.479848
N2    N     N_R   0.796708 0.465400 0.481744 -0.458911
N3    N     N_R   0.500460 0.501210 0.147910 -0.184325
N4    N     N_R   0.500480 0.501290 0.852040 -0.184944
O1    O     O_R   0.500000 0.319640 0.618810 -0.578733
O2    O     O_2   0.791390 0.366306 0.696883 -0.541947
O3    O     O_2   0.204054 0.632545 0.317473 -0.538799
O4    O     O_2   0.796932 0.562520 0.265375 -0.538606
O5    O     O_R   0.500000 0.319660 0.381240 -0.576383
O6    O     O_R   0.430260 0.500010 0.618770 -0.597335
O7    O     O_R   0.430270 0.500030 0.381200 -0.580744
O8    O     O_R   0.500000 0.680340 0.618760 -0.616765
O9    O     O_R   0.500000 0.680360 0.381190 -0.553154
O10   O     O_R   0.569730 0.499970 0.618800 -0.582356
O11   O     O_R   0.569740 0.499990 0.381230 -0.597660
O12   O     O_2   0.201182 0.339124 0.679550 -0.467148
C59   C     C_3   0.655778 0.719779 0.542431 -0.881202
H21   H     H_    0.684221 0.795994 0.543035 0.245633
H22   H     H_    0.628270 0.741530 0.464231 0.243065
H23   H     H_    0.638875 0.713533 0.645594 0.239861
C60   C     C_3   0.878305 0.608389 0.119162 -0.742975
H24   H     H_    0.858461 0.692343 0.141248 0.260702
H25   H     H_    0.905843 0.635182 0.039226 0.197472
H26   H     H_    0.854014 0.535315 0.072415 0.254109
O13   O     O_3   0.562389 0.885734 0.343081 -0.768990
H27   H     H_    0.583347 0.949937 0.295436 0.347253
O14   O     O_3   0.632434 0.816405 0.135070 -0.716731
H28   H     H_    0.636922 0.782805 0.229743 0.336156
C61   C     C_3   0.617984 0.863260 0.851641 -0.757699
H29   H     H_    0.612528 0.951095 0.907099 0.257113
H30   H     H_    0.657127 0.847994 0.847840 0.252063
H31   H     H_    0.603944 0.875233 0.744749 0.207141
O15   O     O_3   0.122059 0.252028 0.779143 -0.665446
H32   H     H_    0.098045 0.205190 0.838109 0.317109
C62   C     C_3   0.633340 0.259376 0.447997 -0.849459
H33   H     H_    0.654662 0.176489 0.433876 0.235441
H34   H     H_    0.608847 0.241993 0.538008 0.234253
H35   H     H_    0.611939 0.272510 0.352435 0.238369
C63   C     C_3   0.869695 0.305657 0.839015 -0.742672
H36   H     H_    0.895449 0.272921 0.917416 0.197314
H37   H     H_    0.848952 0.377182 0.890383 0.255616
H38   H     H_    0.845722 0.224313 0.810770 0.259215

loop_
_geom_bond_atom_site_label_1
_geom_bond_atom_site_label_2
_ccdc_geom_bond_type
C10   C27   A    
C21   C26   A    
C60   H24   S    
C37   H9    S    
C41   C42   A    
C12   O7    A    
C7    C55   A    
C54   N4    A    
C59   H21   S    
C53   C54   A    
C40   C46   A    
C28   C29   A    
C33   C60   S    
C12   O6    A    
C36   C37   A    
C20   N2    A    
C61   H30   S    
C5    C6    A    
Cu2   N3    S    
C9    C22   A    
Cu2   O7    S    
C48   O14   S    
C62   H33   S    
C56   C57   A    
C18   C19   A    
C59   H22   S    
C16   C17   A    
C62   H34   S    
C20   O2    S    
C3    N1    S    
C39   H12   S    
Cu1   O10   S    
C55   N1    A    
C19   N2    A    
C16   C20   A    
C8    C58   A    
Cu2   O9    S    
C58   H1    S    
Cu1   Cu2   S    
C60   H25   S    
C23   C46   S    
C21   C22   A    
C27   C30   A    
C24   C59   S    
C57   H20   S    
C36   C41   A    
C4    C7    A    
C4    C28   A    
C44   C46   A    
C17   C18   A    
C63   H37   S    
C1    O1    A    
C45   N1    A    
C7    C31   A    
C51   C52   A    
C31   H3    S    
C25   H5    S    
C24   C25   A    
C32   H4    S    
C19   O4    S    
C10   C14   A    
C61   H31   S    
C39   C40   A    
C35   H6    S    
C25   C26   A    
C44   O13   S    
C5    C45   A    
C23   O9    A    
Cu1   O6    S    
C52   N3    A    
C43   C44   A    
Cu1   O1    S    
C6    O15   S    
C37   C38   A    
C8    C57   A    
C3    C56   A    
C47   C48   A    
C8    C12   S    
C62   H35   S    
C36   H8    S    
C50   C51   A    
C34   O11   A    
C26   N2    S    
C54   H16   S    
C30   H19   S    
C22   C62   S    
C6    C30   A    
C11   C32   A    
C60   H26   S    
C9    C34   S    
C31   C35   A    
C42   C43   A    
O14   H28   S    
C59   H23   S    
C49   C61   S    
O15   H32   S    
C63   H38   S    
Cu2   O5    S    
C38   H11   S    
C40   C41   A    
C1    O5    A    
C14   C15   A    
C53   H13   S    
C34   O10   A    
C47   H14   S    
C4    C5    A    
C10   C13   A    
C63   H36   S    
C2    C58   A    
C9    C24   A    
C47   C52   A    
O13   H27   S    
C29   C35   A    
Cu1   N4    S    
C13   C17   A    
C53   N3    A    
C32   C33   A    
C2    C3    A    
C2    H10   S    
C50   H15   S    
C11   C13   A    
C38   C39   A    
C48   C49   A    
C15   C63   S    
C56   H2    S    
Cu1   O8    S    
C14   H18   S    
C55   O3    S    
C18   C33   A    
Cu2   O11   S    
C1    C42   S    
C11   C29   A    
C43   H7    S    
C49   C50   A    
C21   H17   S    
C27   C28   A    
C23   O8    A    
C61   H29   S    
C45   O12   S    
C51   N4    A    
C15   C16   A    
