data_mof_unit_4150.cif
_audit_creation_date              2012-12-10T20:48:19-0500
_audit_creation_method            fapswitch 2.2
_symmetry_space_group_name_H-M    P1
_symmetry_Int_Tables_number       1
_space_group_crystal_system       triclinic
_cell_length_a                    10.871286
_cell_length_b                    8.946833
_cell_length_c                    8.112205
_cell_angle_alpha                 90.046774
_cell_angle_beta                  90.219338
_cell_angle_gamma                 89.872394
_cell_volume                      789.014106934

loop_
_atom_site_label
_atom_site_type_symbol
_atom_type_description
_atom_site_fract_x
_atom_site_fract_y
_atom_site_fract_z
_atom_type_partial_charge
C1    C     C_R   0.500367 0.217992 0.499959 0.918930
C2    C     C_1   0.499232 0.934816 0.500060 -0.204988
C3    C     C_3   0.075139 0.665147 0.562783 0.337002
C4    C     C_3   0.929137 0.652961 0.592461 0.379114
C5    C     C_3   0.120945 0.503921 0.492339 -0.080853
C6    C     C_3   0.878841 0.503191 0.494520 -0.090500
C7    C     C_3   0.147370 0.718267 0.721818 -0.828299
C8    C     C_3   0.110356 0.796005 0.442237 -0.853310
C9    C     C_3   0.900544 0.650483 0.781639 -0.916256
C10   C     C_3   0.858380 0.800652 0.542742 -0.879751
C11   C     C_R   0.257197 0.501718 0.498209 0.887463
C12   C     C_R   0.742773 0.501538 0.499093 0.887643
C13   C     C_R   0.498915 0.781976 0.500028 0.919614
C14   C     C_1   0.499782 0.065152 0.499950 -0.206114
C15   C     C_3   0.070983 0.363347 0.602302 0.160161
C16   C     C_3   0.072643 0.483053 0.302040 0.195313
C17   C     C_3   0.925936 0.348231 0.574716 0.159951
C18   C     C_3   0.926272 0.506661 0.302081 0.181561
H1    H     H_    0.191049 0.369060 0.805647 0.213413
H2    H     H_    0.105944 0.137158 0.632333 0.179661
H3    H     H_    0.055511 0.243466 0.270391 0.244175
H4    H     H_    0.200330 0.306746 0.252256 0.213734
H5    H     H_    0.920322 0.122225 0.511953 0.188284
H6    H     H_    0.804770 0.220162 0.433437 0.187444
H7    H     H_    0.786754 0.423956 0.141781 0.211457
H8    H     H_    0.921975 0.375225 0.088684 0.180403
H9    H     H_    0.244217 0.748416 0.694291 0.249292
H10   H     H_    0.108100 0.823463 0.771970 0.220772
H11   H     H_    0.151424 0.636747 0.822276 0.246746
H12   H     H_    0.059895 0.297104 0.849159 0.198181
H13   H     H_    0.057224 0.803534 0.327645 0.270760
H14   H     H_    0.095960 0.906757 0.500624 0.230411
H15   H     H_    0.209152 0.790314 0.408089 0.236260
H16   H     H_    0.923897 0.757772 0.842700 0.233090
H17   H     H_    0.802193 0.638588 0.811567 0.261474
H18   H     H_    0.953994 0.567674 0.849402 0.236126
H19   H     H_    0.874032 0.846481 0.419266 0.235407
H20   H     H_    0.757646 0.787802 0.557179 0.232806
H21   H     H_    0.885547 0.894544 0.624571 0.230201
H22   H     H_    0.213298 0.560810 0.141433 0.226610
H23   H     H_    0.080130 0.584031 0.073799 0.172535
H24   H     H_    0.781818 0.245167 0.707199 0.193731
H25   H     H_    0.839064 0.388499 0.809616 0.208659
H26   H     H_    0.897156 0.648204 0.100793 0.172115
H27   H     H_    0.801332 0.680570 0.246667 0.212511
H28   H     H_    0.227741 0.229916 0.567449 0.175956
N1    N     N_1   0.500000 0.500030 0.073640 -0.060769
N2    N     N_3   0.869472 0.389353 0.195139 -0.440867
N3    N     N_1   0.500000 0.500030 0.926360 -0.054944
N4    N     N_3   0.097936 0.383814 0.780061 -0.489406
N5    N     N_3   0.127096 0.592136 0.185047 -0.437372
N6    N     N_3   0.863368 0.303661 0.730221 -0.484885
N7    N     N_3   0.893198 0.652764 0.228166 -0.486441
N8    N     N_3   0.132547 0.222691 0.552327 -0.489247
N9    N     N_3   0.108021 0.334024 0.234662 -0.491058
N10   N     N_3   0.899177 0.225093 0.458496 -0.450317
O1    O     O_R   0.500000 0.285340 0.636850 -0.622255
O2    O     O_R   0.500000 0.285340 0.363150 -0.614082
O3    O     O_R   0.314790 0.499970 0.636880 -0.635491
O4    O     O_R   0.314790 0.499970 0.363120 -0.645109
O5    O     O_R   0.685210 0.499970 0.636880 -0.640125
O6    O     O_R   0.685210 0.499970 0.363120 -0.642869
O7    O     O_R   0.500000 0.714650 0.636900 -0.618965
O8    O     O_R   0.500000 0.714650 0.363100 -0.614842
Zn1   Zn    Zn3+2 0.500000 0.499990 0.682780 0.942770
Zn2   Zn    Zn3+2 0.500000 0.499990 0.317220 0.947380

loop_
_geom_bond_atom_site_label_1
_geom_bond_atom_site_label_2
_ccdc_geom_bond_type
C9    H18   S    
C18   N2    S    
O7    Zn1   S    
H4    N9    S    
C7    H11   S    
C1    O1    A    
H6    N10   S    
H22   N5    S    
C12   O6    A    
N1    Zn2   S    
C3    C7    S    
C13   O7    A    
C16   N5    S    
H8    N2    S    
C10   H20   S    
H28   N8    S    
H12   N4    S    
C16   N9    S    
O4    Zn2   S    
H5    N10   S    
N1    N3    T    
C1    O2    A    
O3    Zn1   S    
C12   O5    A    
C2    C13   S    
H1    N4    S    
C13   O8    A    
N3    Zn1   S    
C10   H19   S    
C6    C18   S    
H3    N9    S    
C17   N6    S    
C16   C18   S    
O2    Zn2   S    
C5    C11   S    
C17   N10   S    
C8    H15   S    
C6    C12   S    
C9    H16   S    
C2    C14   T    
C11   O3    A    
H25   N6    S    
C5    C15   S    
C4    C6    S    
C11   O4    A    
O6    Zn2   S    
H27   N7    S    
C3    C4    S    
C8    H14   S    
C15   N8    S    
O5    Zn1   S    
C7    H9    S    
H2    N8    S    
C3    C8    S    
C15   N4    S    
O1    Zn1   S    
C15   C17   S    
C6    C17   S    
C5    C16   S    
C1    C14   S    
C18   N7    S    
C4    C9    S    
C8    H13   S    
H7    N2    S    
H26   N7    S    
H23   N5    S    
C7    H10   S    
C9    H17   S    
C4    C10   S    
H24   N6    S    
C10   H21   S    
C3    C5    S    
O8    Zn2   S    
