data_mof_unit_4375.cif
_audit_creation_date              2013-03-05T15:48:55-0500
_audit_creation_method            fapswitch 2.2
_symmetry_space_group_name_H-M    P1
_symmetry_Int_Tables_number       1
_space_group_crystal_system       triclinic
_cell_length_a                    6.958692
_cell_length_b                    13.585561
_cell_length_c                    20.063359
_cell_angle_alpha                 104.126896
_cell_angle_beta                  90.429732
_cell_angle_gamma                 90.337471
_cell_volume                      1839.27227768

loop_
_atom_site_label
_atom_site_type_symbol
_atom_site_description
_atom_site_fract_x
_atom_site_fract_y
_atom_site_fract_z
_atom_type_partial_charge
O1    O     O_R   0.506780 0.600060 0.449950 -0.593659
O2    O     O_R   0.179840 0.597110 0.589410 -0.601596
O3    O     O_R   0.004570 0.399940 0.550050 -0.598077
C1    C     C_R   0.348562 0.617263 0.617154 0.959010
O4    O     O_R   0.177380 0.612160 0.452890 -0.598618
O5    O     O_R   0.002100 0.415100 0.412560 -0.591793
C2    C     C_R   0.345504 0.638681 0.436329 0.929462
O6    O     O_R   0.509250 0.584900 0.587440 -0.599312
O7    O     O_3   0.337570 0.435330 0.486930 -0.277902
V1    V     V_3+5 0.064650 0.512000 0.502430 1.157229
O8    O     O_R   0.672090 0.402890 0.410590 -0.603205
C3    C     C_R   0.839776 0.381926 0.382748 0.907917
O9    O     O_R   0.674540 0.387840 0.547110 -0.596112
C4    C     C_R   0.842985 0.361924 0.564056 0.975483
V2    V     V_3+5 0.564040 0.488000 0.497570 1.156921
O10   O     O_3   0.840990 0.564670 0.513070 -0.278103
C5    C     C_R   0.772787 0.112778 0.609018 0.631175
H1    H     H_    0.769666 0.163818 0.515723 0.132690
H2    H     H_    0.707165 0.995656 0.694965 0.165801
C6    C     C_R   0.846945 0.284578 0.603120 -0.149014
C7    C     C_R   0.917667 0.317510 0.932939 -0.187065
C8    C     C_R   0.936856 0.393143 0.897624 -0.005315
C9    C     C_R   0.912355 0.370780 0.826464 -0.180799
C10   C     C_R   0.861757 0.271510 0.788747 0.119224
C11   C     C_R   0.829059 0.196334 0.826160 0.132969
C12   C     C_R   0.843392 0.243983 0.715335 0.041929
C13   C     C_R   0.790027 0.142587 0.681370 0.013420
C14   C     C_R   0.750746 0.072352 0.719956 -0.201719
C15   C     C_R   0.766134 0.099361 0.790972 -0.275103
C16   C     C_R   0.874152 0.313649 0.674344 -0.248197
C17   C     C_R   0.795906 0.185021 0.570731 -0.345200
C18   C     C_R   0.863626 0.219073 0.898075 -0.175317
H3    H     H_    0.911151 0.392096 0.696196 0.116887
H4    H     H_    0.946381 0.335637 0.987768 0.117641
H5    H     H_    0.934509 0.432936 0.802735 0.125939
H6    H     H_    0.975147 0.469473 0.925477 0.174298
H7    H     H_    0.726455 0.043722 0.818513 0.120485
C19   C     C_3   0.755365 0.166595 0.247275 -0.149893
C20   C     C_3   0.929435 0.204725 0.295430 -0.114229
H8    H     H_    0.985678 0.167685 0.334967 0.161043
H9    H     H_    0.673906 0.094935 0.243025 0.119098
C21   C     C_3   0.846847 0.312652 0.311638 -0.114870
C22   C     C_3   0.672235 0.275328 0.264287 -0.097243
C23   C     C_3   0.783589 0.298320 0.203197 -0.131723
C24   C     C_3   0.958069 0.336545 0.251298 -0.141054
C25   C     C_3   0.041060 0.227713 0.234369 -0.051997
C26   C     C_3   0.866346 0.190412 0.187092 -0.085692
H10   H     H_    0.520190 0.295694 0.276754 0.108415
H11   H     H_    0.723461 0.336076 0.164576 0.100959
H12   H     H_    0.041660 0.407107 0.253352 0.111236
H13   H     H_    0.193143 0.207506 0.221771 0.118780
C27   C     C_3   0.537451 0.730647 0.727815 -0.044044
C28   C     C_3   0.437364 0.835434 0.748305 -0.245060
H14   H     H_    0.500704 0.909990 0.747825 0.129436
H15   H     H_    0.684412 0.714235 0.707318 0.152080
C29   C     C_3   0.357173 0.807940 0.813190 -0.242755
C30   C     C_3   0.457020 0.703708 0.793194 -0.092104
C31   C     C_3   0.274513 0.657101 0.752257 -0.238816
C32   C     C_3   0.178986 0.761848 0.772153 0.733068
C33   C     C_3   0.255234 0.789241 0.707009 -0.268061
C34   C     C_3   0.355264 0.685485 0.687912 -0.170533
H16   H     H_    0.541537 0.668263 0.828088 0.198833
H17   H     H_    0.204931 0.583814 0.753498 0.134948
H18   H     H_    0.173599 0.823829 0.670860 0.122582
C35   C     C_R   0.274806 0.887836 0.392120 -0.118893
H19   H     H_    0.260785 0.835711 0.484465 0.109672
H20   H     H_    0.228971 0.962844 0.418835 0.142833
C36   C     C_R   0.348825 0.717100 0.397979 -0.096216
C37   C     C_R   0.385221 0.680312 0.067411 0.197006
C38   C     C_R   0.391294 0.604786 0.104096 0.571705
C39   C     C_R   0.377680 0.630759 0.175627 -0.397913
C40   C     C_R   0.361622 0.732862 0.213247 0.054997
C41   C     C_R   0.348181 0.809360 0.176053 0.002405
C42   C     C_R   0.351841 0.760669 0.286569 0.082357
C43   C     C_R   0.309605 0.862792 0.320915 -0.024210
C44   C     C_R   0.299196 0.937847 0.283482 0.578438
C45   C     C_R   0.319016 0.910883 0.212256 -0.338566
C46   C     C_R   0.379294 0.689865 0.327127 -0.207200
C47   C     C_R   0.292482 0.815354 0.430032 -0.174539
C48   C     C_R   0.363389 0.782813 0.103202 -0.365851
H21   H     H_    0.420588 0.612426 0.305265 0.099630
H22   H     H_    0.376528 0.568234 0.199876 0.158366
H23   H     H_    0.307210 0.970858 0.185504 0.149473
O11   O     O_R   0.203580 0.914920 0.912610 -0.584323
O12   O     O_R   0.535710 0.887810 0.047120 -0.569616
O13   O     O_R   0.710730 0.084950 0.087430 -0.600789
C49   C     C_R   0.367716 0.861796 0.064370 1.057635
O14   O     O_R   0.533010 0.902850 0.910600 -0.591746
O15   O     O_R   0.708010 0.100090 0.949930 -0.604361
C50   C     C_R   0.363985 0.879765 0.883480 0.988139
O16   O     O_R   0.206300 0.899780 0.050100 -0.600320
O17   O     O_3   0.375170 0.064580 0.013100 -0.290385
V3    V     V_3+5 0.648200 0.988020 0.997570 1.205379
O18   O     O_R   0.038030 0.112330 0.952840 -0.593131
C51   C     C_R   0.869265 0.139142 0.936252 0.911494
O19   O     O_R   0.040730 0.097300 0.089360 -0.604692
C52   C     C_R   0.872997 0.119490 0.116700 0.904318
V4    V     V_3+5 0.148780 0.012220 0.002360 1.190082
O20   O     O_3   0.871930 0.935430 0.986900 -0.247706
O21   O     O_3   0.990966 0.773450 0.797773 -0.623318
C53   C     C_3   0.918920 0.866892 0.790960 -0.223375
H24   H     H_    0.877535 0.862290 0.736754 0.112624
H25   H     H_    0.021644 0.931094 0.808919 0.131963
H26   H     H_    0.789483 0.883483 0.822912 0.197694
O22   O     O_3   0.255971 0.037685 0.314843 -0.642817
C54   C     C_3   0.417359 0.087771 0.351665 -0.305650
H27   H     H_    0.555349 0.045561 0.341132 0.130284
H28   H     H_    0.389448 0.104555 0.407636 0.167349
H29   H     H_    0.435880 0.161931 0.338703 0.174922
N1    N     N_R   0.402006 0.652199 0.993824 0.228488
O23   O     O_R   0.301426 0.576724 0.957494 -0.394730
O24   O     O_R   0.536093 0.692434 0.963951 -0.433766
O25   O     O_3   0.404224 0.503663 0.069785 -0.589662
C55   C     C_3   0.599678 0.476295 0.065932 -0.173423
H30   H     H_    0.666962 0.488929 0.117890 0.102112
H31   H     H_    0.681185 0.518257 0.033941 0.160278
H32   H     H_    0.609600 0.394114 0.040997 0.161193
O26   O     O_3   0.714135 0.015327 0.576292 -0.630678
C56   C     C_3   0.874585 0.961294 0.544272 -0.282270
H33   H     H_    0.829515 0.881788 0.520968 0.187000
H34   H     H_    0.991288 0.959110 0.582190 0.131718
H35   H     H_    0.929474 0.993722 0.502178 0.145813

loop_
_geom_bond_atom_site_label_1
_geom_bond_atom_site_label_2
_geom_bond_distance
_ccdc_geom_bond_type
C23   H11   1.109190 S    
C53   H24   1.109741 S    
C35   C47   1.388886 A    
C49   O16   1.297715 A    
O12   V3    2.028368 S    
C1    O6    1.298799 A    
C55   H30   1.113441 S    
O17   V4    1.714975 S    
C30   H16   1.108897 S    
C6    C16   1.397643 A    
C28   H14   1.104484 S    
C23   C24   1.550985 S    
H19   C47   1.083853 S    
C12   C13   1.425420 A    
C44   O22   1.384596 S    
C14   C15   1.385010 A    
C10   C12   1.432937 A    
C48   C49   1.472196 S    
C27   C34   1.536396 S    
O5    C3    1.299644 A    
C19   C20   1.549126 S    
C28   C29   1.546411 S    
C54   H27   1.116210 S    
O18   V4    2.022688 S    
V2    O10   2.169107 S    
C29   C30   1.545100 S    
C25   C26   1.541242 S    
O13   C52   1.299759 A    
N1    O23   1.300621 A    
O17   V3    2.159309 S    
C3    C21   1.506580 S    
C2    C36   1.458658 S    
O26   C56   1.410108 S    
O8    V2    1.998162 S    
C35   H20   1.080363 S    
O19   V4    1.998306 S    
C9    C10   1.416921 A    
C38   C39   1.395840 A    
O1    V2    2.025026 S    
C22   H10   1.110040 S    
V3    O20   1.709845 S    
C23   C26   1.538401 S    
C39   H22   1.077046 S    
C11   C18   1.418262 A    
C56   H34   1.114091 S    
C32   C33   1.540698 S    
C53   H25   1.112184 S    
O9    C4    1.292603 A    
C36   C46   1.396885 A    
C32   O21   1.404948 S    
O18   C51   1.296525 A    
O11   C50   1.302080 A    
C28   C33   1.551651 S    
C20   C21   1.538140 S    
O12   C49   1.293139 A    
C38   O25   1.382061 S    
C11   C15   1.400124 A    
C7    C18   1.397361 A    
C42   C43   1.423822 A    
C5    C13   1.412606 A    
C4    C6    1.456444 S    
C10   C11   1.425608 A    
C19   H9    1.108433 S    
C40   C42   1.428975 A    
C20   H8    1.108215 S    
O4    C2    1.291603 A    
C7    H4    1.083776 S    
C31   C32   1.537572 S    
C24   C25   1.550111 S    
C25   H13   1.110313 S    
C33   C34   1.539540 S    
C21   C24   1.540433 S    
O15   C51   1.297930 A    
O2    C1    1.294332 A    
C43   C44   1.408156 A    
O13   V3    1.999105 S    
C37   N1    1.437764 S    
C56   H33   1.109492 S    
O19   C52   1.298908 A    
C44   C45   1.394039 A    
H2    C14   1.080757 S    
C19   C26   1.536510 S    
O3    C4    1.295667 A    
C5    O26   1.384107 S    
C20   C25   1.549179 S    
O14   C50   1.296387 A    
C12   C16   1.413568 A    
C53   H26   1.101613 S    
C9    H5    1.076712 S    
O9    V2    2.022827 S    
C22   C23   1.548718 S    
C5    C17   1.395438 A    
C21   C22   1.541542 S    
O2    V1    2.001999 S    
C27   C28   1.552733 S    
O25   C55   1.409822 S    
O7    V1    2.159289 S    
C56   H35   1.112514 S    
C31   H17   1.110399 S    
O14   V3    2.002148 S    
C41   C45   1.409821 A    
C16   H3    1.077636 S    
O1    C2    1.296839 A    
C40   C41   1.422782 A    
C26   C52   1.504118 S    
O5    V1    1.999105 S    
C55   H31   1.113073 S    
O8    C3    1.300300 A    
C27   H15   1.108553 S    
O6    V2    1.996763 S    
C8    H6    1.081776 S    
O22   C54   1.415349 S    
C35   C43   1.408626 A    
C29   C32   1.526877 S    
C33   H18   1.110337 S    
O11   V4    1.997390 S    
O7    V2    1.717050 S    
C19   C22   1.549242 S    
O3    V1    2.028255 S    
V1    O10   1.709808 S    
C46   H21   1.077952 S    
C30   C31   1.552245 S    
C54   H28   1.108856 S    
C24   H12   1.110314 S    
C31   C34   1.543494 S    
C1    C34   1.494263 S    
C29   C50   1.506627 S    
O21   C53   1.404539 S    
C41   C48   1.422356 A    
O16   V4    2.031440 S    
O15   V3    2.028250 S    
C37   C38   1.401787 A    
N1    O24   1.300358 A    
C55   H32   1.109201 S    
C27   C30   1.552653 S    
O4    V1    2.028347 S    
C18   C51   1.474283 S    
C39   C40   1.413630 A    
C36   C47   1.392837 A    
V4    O20   2.169195 S    
C42   C46   1.416288 A    
C15   H7    1.075470 S    
C13   C14   1.394708 A    
C45   H23   1.082747 S    
C8    C9    1.394176 A    
C37   C48   1.412043 A    
H1    C17   1.084223 S    
C7    C8    1.389544 A    
C6    C17   1.392703 A    
C54   H29   1.107328 S    
