data_mof_unit_2887.cif
_audit_creation_date              2013-03-05T16:03:50-0500
_audit_creation_method            fapswitch 2.2
_symmetry_space_group_name_H-M    P1
_symmetry_Int_Tables_number       1
_space_group_crystal_system       triclinic
_cell_length_a                    6.934713
_cell_length_b                    17.551381
_cell_length_c                    19.682849
_cell_angle_alpha                 108.783352
_cell_angle_beta                  90.066997
_cell_angle_gamma                 90.546317
_cell_volume                      2267.96154845

loop_
_atom_site_label
_atom_site_type_symbol
_atom_site_description
_atom_site_fract_x
_atom_site_fract_y
_atom_site_fract_z
_atom_type_partial_charge
O1    O     O_R   0.505700 0.440210 0.561730 -0.611523
O2    O     O_R   0.169350 0.406300 0.412660 -0.570258
O3    O     O_R   0.005650 0.559790 0.438270 -0.571237
C1    C     C_R   0.337914 0.381079 0.386040 0.982181
O4    O     O_R   0.175560 0.430650 0.559600 -0.562825
O5    O     O_R   0.011900 0.584320 0.586250 -0.597081
C2    C     C_R   0.344566 0.417029 0.581918 0.953916
O6    O     O_R   0.499450 0.415680 0.413750 -0.600774
O7    O     O_3   0.341370 0.550390 0.508570 -0.243902
V1    V     V_3+5 0.063940 0.490650 0.498410 1.241099
O8    O     O_R   0.682570 0.593700 0.587340 -0.593683
C3    C     C_R   0.852355 0.617587 0.614653 0.989782
O9    O     O_R   0.676370 0.569350 0.440400 -0.560298
C4    C     C_R   0.844020 0.582559 0.417345 1.024076
V2    V     V_3+5 0.564750 0.509350 0.501590 1.234807
O10   O     O_3   0.837190 0.449610 0.491430 -0.266404
C5    C     C_R   0.966570 0.640168 0.252416 -0.063550
H1    H     H_    0.040470 0.612392 0.202238 0.125373
C6    C     C_R   0.956968 0.598991 0.302694 -0.161701
H2    H     H_    0.025797 0.541175 0.290421 0.124922
C7    C     C_R   0.852047 0.629785 0.366602 -0.273412
C8    C     C_R   0.760177 0.705215 0.380491 0.363405
C9    C     C_R   0.785316 0.748879 0.332509 -0.059226
H3    H     H_    0.722642 0.808119 0.345639 0.193675
C10   C     C_R   0.878296 0.715356 0.266210 0.096005
C11   C     C_R   0.717506 0.801984 0.200362 0.386086
C12   C     C_R   0.735510 0.852167 0.157439 -0.234377
H4    H     H_    0.610775 0.885367 0.149996 0.171126
C13   C     C_R   0.910866 0.859578 0.124101 -0.181660
C14   C     C_R   0.066270 0.812233 0.131332 -0.103884
H5    H     H_    0.201286 0.813959 0.104227 0.136550
C15   C     C_R   0.049332 0.761762 0.173558 -0.059929
H6    H     H_    0.170861 0.725741 0.177259 0.190372
C16   C     C_R   0.880047 0.759110 0.211953 -0.049456
H7    H     H_    0.455625 0.682582 0.910430 0.122175
C17   C     C_R   0.205844 0.860354 0.766711 -0.285562
C18   C     C_R   0.337042 0.852193 0.710981 0.324322
C19   C     C_R   0.288353 0.801631 0.643049 -0.216360
C20   C     C_R   0.118608 0.756551 0.631927 0.293716
C21   C     C_R   0.007985 0.749578 0.690529 0.027238
C22   C     C_R   0.042574 0.808052 0.758981 0.077280
C23   C     C_R   0.865967 0.687534 0.682647 -0.283895
C24   C     C_R   0.753979 0.687215 0.743256 0.109945
C25   C     C_R   0.775634 0.750641 0.809720 0.116364
C26   C     C_R   0.913268 0.813373 0.816806 -0.238614
C27   C     C_R   0.625181 0.622745 0.740383 -0.186227
C28   C     C_R   0.515984 0.622483 0.799545 -0.103702
C29   C     C_R   0.536823 0.684208 0.863954 -0.091104
C30   C     C_R   0.667518 0.746498 0.869713 -0.162595
H8    H     H_    0.238543 0.908226 0.814957 0.200779
H9    H     H_    0.374650 0.802078 0.597348 0.243962
H10   H     H_    0.609184 0.570243 0.693644 0.131495
H11   H     H_    0.418341 0.572916 0.795976 0.116879
H12   H     H_    0.687149 0.789000 0.922843 0.118440
H13   H     H_    0.270916 0.482016 0.182826 0.159273
C31   C     C_R   0.376249 0.207721 0.378046 0.073430
C32   C     C_R   0.475315 0.139305 0.381111 0.271332
C33   C     C_R   0.569242 0.090281 0.320056 0.318864
C34   C     C_R   0.545245 0.103837 0.254608 -0.329007
C35   C     C_R   0.453316 0.173772 0.251000 0.057119
C36   C     C_R   0.391040 0.232226 0.316052 0.011682
C37   C     C_R   0.424995 0.186380 0.184128 -0.208282
C38   C     C_R   0.372120 0.264155 0.183963 0.062274
C39   C     C_R   0.341053 0.327389 0.250115 0.115686
C40   C     C_R   0.346955 0.311791 0.316698 -0.224555
C41   C     C_R   0.360345 0.281641 0.118812 -0.214085
C42   C     C_R   0.324451 0.359671 0.118632 0.440195
C43   C     C_R   0.297135 0.421376 0.183009 -0.183185
C44   C     C_R   0.304816 0.405681 0.247984 -0.248119
H14   H     H_    0.606654 0.060936 0.207311 0.170826
H15   H     H_    0.384826 0.235679 0.067717 0.133842
H16   H     H_    0.283596 0.455719 0.296549 0.131416
C45   C     C_R   0.456925 0.250127 0.658778 -0.037776
H17   H     H_    0.518330 0.190546 0.639876 0.167998
C46   C     C_R   0.446494 0.294838 0.611313 -0.048058
H18   H     H_    0.505424 0.270131 0.557933 0.165104
C47   C     C_R   0.356376 0.370008 0.631918 -0.126490
C48   C     C_R   0.289029 0.402425 0.702279 -0.200712
H19   H     H_    0.223947 0.461371 0.719815 0.108214
C49   C     C_R   0.310061 0.360021 0.751143 0.008492
H20   H     H_    0.263977 0.388390 0.805905 0.152194
C50   C     C_R   0.386193 0.281572 0.729312 0.136839
C51   C     C_R   0.234256 0.232078 0.826002 0.325439
C52   C     C_R   0.246634 0.187531 0.874513 0.234209
C53   C     C_R   0.412521 0.140546 0.875333 -0.304134
C54   C     C_R   0.564090 0.141281 0.828421 -0.037951
H21   H     H_    0.691616 0.105677 0.827038 0.192377
C55   C     C_R   0.552257 0.185727 0.781088 -0.085293
H22   H     H_    0.671174 0.182983 0.745109 0.194051
C56   C     C_R   0.390151 0.232541 0.779478 -0.112449
O11   O     O_R   0.273230 0.084330 0.086440 -0.577599
O12   O     O_R   0.596660 0.069390 0.940470 -0.562634
O13   O     O_R   0.760270 0.915710 0.913690 -0.564498
C57   C     C_R   0.426542 0.087685 0.921605 1.054501
O14   O     O_R   0.603330 0.093680 0.087390 -0.592027
O15   O     O_R   0.766990 0.940160 0.061660 -0.616995
C58   C     C_R   0.435177 0.117000 0.115274 0.927864
O16   O     O_R   0.266510 0.059870 0.938470 -0.575624
O17   O     O_3   0.431050 0.949630 0.991510 -0.291879
V3    V     V_3+5 0.708490 0.009340 0.001580 1.229225
O18   O     O_R   0.096270 0.930570 0.059390 -0.599281
C59   C     C_R   0.926465 0.913611 0.079398 0.946646
O19   O     O_R   0.089600 0.906290 0.912460 -0.624175
C60   C     C_R   0.921394 0.883530 0.884520 0.968532
V4    V     V_3+5 0.207670 0.990600 0.998190 1.201335
O20   O     O_3   0.935250 0.050360 0.008480 -0.231985
N1    N     N_R   0.512610 0.899332 0.722344 0.240796
O21   O     O_R   0.628183 0.894800 0.669137 -0.328217
O22   O     O_R   0.565215 0.942908 0.786672 -0.448804
Br1   Br    Br    0.019456 0.733845 0.537730 -0.420755
Br2   Br    Br    0.182507 0.250758 0.449643 -0.461425
N2    N     N_R   0.475994 0.118256 0.445617 0.258945
O23   O     O_R   0.322647 0.086372 0.464008 -0.264893
O24   O     O_R   0.636460 0.120831 0.480640 -0.322430
Br3   Br    Br    0.721142 0.001097 0.323689 -0.368294
Br4   Br    Br    0.320559 0.382952 0.030265 -0.460684
N3    N     N_R   0.058196 0.272535 0.821032 0.230090
O25   O     O_R   0.991375 0.328085 0.876873 -0.320789
O26   O     O_R   0.976375 0.260473 0.758892 -0.422794
N4    N     N_R   0.641172 0.738951 0.442395 0.242006
O27   O     O_R   0.486871 0.700418 0.450954 -0.350132
O28   O     O_R   0.657273 0.815183 0.478650 -0.289855
Br5   Br    Br    0.032342 0.192918 0.938676 -0.434442
N5    N     N_R   0.531992 0.793140 0.229529 0.212975
O29   O     O_R   0.476523 0.723702 0.233625 -0.450389
O30   O     O_R   0.413185 0.853205 0.248295 -0.365807

loop_
_geom_bond_atom_site_label_1
_geom_bond_atom_site_label_2
_geom_bond_distance
_ccdc_geom_bond_type
C25   C30   1.420609 A    
O18   C59   1.303912 A    
C31   C36   1.421923 A    
O15   C59   1.294512 A    
C12   C13   1.407149 A    
N1    O22   1.300455 A    
C45   H17   1.082413 S    
O11   V4    2.018396 S    
C6    H2    1.080520 S    
C1    O6    1.301319 A    
N2    O24   1.301047 A    
H13   C43   1.082585 S    
C47   C48   1.399626 A    
N4    O27   1.300280 A    
C52   Br5   1.934536 S    
C8    N4    1.436437 S    
C11   C12   1.408008 A    
C18   C19   1.385096 A    
O16   V4    1.984516 S    
C51   C52   1.418527 A    
C4    C7    1.489964 S    
C17   C18   1.398270 A    
C6    C7    1.405574 A    
C18   N1    1.441483 S    
N3    O26   1.300795 A    
O5    C3    1.296587 A    
C1    C40   1.509460 S    
C48   C49   1.401018 A    
C32   N2    1.431994 S    
C57   O16   1.294223 A    
V2    O10   2.147661 S    
C42   Br4   1.910681 S    
C27   H10   1.076871 S    
C31   C32   1.407056 A    
C35   C37   1.416975 A    
C3    C23   1.498851 S    
O8    V2    2.018066 S    
C11   C16   1.419489 A    
C20   Br1   1.893427 S    
C28   C29   1.383427 A    
C43   C44   1.393303 A    
C9    H3    1.082872 S    
O1    V2    1.989522 S    
O7    V1    2.160178 S    
C31   Br2   1.923511 S    
C10   C16   1.502779 S    
C28   H11   1.081466 S    
C21   C23   1.431865 A    
C41   C42   1.395442 A    
C38   C41   1.413833 A    
C34   C35   1.410328 A    
O1    C2    1.291713 A    
O9    C4    1.294290 A    
C45   C46   1.402464 A    
C17   C22   1.427447 A    
C11   N5    1.436672 S    
H7    C29   1.082780 S    
O13   C60   1.304533 A    
N2    O23   1.301945 A    
N4    O28   1.301524 A    
O18   V4    1.990453 S    
O17   V4    1.701421 S    
C42   C43   1.391091 A    
C52   C53   1.424890 A    
C49   C50   1.411598 A    
C20   C21   1.423072 A    
O4    C2    1.302113 A    
C54   H21   1.083037 S    
C19   H9    1.083069 S    
C33   C34   1.393335 A    
C53   C54   1.402575 A    
C35   C36   1.429092 A    
C15   C16   1.405393 A    
C44   H16   1.081151 S    
O2    C1    1.303393 A    
C46   H18   1.081627 S    
C13   C14   1.401807 A    
C26   C60   1.495801 S    
C37   C58   1.504522 S    
C53   C57   1.498478 S    
C41   H15   1.082386 S    
C14   H5    1.083155 S    
N1    O21   1.301909 A    
C37   C38   1.417840 A    
O12   C57   1.309845 A    
C5    H1    1.082415 S    
O19   V4    2.018192 S    
C39   C44   1.413082 A    
O11   C58   1.299545 A    
C46   C47   1.402661 A    
O13   V3    2.001026 S    
O3    C4    1.303503 A    
C21   C22   1.424862 A    
C55   C56   1.405047 A    
O6    V2    2.012624 S    
O9    V2    1.990506 S    
C24   C25   1.425389 A    
C33   Br3   1.915270 S    
C23   C24   1.425721 A    
O2    V1    1.997293 S    
C45   C50   1.409238 A    
O19   C60   1.292587 A    
C17   H8    1.068265 S    
C25   C26   1.422483 A    
O12   V3    1.997202 S    
N5    O30   1.301211 A    
C51   C56   1.419275 A    
C27   C28   1.390999 A    
C29   C30   1.389462 A    
O14   V3    1.997279 S    
C49   H20   1.081712 S    
O5    V1    2.001156 S    
O8    C3    1.301938 A    
O14   C58   1.301710 A    
V4    O20   2.147541 S    
V3    O20   1.710126 S    
C50   C56   1.504608 S    
O17   V3    2.160119 S    
C2    C47   1.476643 S    
C5    C10   1.405355 A    
C15   H6    1.074677 S    
C51   N3    1.437149 S    
O7    V2    1.701588 S    
O4    V1    1.997210 S    
O3    V1    1.992606 S    
V1    O10   1.710109 S    
N3    O25   1.301188 A    
C39   C40   1.423130 A    
C14   C15   1.400576 A    
C48   H19   1.082818 S    
C32   C33   1.398364 A    
C19   C20   1.389130 A    
O15   V3    1.992540 S    
C5    C6    1.402099 A    
C13   C59   1.490274 S    
C54   C55   1.397240 A    
C9    C10   1.406971 A    
C24   C27   1.421525 A    
C34   H14   1.081940 S    
C38   C39   1.431131 A    
C36   C40   1.428455 A    
C55   H22   1.078915 S    
C12   H4    1.083298 S    
C22   C26   1.429582 A    
C8    C9    1.404830 A    
C7    C8    1.420140 A    
C30   H12   1.078864 S    
N5    O29   1.301611 A    
