data_mof_unit_3973.cif
_audit_creation_date              2013-03-05T16:34:04-0500
_audit_creation_method            fapswitch 2.2
_symmetry_space_group_name_H-M    P1
_symmetry_Int_Tables_number       1
_space_group_crystal_system       triclinic
_cell_length_a                    9.529966
_cell_length_b                    10.813295
_cell_length_c                    17.039372
_cell_angle_alpha                 89.445595
_cell_angle_beta                  94.005943
_cell_angle_gamma                 89.974628
_cell_volume                      1751.53983842

loop_
_atom_site_label
_atom_site_type_symbol
_atom_site_description
_atom_site_fract_x
_atom_site_fract_y
_atom_site_fract_z
_atom_type_partial_charge
O1    O     O_R   0.618810 0.319640 0.500000 -0.586354
O2    O     O_R   0.381230 0.319680 0.499990 -0.599849
C1    C     C_R   0.499262 0.262547 0.496353 0.770366
O3    O     O_R   0.631790 0.498830 0.613930 -0.538307
O4    O     O_R   0.394210 0.498870 0.613920 -0.588429
C2    C     C_R   0.517894 0.498728 0.651360 0.819990
Cu1   Cu    Cu3+1 0.640670 0.499980 0.500000 0.977496
Cu2   Cu    Cu3+1 0.359330 0.500020 0.500000 0.957293
O5    O     O_R   0.618770 0.680320 0.500010 -0.566756
O6    O     O_R   0.381190 0.680360 0.500000 -0.584603
O7    O     O_R   0.605790 0.501130 0.386080 -0.588679
O8    O     O_R   0.368210 0.501170 0.386070 -0.560838
C3    C     C_R   0.500135 0.737681 0.498988 0.835285
C4    C     C_R   0.482372 0.501996 0.349003 0.817676
C5    C     C_R   0.527811 0.493133 0.738240 -0.170869
C6    C     C_R   0.403157 0.475963 0.776652 -0.264680
C7    C     C_R   0.406571 0.465967 0.858090 -0.138738
C8    C     C_R   0.535432 0.471447 0.903091 0.305466
C9    C     C_R   0.660161 0.484287 0.865637 -0.256554
C10   C     C_R   0.658181 0.498819 0.783902 0.326771
C11   C     C_R   0.576454 0.561884 0.140936 0.156867
C12   C     C_R   0.584666 0.553506 0.223093 -0.234111
C13   C     C_R   0.453705 0.517476 0.098079 0.336068
N1    N     N_2   0.543579 0.468279 0.986241 -0.242418
N2    N     N_2   0.440046 0.516086 0.014981 -0.254078
C14   C     C_R   0.472073 0.506934 0.262901 -0.060955
H1    H     H_    0.678067 0.586852 0.256094 0.167109
H2    H     H_    0.759143 0.489760 0.900844 0.177192
C15   C     C_R   0.349268 0.468490 0.220161 -0.138402
C16   C     C_R   0.340283 0.474219 0.138349 -0.193892
H3    H     H_    0.261120 0.432233 0.249946 0.183191
H4    H     H_    0.308696 0.453661 0.885914 0.175384
H5    H     H_    0.245496 0.442419 0.105937 0.156897
H6    H     H_    0.301944 0.470060 0.743793 0.197083
C17   C     C_R   0.619769 0.063668 0.512847 0.050737
C18   C     C_R   0.498433 0.129381 0.487647 -0.150236
C19   C     C_R   0.382072 0.063916 0.450943 0.121749
C20   C     C_R   0.384617 0.933749 0.455484 -0.176434
H7    H     H_    0.295439 0.880880 0.433082 0.192046
C21   C     C_R   0.501274 0.870729 0.491122 -0.137168
C22   C     C_R   0.622453 0.937064 0.512696 0.053937
C23   C     C_3   0.720088 0.929554 0.585122 -0.418483
C24   C     C_3   0.717832 0.070970 0.585607 -0.059859
H8    H     H_    0.670581 0.883953 0.635066 0.213966
H9    H     H_    0.824308 0.891124 0.572622 0.187243
H10   H     H_    0.820384 0.113296 0.573004 0.162685
C25   C     C_R   0.065653 0.546671 0.437048 0.209619
N3    N     N_R   0.147870 0.500930 0.499500 -0.219019
C26   C     C_R   0.081675 0.440723 0.557547 -0.071955
H11   H     H_    0.143330 0.394559 0.604823 0.149171
C27   C     C_R   0.932647 0.440284 0.557368 -0.009009
H12   H     H_    0.882659 0.393436 0.604324 0.169044
N4    N     N_R   0.851960 0.500890 0.499500 -0.187604
C28   C     C_R   0.918211 0.548169 0.437629 0.214616
C29   C     C_3   0.907479 0.677592 0.406768 -0.548767
C30   C     C_3   0.066942 0.675550 0.404940 0.120081
H13   H     H_    0.849480 0.683539 0.348031 0.217757
H14   H     H_    0.870472 0.743271 0.450669 0.190684
H15   H     H_    0.121115 0.742257 0.445735 0.104033
C31   C     C_3   0.651378 0.126567 0.657280 -0.373950
C32   C     C_3   0.751838 0.118418 0.730874 -0.777815
H16   H     H_    0.776340 0.020368 0.746234 0.261965
H17   H     H_    0.851037 0.168482 0.721198 0.258042
H18   H     H_    0.702239 0.161638 0.780942 0.246012
H19   H     H_    0.627202 0.225700 0.645637 0.205899
H20   H     H_    0.551302 0.078644 0.668373 0.211320
N5    N     N_R   0.114566 0.679553 0.325079 0.153202
O9    O     O_R   0.218770 0.750861 0.309062 -0.388588
O10   O     O_R   0.058116 0.608337 0.270389 -0.404133
C33   C     C_3   0.696058 0.625049 0.102330 -0.390397
C34   C     C_3   0.823890 0.540038 0.100926 -0.749860
H21   H     H_    0.861037 0.511420 0.161627 0.273330
H22   H     H_    0.797444 0.456089 0.065913 0.251794
H23   H     H_    0.910579 0.589766 0.073810 0.251061
H24   H     H_    0.663902 0.656987 0.041648 0.225306
H25   H     H_    0.726946 0.709857 0.135635 0.207681
N6    N     N_R   0.788308 0.524661 0.749560 0.121910
O11   O     O_R   0.899352 0.458839 0.770292 -0.406191
O12   O     O_R   0.803598 0.628836 0.712226 -0.366317
C35   C     C_3   0.256136 0.132098 0.410504 -0.381931
C36   C     C_3   0.160389 0.055144 0.354092 -0.806092
H26   H     H_    0.223136 0.007935 0.310715 0.289434
H27   H     H_    0.100223 0.986364 0.386989 0.247716
H28   H     H_    0.083185 0.117036 0.321466 0.240975
H29   H     H_    0.191038 0.170940 0.455966 0.219354
H30   H     H_    0.295729 0.209747 0.374957 0.209819

loop_
_geom_bond_atom_site_label_1
_geom_bond_atom_site_label_2
_geom_bond_distance
_ccdc_geom_bond_type
C29   C30   1.522324 S    
C22   C23   1.494284 S    
C17   C18   1.396568 A    
C36   H26   1.110513 S    
Cu1   Cu2   2.681160 S    
N4    C28   1.361728 A    
Cu1   O7    1.946276 S    
C15   C16   1.391434 A    
C10   N6    1.434188 S    
C8    N1    1.413605 S    
C18   C19   1.426295 A    
C19   C20   1.409018 A    
O4    C2    1.300477 A    
O7    C4    1.295629 A    
C5    C6    1.407330 A    
C8    C9    1.394242 A    
C32   H17   1.111058 S    
O5    C3    1.288285 A    
C3    C21   1.443745 S    
C35   H30   1.112027 S    
C6    H6    1.083152 S    
C2    C5    1.477438 S    
C9    C10   1.398863 A    
C6    C7    1.388925 A    
C26   C27   1.420039 A    
C33   C34   1.527479 S    
C17   C24   1.502241 S    
C31   H20   1.112471 S    
C11   C12   1.398671 A    
C23   H8    1.112730 S    
O3    Cu1   1.948955 S    
C36   H27   1.110558 S    
N6    O12   1.301572 A    
C5    C10   1.420808 A    
C19   C35   1.527278 S    
N5    O9    1.299886 A    
C13   C16   1.398518 A    
N1    N2    1.245998 D    
O3    C2    1.296775 A    
C34   H22   1.110472 S    
N6    O11   1.301348 A    
C27   H12   1.081369 S    
C31   C32   1.525422 S    
O1    C1    1.294006 A    
C23   H9    1.111499 S    
C32   H18   1.110640 S    
Cu2   N3    2.014648 S    
C35   H29   1.111109 S    
O4    Cu2   1.946276 S    
C25   N3    1.365255 A    
Cu2   O8    1.948957 S    
C7    C8    1.403186 A    
C4    C14   1.463989 S    
C9    H2    1.083908 S    
C24   C31   1.541404 S    
C25   C28   1.405930 A    
N3    C26   1.369364 A    
O8    C4    1.295596 A    
C31   H19   1.109418 S    
C12   H1    1.082957 S    
C11   C13   1.421336 A    
C33   H25   1.112060 S    
C23   C24   1.529427 S    
Cu1   N4    2.014228 S    
C36   H28   1.110631 S    
N5    O10   1.301947 A    
Cu1   O5    1.961117 S    
C28   C29   1.491192 S    
C21   C22   1.389179 A    
C16   H5    1.083275 S    
O1    Cu1   1.961257 S    
O2    Cu2   1.961117 S    
C35   C36   1.530549 S    
O6    C3    1.293268 A    
C34   H23   1.110876 S    
C30   N5    1.464497 S    
C30   H15   1.109011 S    
C11   C33   1.514995 S    
C29   H13   1.110304 S    
O2    C1    1.288656 A    
C34   H21   1.110594 S    
C15   H3    1.083037 S    
C20   C21   1.402169 A    
C20   H7    1.074307 S    
C1    C18   1.448980 S    
C13   N2    1.413061 S    
C32   H16   1.110414 S    
C17   C22   1.369261 A    
C24   H10   1.112903 S    
C14   C15   1.400029 A    
Cu2   O6    1.961258 S    
C26   H11   1.081285 S    
C12   C14   1.400219 A    
C29   H14   1.111421 S    
C33   H24   1.109513 S    
C7    H4    1.083122 S    
C27   N4    1.368988 A    
C25   C30   1.492574 S    
