data_mof_unit_4217.cif
_audit_creation_date              2012-12-11T16:51:19-0500
_audit_creation_method            fapswitch 2.2
_symmetry_space_group_name_H-M    P1
_symmetry_Int_Tables_number       1
_space_group_crystal_system       triclinic
_cell_length_a                    24.326572
_cell_length_b                    17.287617
_cell_length_c                    15.563834
_cell_angle_alpha                 90.000042
_cell_angle_beta                  128.843227
_cell_angle_gamma                 89.999964
_cell_volume                      5097.94123397

loop_
_atom_site_label
_atom_site_type_symbol
_atom_type_description
_atom_site_fract_x
_atom_site_fract_y
_atom_site_fract_z
_atom_type_partial_charge
C1    C     C_R   0.830454 0.902484 0.195124 0.266120
C2    C     C_R   0.169545 0.902484 0.804876 0.266120
C3    C     C_R   0.330455 0.402484 0.195124 0.266120
C4    C     C_R   0.669545 0.402484 0.804876 0.266120
C5    C     C_R   0.883710 0.102484 0.590379 -0.102371
C6    C     C_R   0.116290 0.102484 0.409621 -0.102371
C7    C     C_R   0.383710 0.602484 0.590379 -0.102371
C8    C     C_R   0.616290 0.602484 0.409621 -0.102371
C9    C     C_R   0.814892 0.116918 0.497540 0.074474
C10   C     C_R   0.185108 0.116918 0.502460 0.074474
C11   C     C_R   0.314892 0.616918 0.497540 0.074474
C12   C     C_R   0.685108 0.616918 0.502460 0.074474
C13   C     C_R   0.887027 0.185317 0.219718 0.113387
C14   C     C_R   0.112973 0.185317 0.780282 0.113387
C15   C     C_R   0.387027 0.685317 0.219718 0.113387
C16   C     C_R   0.612973 0.685317 0.780282 0.113387
C17   C     C_R   0.847507 0.720500 0.606966 0.027671
C18   C     C_R   0.152493 0.720501 0.393033 0.027670
C19   C     C_R   0.347507 0.220501 0.606967 0.027670
C20   C     C_R   0.652493 0.220501 0.393033 0.027670
C21   C     C_R   0.833270 0.741942 0.508066 0.075179
C22   C     C_R   0.166730 0.741942 0.491933 0.075180
C23   C     C_R   0.333270 0.241942 0.508066 0.075179
C24   C     C_R   0.666730 0.241942 0.491934 0.075180
C25   C     C_R   0.783241 0.698726 0.412556 -0.177008
C26   C     C_R   0.216758 0.698726 0.587443 -0.177008
C27   C     C_R   0.283241 0.198726 0.412557 -0.177008
C28   C     C_R   0.716758 0.198726 0.587443 -0.177008
C29   C     C_R   0.238375 0.147836 0.412347 -0.146532
C30   C     C_R   0.761624 0.147836 0.587653 -0.146532
C31   C     C_R   0.738375 0.647836 0.412347 -0.146532
C32   C     C_R   0.261624 0.647836 0.587653 -0.146532
C33   C     C_R   0.244968 0.139439 0.508394 0.089804
C34   C     C_R   0.755032 0.139439 0.491606 0.089803
C35   C     C_R   0.744968 0.639439 0.508394 0.089804
C36   C     C_R   0.255032 0.639439 0.491606 0.089804
C37   C     C_R   0.306231 0.167180 0.608168 0.116357
C38   C     C_R   0.693769 0.167180 0.391832 0.116356
C39   C     C_R   0.806232 0.667180 0.608168 0.116357
C40   C     C_R   0.193769 0.667180 0.391831 0.116356
C41   C     C_3   0.816986 0.705741 0.704083 -0.579948
C42   C     C_3   0.183015 0.705742 0.295917 -0.579950
C43   C     C_3   0.316985 0.205742 0.704083 -0.579951
C44   C     C_3   0.683015 0.205742 0.295917 -0.579949
C45   C     C_R   0.085240 0.855658 0.406854 -0.045799
C46   C     C_R   0.914760 0.855658 0.593146 -0.045798
C47   C     C_R   0.585240 0.355658 0.406854 -0.045799
C48   C     C_R   0.414760 0.355658 0.593146 -0.045799
C49   C     C_3   0.860045 0.766280 0.700154 0.191731
C50   C     C_3   0.139956 0.766281 0.299846 0.191731
C51   C     C_3   0.360044 0.266281 0.700154 0.191732
C52   C     C_3   0.639956 0.266281 0.299846 0.191731
C53   C     C_2   0.197567 0.860959 0.985620 -0.172268
C54   C     C_2   0.802433 0.860959 0.014380 -0.172268
C55   C     C_2   0.697567 0.360959 0.985620 -0.172267
C56   C     C_2   0.302433 0.360959 0.014380 -0.172268
C57   C     C_2   0.261406 0.833776 0.028511 -0.053542
C58   C     C_2   0.738593 0.833776 0.971488 -0.053542
C59   C     C_2   0.761406 0.333776 0.028511 -0.053542
C60   C     C_2   0.238593 0.333776 0.971488 -0.053542
C61   C     C_2   0.862376 0.256953 0.157486 -0.192658
C62   C     C_2   0.137624 0.256953 0.842514 -0.192659
C63   C     C_2   0.362376 0.756953 0.157486 -0.192658
C64   C     C_2   0.637624 0.756953 0.842514 -0.192659
C65   C     C_2   0.805600 0.293189 0.133018 -0.106164
C66   C     C_2   0.194400 0.293189 0.866981 -0.106164
C67   C     C_2   0.305600 0.793189 0.133019 -0.106164
C68   C     C_2   0.694400 0.793189 0.866981 -0.106164
C69   C     C_R   0.162615 0.856326 0.591030 -0.080449
C70   C     C_R   0.837385 0.856326 0.408970 -0.080450
C71   C     C_R   0.662615 0.356326 0.591030 -0.080449
C72   C     C_R   0.337385 0.356326 0.408970 -0.080449
C73   C     C_R   0.078279 0.897850 0.805586 -0.211052
C74   C     C_R   0.921720 0.897850 0.194414 -0.211052
C75   C     C_R   0.578279 0.397850 0.805586 -0.211052
C76   C     C_R   0.421720 0.397850 0.194414 -0.211052
C77   C     C_R   0.849918 0.883708 0.130884 0.075853
C78   C     C_R   0.150082 0.883708 0.869116 0.075853
C79   C     C_R   0.349918 0.383708 0.130884 0.075853
C80   C     C_R   0.650082 0.383708 0.869116 0.075853
C81   C     C_R   0.137946 0.813450 0.497555 0.046286
C82   C     C_R   0.862053 0.813450 0.502445 0.046286
C83   C     C_R   0.637946 0.313450 0.497555 0.046286
C84   C     C_R   0.362053 0.313449 0.502445 0.046286
C85   C     C_R   0.810688 0.099729 0.407576 -0.131593
C86   C     C_R   0.189312 0.099729 0.592423 -0.131593
C87   C     C_R   0.310688 0.599729 0.407576 -0.131593
C88   C     C_R   0.689312 0.599729 0.592423 -0.131593
C89   C     C_R   0.944067 0.142094 0.247291 -0.132309
C90   C     C_R   0.055933 0.142094 0.752708 -0.132309
C91   C     C_R   0.444067 0.642094 0.247291 -0.132309
C92   C     C_R   0.555933 0.642094 0.752708 -0.132309
C93   C     C_R   0.147419 0.142743 0.751467 -0.049631
C94   C     C_R   0.852581 0.142743 0.248533 -0.049631
C95   C     C_R   0.647419 0.642743 0.751467 -0.049631
C96   C     C_R   0.352581 0.642743 0.248533 -0.049631
H1    H     H_    0.194394 0.122699 0.334819 0.136781
H2    H     H_    0.805606 0.122699 0.665180 0.136780
H3    H     H_    0.694393 0.622699 0.334819 0.136780
H4    H     H_    0.305606 0.622699 0.665180 0.136781
H5    H     H_    0.767516 0.728587 0.684437 0.229354
H6    H     H_    0.232485 0.728588 0.315565 0.229354
H7    H     H_    0.267516 0.228587 0.684436 0.229354
H8    H     H_    0.732485 0.228588 0.315565 0.229354
H9    H     H_    0.849180 0.669587 0.779862 0.188110
H10   H     H_    0.150821 0.669588 0.220138 0.188110
H11   H     H_    0.349179 0.169588 0.779862 0.188110
H12   H     H_    0.650821 0.169588 0.220138 0.188110
H13   H     H_    0.916288 0.766666 0.775602 0.090717
H14   H     H_    0.083713 0.766667 0.224399 0.090717
H15   H     H_    0.416287 0.266667 0.775602 0.090717
H16   H     H_    0.583713 0.266667 0.224399 0.090717
H17   H     H_    0.784989 0.280985 0.176491 0.138445
H18   H     H_    0.215011 0.280985 0.823509 0.138445
H19   H     H_    0.284989 0.780985 0.176491 0.138445
H20   H     H_    0.715011 0.780985 0.823509 0.138446
H21   H     H_    0.277400 0.829129 0.977739 0.171186
H22   H     H_    0.722599 0.829129 0.022261 0.171186
H23   H     H_    0.777400 0.329129 0.977739 0.171186
H24   H     H_    0.222599 0.329129 0.022261 0.171186
H25   H     H_    0.883262 0.271865 0.114974 0.148742
H26   H     H_    0.116737 0.271865 0.885025 0.148742
H27   H     H_    0.383263 0.771865 0.114974 0.148742
H28   H     H_    0.616737 0.771865 0.885025 0.148742
H29   H     H_    0.178137 0.859017 0.032231 0.148909
H30   H     H_    0.821863 0.859018 0.967768 0.148910
H31   H     H_    0.678137 0.359017 0.032232 0.148909
H32   H     H_    0.321863 0.359018 0.967768 0.148909
H33   H     H_    0.053068 0.839026 0.321345 0.100761
H34   H     H_    0.946932 0.839026 0.678655 0.100762
H35   H     H_    0.553068 0.339026 0.321345 0.100761
H36   H     H_    0.446932 0.339026 0.678655 0.100761
H37   H     H_    0.203361 0.840239 0.675964 0.134914
H38   H     H_    0.796639 0.840240 0.324035 0.134914
H39   H     H_    0.703361 0.340239 0.675964 0.134914
H40   H     H_    0.296639 0.340239 0.324035 0.134914
H41   H     H_    0.048844 0.901138 0.836178 0.131349
H42   H     H_    0.951156 0.901138 0.163822 0.131349
H43   H     H_    0.548844 0.401138 0.836178 0.131349
H44   H     H_    0.451156 0.401138 0.163822 0.131349
H45   H     H_    0.763181 0.090638 0.323957 0.143379
H46   H     H_    0.236819 0.090638 0.676043 0.143379
H47   H     H_    0.263181 0.590638 0.323957 0.143379
H48   H     H_    0.736819 0.590638 0.676043 0.143379
H49   H     H_    0.981592 0.157807 0.234806 0.109452
H50   H     H_    0.018408 0.157807 0.765194 0.109452
H51   H     H_    0.481592 0.657807 0.234806 0.109452
H52   H     H_    0.518408 0.657807 0.765194 0.109452
H53   H     H_    0.194864 0.157516 0.763254 0.097963
H54   H     H_    0.805136 0.157516 0.236746 0.097962
H55   H     H_    0.694864 0.657516 0.763254 0.097962
H56   H     H_    0.305136 0.657516 0.236746 0.097962
H57   H     H_    0.903175 0.099292 0.674637 0.099352
H58   H     H_    0.096825 0.099292 0.325363 0.099352
H59   H     H_    0.403175 0.599292 0.674637 0.099352
H60   H     H_    0.596825 0.599292 0.325363 0.099352
H61   H     H_    0.773197 0.710459 0.335518 0.129838
H62   H     H_    0.226802 0.710459 0.664482 0.129838
H63   H     H_    0.273198 0.210459 0.335518 0.129838
H64   H     H_    0.726802 0.210459 0.664482 0.129838
N1    N     N_R   0.888400 0.921830 0.294620 -0.072533
N2    N     N_R   0.111600 0.921830 0.705380 -0.072533
N3    N     N_R   0.388400 0.421830 0.294620 -0.072533
N4    N     N_R   0.611600 0.421830 0.705380 -0.072533
N5    N     N_R   0.079940 0.922160 0.443410 -0.043763
N6    N     N_R   0.920060 0.922160 0.556590 -0.043764
N7    N     N_R   0.579940 0.422160 0.443410 -0.043763
N8    N     N_R   0.420060 0.422160 0.556590 -0.043763
N9    N     N_R   0.125650 0.922400 0.556620 -0.036494
N10   N     N_R   0.874350 0.922400 0.443380 -0.036494
N11   N     N_R   0.625650 0.422400 0.556620 -0.036494
N12   N     N_R   0.374350 0.422400 0.443380 -0.036494
N13   N     N_R   0.054230 0.922730 0.705400 -0.063686
N14   N     N_R   0.945770 0.922730 0.294600 -0.063686
N15   N     N_R   0.554230 0.422730 0.705400 -0.063686
N16   N     N_R   0.445770 0.422730 0.294600 -0.063686
N17   N     N_R   0.873790 0.077030 0.443380 -0.043140
N18   N     N_R   0.126210 0.077030 0.556620 -0.043140
N19   N     N_R   0.373790 0.577030 0.443380 -0.043140
N20   N     N_R   0.626210 0.577030 0.556620 -0.043140
N21   N     N_R   0.945200 0.076700 0.294600 -0.047449
N22   N     N_R   0.054800 0.076700 0.705400 -0.047449
N23   N     N_R   0.445200 0.576700 0.294600 -0.047449
N24   N     N_R   0.554800 0.576700 0.705400 -0.047449
N25   N     N_R   0.111030 0.077600 0.705380 -0.037047
N26   N     N_R   0.888970 0.077600 0.294620 -0.037047
N27   N     N_R   0.611030 0.577600 0.705380 -0.037047
N28   N     N_R   0.388970 0.577600 0.294620 -0.037047
N29   N     N_R   0.919490 0.077280 0.556590 -0.047614
N30   N     N_R   0.080510 0.077280 0.443410 -0.047614
N31   N     N_R   0.419490 0.577280 0.556590 -0.047614
N32   N     N_R   0.580510 0.577280 0.443410 -0.047614
Ni1   Ni    Ni4+2 0.882160 0.999430 0.370180 0.265053
Ni2   Ni    Ni4+2 0.117840 0.999430 0.629820 0.265053
Ni3   Ni    Ni4+2 0.382160 0.499430 0.370180 0.265053
Ni4   Ni    Ni4+2 0.617840 0.499430 0.629820 0.265053
Ni5   Ni    Ni4+2 0.012460 0.999430 0.370180 0.226709
Ni6   Ni    Ni4+2 0.987540 0.999430 0.629820 0.226709
Ni7   Ni    Ni4+2 0.512460 0.499430 0.370180 0.226709
Ni8   Ni    Ni4+2 0.487540 0.499430 0.629820 0.226709
Br1   Br    Br    0.741674 0.946593 0.143357 -0.623323
Br2   Br    Br    0.258326 0.946593 0.856643 -0.623322
Br3   Br    Br    0.241674 0.446593 0.143357 -0.623323
Br4   Br    Br    0.758326 0.446593 0.856643 -0.623322
Br5   Br    Br    0.812636 0.866618 0.658460 -0.571502
Br6   Br    Br    0.187365 0.866619 0.341542 -0.571501
Br7   Br    Br    0.312636 0.366619 0.658459 -0.571501
Br8   Br    Br    0.687365 0.366619 0.341542 -0.571501

loop_
_geom_bond_atom_site_label_1
_geom_bond_atom_site_label_2
_ccdc_geom_bond_type
N29   Ni6   S    
C25   C31   A    
C88   H48   S    
C26   C32   A    
C48   C84   A    
N1    N14   A    
C91   N23   A    
N27   Ni4   S    
C92   H52   S    
C1    C77   A    
C96   N28   A    
N26   Ni1   S    
C93   H53   S    
C2    Br2   S    
C76   C79   A    
C86   N18   A    
N25   Ni2   S    
N21   Ni5   S    
C2    N2    A    
C91   H51   S    
C44   H8    S    
C95   N27   A    
C6    N30   A    
C39   C41   S    
N2    N13   A    
N19   Ni3   S    
C45   H33   S    
N18   Ni2   S    
C18   C50   S    
C56   C79   S    
N17   Ni1   S    
C32   C36   A    
C49   H13   S    
C11   C36   S    
C24   C83   S    
C46   H34   S    
C74   N14   A    
C55   C59   D    
C64   C68   D    
C71   H39   S    
N18   N30   A    
C51   Br7   S    
C72   H40   S    
C27   C29   A    
C52   H16   S    
C27   H63   S    
C14   C62   S    
C29   C33   A    
C58   H22   S    
C20   C38   A    
N4    N15   A    
C61   H25   S    
C17   C39   A    
N32   Ni7   S    
C18   C40   A    
C14   C90   A    
C67   H19   S    
C19   C37   A    
C9    C85   A    
C46   C82   A    
C90   N22   A    
N28   Ni3   S    
C11   C87   A    
N24   Ni8   S    
C74   C77   A    
N22   Ni6   S    
C47   N7    A    
C59   H23   S    
C73   C78   A    
C4    N4    A    
C26   H62   S    
C47   C83   A    
C66   H18   S    
C75   C80   A    
C14   C93   A    
N20   Ni4   S    
C3    N3    A    
C53   H29   S    
C54   C77   S    
C44   C52   S    
C7    H59   S    
C40   C42   S    
N3    Ni3   S    
C89   H49   S    
C3    C79   A    
C52   Br8   S    
C7    N31   A    
C57   C67   S    
C50   H14   S    
C70   C82   A    
N3    N16   A    
C42   H6    S    
C41   C49   S    
C38   C44   S    
C88   N20   A    
C71   C83   A    
C23   C27   A    
C44   H12   S    
N5    N9    A    
C63   C67   D    
C72   C84   A    
N17   N29   A    
C23   C84   S    
C30   C34   A    
C75   N15   A    
C22   C81   S    
C94   N26   A    
C36   C40   A    
C69   C81   A    
N31   Ni8   S    
N20   N32   A    
C85   H45   S    
C15   C96   A    
C62   C66   D    
C19   C23   A    
C34   C38   A    
N7    N11   A    
C90   H50   S    
C43   H11   S    
C87   N19   A    
N23   Ni7   S    
C56   C60   D    
C47   H35   S    
N22   N25   A    
C89   N21   A    
C37   C43   S    
C35   C39   A    
C17   C21   A    
N6    Ni6   S    
C6    C10   A    
C5    C9    A    
C2    C78   A    
N5    Ni5   S    
C74   H42   S    
C7    C11   A    
C48   N8    A    
C76   N16   A    
C8    C12   A    
C12   C88   A    
N2    Ni2   S    
N19   N31   A    
C69   N9    A    
C12   C35   S    
C42   H10   S    
C6    H58   S    
C41   H9    S    
C68   H20   S    
C60   C66   S    
C50   Br6   S    
C58   C68   S    
C42   C50   S    
N6    N10   A    
C31   H3    S    
C1    N1    A    
C28   H64   S    
C92   N24   A    
C9    C34   S    
C71   N11   A    
C95   H55   S    
N7    Ni7   S    
C76   H44   S    
C17   C49   S    
C72   N12   A    
C62   H26   S    
C86   H46   S    
C57   H21   S    
C54   C58   D    
C21   C25   A    
C10   C86   A    
C16   C95   A    
C51   H15   S    
C46   N6    A    
C13   C89   A    
N13   Ni6   S    
C18   C22   A    
C65   H17   S    
C4    C80   A    
C45   C81   A    
C24   C28   A    
C49   Br5   S    
N11   Ni4   S    
C43   H7    S    
C53   C57   D    
C55   H31   S    
N10   Ni1   S    
C63   H27   S    
N21   N26   A    
N4    Ni4   S    
C16   C92   A    
N9    Ni2   S    
C69   H37   S    
C94   H54   S    
C16   C64   S    
C1    Br1   S    
C30   H2    S    
N24   N27   A    
C29   H1    S    
C13   C94   A    
C28   C30   A    
C53   C78   S    
C70   N10   A    
C5    N29   A    
C20   C52   S    
C64   H28   S    
N23   N28   A    
C59   C65   S    
C25   H61   S    
C55   C80   S    
C54   H30   S    
C43   C51   S    
C73   H41   S    
C8    N32   A    
C19   C51   S    
C5    H57   S    
N8    Ni8   S    
C41   H5    S    
C60   H24   S    
C10   C33   S    
C31   C35   A    
C56   H32   S    
C61   C65   D    
C73   N13   A    
C8    H60   S    
C33   C37   A    
N15   Ni8   S    
N14   Ni5   S    
C4    Br4   S    
N1    Ni1   S    
C15   C91   A    
C32   H4    S    
N8    N12   A    
C13   C61   S    
C21   C82   S    
C85   N17   A    
C22   C26   A    
C70   H38   S    
C15   C63   S    
C3    Br3   S    
C48   H36   S    
N12   Ni3   S    
C75   H43   S    
N16   Ni7   S    
C87   H47   S    
C45   N5    A    
C20   C24   A    
N30   Ni5   S    
C93   N25   A    
C96   H56   S    
