data_mof_unit_4846.cif
_audit_creation_date              2013-03-05T16:35:15-0500
_audit_creation_method            fapswitch 2.2
_symmetry_space_group_name_H-M    P1
_symmetry_Int_Tables_number       1
_space_group_crystal_system       triclinic
_cell_length_a                    11.012365
_cell_length_b                    9.053095
_cell_length_c                    8.069517
_cell_angle_alpha                 89.977173
_cell_angle_beta                  93.981681
_cell_angle_gamma                 89.966742
_cell_volume                      802.556429154

loop_
_atom_site_label
_atom_site_type_symbol
_atom_site_description
_atom_site_fract_x
_atom_site_fract_y
_atom_site_fract_z
_atom_type_partial_charge
O1    O     O_R   0.500000 0.288400 0.642760 -0.546531
O2    O     O_R   0.500000 0.288400 0.357240 -0.559848
C1    C     C_R   0.499761 0.221240 0.499983 0.905863
O3    O     O_R   0.317700 0.499990 0.642790 -0.536908
O4    O     O_R   0.317700 0.499990 0.357210 -0.523973
O5    O     O_R   0.682300 0.499990 0.642790 -0.519871
O6    O     O_R   0.682300 0.499990 0.357210 -0.546741
N1    N     N_1   0.500000 0.499970 0.076820 0.043643
N2    N     N_1   0.500000 0.499970 0.923180 0.046864
C2    C     C_R   0.260164 0.495069 0.496864 0.870097
C3    C     C_R   0.739931 0.498409 0.503778 0.867534
Cu1   Cu    Cu3+1 0.500000 0.500010 0.669080 1.191293
Cu2   Cu    Cu3+1 0.500000 0.500010 0.330920 1.184904
O7    O     O_R   0.500000 0.711620 0.642810 -0.574533
O8    O     O_R   0.500000 0.711620 0.357190 -0.574624
C4    C     C_R   0.499958 0.778773 0.499976 0.789909
C5    C     C_1   0.499802 0.065725 0.499993 -0.003202
C6    C     C_3   0.084116 0.414244 0.673292 0.335187
C7    C     C_3   0.063531 0.391879 0.339173 0.341636
C8    C     C_3   0.935459 0.397152 0.667993 0.343780
C9    C     C_3   0.915890 0.416928 0.330808 0.338536
C10   C     C_1   0.499872 0.934300 0.499955 -0.063961
H1    H     H_    0.120452 0.718203 0.580018 0.237365
H2    H     H_    0.088143 0.707007 0.376956 0.275224
H3    H     H_    0.916037 0.709255 0.627223 0.275483
H4    H     H_    0.882303 0.721600 0.424500 0.237781
C11   C     C_3   0.070064 0.645177 0.489331 -0.368909
C12   C     C_3   0.931935 0.647046 0.514420 -0.368675
C13   C     C_3   0.121736 0.483033 0.496984 -0.327542
C14   C     C_3   0.878277 0.485898 0.506889 -0.328205
N3    N     N_R   0.126059 0.524657 0.809129 0.183381
O9    O     O_R   0.231096 0.515537 0.892569 -0.213496
O10   O     O_R   0.068067 0.646782 0.834681 -0.263750
N4    N     N_R   0.113427 0.442589 0.183765 0.196216
O11   O     O_R   0.154422 0.342708 0.085810 -0.183196
O12   O     O_R   0.147250 0.578375 0.161927 -0.257722
N5    N     N_R   0.897816 0.458622 0.823025 0.194718
O13   O     O_R   0.931742 0.384432 0.955104 -0.218905
O14   O     O_R   0.845048 0.586209 0.837327 -0.260566
N6    N     N_R   0.875901 0.529496 0.197446 0.182701
O15   O     O_R   0.772991 0.518072 0.108531 -0.217842
O16   O     O_R   0.935820 0.649598 0.170826 -0.258550
N7    N     N_R   0.147979 0.268950 0.709629 0.165186
O17   O     O_R   0.109530 0.144500 0.645329 -0.246682
O18   O     O_R   0.251714 0.261937 0.796765 -0.234161
N8    N     N_R   0.102886 0.234008 0.351323 0.161760
O19   O     O_R   0.217493 0.209122 0.393596 -0.344415
O20   O     O_R   0.054486 0.138050 0.245968 -0.168954
N9    N     N_R   0.885655 0.243511 0.674300 0.171903
O21   O     O_R   0.769814 0.225647 0.636002 -0.344850
O22   O     O_R   0.928714 0.151941 0.788533 -0.163267
N10   N     N_R   0.849371 0.273927 0.291707 0.153166
O23   O     O_R   0.866586 0.156177 0.381910 -0.268685
O24   O     O_R   0.780065 0.255743 0.156030 -0.205565

loop_
_geom_bond_atom_site_label_1
_geom_bond_atom_site_label_2
_geom_bond_distance
_ccdc_geom_bond_type
N7    O17   1.299376 A    
N3    O10   1.300149 A    
N1    Cu2   2.050464 S    
H1    C11   1.106767 S    
C11   C13   1.573670 S    
C9    C14   1.631714 S    
H4    C12   1.106758 S    
C5    C10   1.189806 T    
H2    C11   1.095472 S    
N9    O22   1.303856 A    
N6    O16   1.297726 A    
O2    C1    1.302435 A    
C7    N8    1.494453 S    
O4    C2    1.331386 A    
N5    O14   1.301453 A    
C6    C13   1.632499 S    
C8    C14   1.617712 S    
C6    N7    1.510206 S    
N10   O23   1.296962 A    
H3    C12   1.094910 S    
O6    C3    1.302915 A    
C8    N5    1.455651 S    
N7    O18   1.300688 A    
C2    C13   1.528433 S    
C8    N9    1.497594 S    
O1    Cu1   1.927548 S    
C12   C14   1.573941 S    
N6    O15   1.302735 A    
C7    C9    1.638221 S    
N5    O13   1.292474 A    
N10   O24   1.300981 A    
C1    C5    1.407887 S    
C6    C8    1.642044 S    
Cu2   O8    1.927502 S    
O5    Cu1   2.033329 S    
N2    Cu1   2.050463 S    
O7    C4    1.302862 A    
O3    Cu1   2.004031 S    
O3    C2    1.298667 A    
O8    C4    1.303004 A    
C7    C13   1.612958 S    
N8    O20   1.303737 A    
O6    Cu2   2.004029 S    
Cu1   Cu2   2.728789 S    
N4    O12   1.300151 A    
N4    O11   1.302266 A    
O5    C3    1.326725 A    
N9    O21   1.301752 A    
O2    Cu2   1.927380 S    
N8    O19   1.303774 A    
C4    C10   1.408001 S    
C6    N3    1.531381 S    
O1    C1    1.302787 A    
O4    Cu2   2.033330 S    
C9    N10   1.510452 S    
N3    O9    1.299932 A    
C3    C14   1.526123 S    
Cu1   O7    1.927334 S    
N1    N2    1.239801 T    
C11   C12   1.548492 S    
C7    N4    1.476791 S    
C9    N6    1.524269 S    
