data_mof_unit_3028.cif
_audit_creation_date              2012-12-10T16:51:31-0500
_audit_creation_method            fapswitch 2.2
_symmetry_space_group_name_H-M    P1
_symmetry_Int_Tables_number       1
_space_group_crystal_system       triclinic
_cell_length_a                    7.814173
_cell_length_b                    8.575407
_cell_length_c                    12.611344
_cell_angle_alpha                 92.452049
_cell_angle_beta                  102.605467
_cell_angle_gamma                 93.929733
_cell_volume                      821.325442935

loop_
_atom_site_label
_atom_site_type_symbol
_atom_type_description
_atom_site_fract_x
_atom_site_fract_y
_atom_site_fract_z
_atom_type_partial_charge
C1    C     C_R   0.044378 0.794596 0.497239 0.957324
C2    C     C_R   0.191046 0.590387 0.820364 -0.130230
C3    C     C_2   0.067586 0.958174 0.495762 -0.378283
C4    C     C_R   0.114860 0.532139 0.706978 0.864567
C5    C     C_2   0.932604 0.041856 0.504605 -0.385040
C6    C     C_R   0.955696 0.205427 0.502900 0.978941
C7    C     C_R   0.889641 0.486948 0.292078 0.875648
C8    C     C_R   0.855153 0.403827 0.995823 -0.185335
C9    C     C_R   0.826146 0.477301 0.176262 -0.053915
C10   C     C_R   0.083894 0.653355 0.884069 -0.217473
C11   C     C_R   0.147459 0.683393 0.995433 -0.119889
C12   C     C_R   0.428596 0.586038 0.981226 0.077812
C13   C     C_R   0.314345 0.642245 0.044951 -0.196999
C14   C     C_R   0.371850 0.580286 0.867383 0.096076
C15   C     C_R   0.596352 0.532957 0.024876 0.078162
C16   C     C_R   0.698707 0.472221 0.954516 0.163562
C17   C     C_R   0.650432 0.492196 0.844441 -0.281440
C18   C     C_R   0.498542 0.562253 0.804547 -0.183635
C19   C     C_R   0.665501 0.537265 0.135646 -0.270628
C20   C     C_R   0.919708 0.407041 0.107204 -0.208071
H1    H     H_    0.043158 0.357582 0.139098 0.162512
H2    H     H_    0.805273 0.990840 0.513040 0.178282
H3    H     H_    0.930839 0.354188 0.942067 0.152191
H4    H     H_    0.598673 0.590624 0.192114 0.160830
H5    H     H_    0.471408 0.366286 0.426457 0.190354
H6    H     H_    0.528644 0.640713 0.566091 0.172665
H7    H     H_    0.733997 0.461133 0.790201 0.186149
H8    H     H_    0.950662 0.678074 0.848038 0.164076
H9    H     H_    0.348964 0.656789 0.132424 0.135030
H10   H     H_    0.063067 0.730175 0.044542 0.155445
H11   H     H_    0.484212 0.604869 0.725085 0.171347
H12   H     H_    0.194934 0.009184 0.487356 0.178958
N1    N     N_2   0.434800 0.456690 0.470850 -0.176190
N2    N     N_2   0.565200 0.543310 0.529150 -0.182932
O1    O     O_R   0.893060 0.738880 0.507150 -0.615722
O2    O     O_R   0.172250 0.711130 0.488470 -0.636556
O3    O     O_R   0.944700 0.520730 0.667600 -0.630634
O4    O     O_R   0.223890 0.492980 0.648920 -0.622909
O5    O     O_R   0.827750 0.288870 0.511530 -0.626298
O6    O     O_R   0.106940 0.261120 0.492850 -0.608979
O7    O     O_R   0.776110 0.507020 0.351080 -0.628512
O8    O     O_R   0.055300 0.479270 0.332400 -0.623280
Zn1   Zn    Zn3+2 0.813580 0.518530 0.512470 0.928378
Zn2   Zn    Zn3+2 0.186420 0.481470 0.487530 0.934643

loop_
_geom_bond_atom_site_label_1
_geom_bond_atom_site_label_2
_ccdc_geom_bond_type
O3    Zn1   S    
C2    C4    S    
O4    Zn2   S    
O1    Zn1   S    
C14   C18   A    
C9    C20   A    
C12   C15   A    
O6    Zn2   S    
C19   H4    S    
C8    C16   A    
C20   H1    S    
C15   C19   A    
C12   C13   A    
O7    Zn1   S    
C8    C20   A    
O8    Zn2   S    
C5    C6    S    
C13   H9    S    
C12   C14   A    
N1    N2    D    
C7    O7    A    
C3    H12   S    
C2    C14   A    
C6    O6    A    
O2    Zn2   S    
H5    N1    S    
C10   C11   A    
N2    Zn1   S    
C15   C16   A    
C2    C10   A    
C3    C5    D    
C11   C13   A    
C8    H3    S    
C4    O3    A    
C1    O1    A    
C17   C18   A    
C7    O8    A    
C10   H8    S    
C7    C9    S    
C6    O5    A    
O5    Zn1   S    
C18   H11   S    
H6    N2    S    
C1    O2    A    
N1    Zn2   S    
C9    C19   A    
C5    H2    S    
C11   H10   S    
C4    O4    A    
C16   C17   A    
C1    C3    S    
C17   H7    S    
