data_mof_unit_1900.cif
_audit_creation_date              2012-12-10T20:40:54-0500
_audit_creation_method            fapswitch 2.2
_symmetry_space_group_name_H-M    P1
_symmetry_Int_Tables_number       1
_space_group_crystal_system       triclinic
_cell_length_a                    27.630645
_cell_length_b                    10.668983
_cell_length_c                    9.841733
_cell_angle_alpha                 90.032146
_cell_angle_beta                  89.756295
_cell_angle_gamma                 90.311778
_cell_volume                      2901.18353182

loop_
_atom_site_label
_atom_site_type_symbol
_atom_type_description
_atom_site_fract_x
_atom_site_fract_y
_atom_site_fract_z
_atom_type_partial_charge
C1    C     C_R   0.501843 0.259846 0.499893 0.938186
C2    C     C_R   0.272881 0.456863 0.570521 -0.139366
C3    C     C_R   0.254397 0.553680 0.490623 0.288444
C4    C     C_R   0.103379 0.570883 0.457345 -0.051418
C5    C     C_R   0.129674 0.479306 0.385681 -0.025125
C6    C     C_R   0.105238 0.390316 0.307553 -0.128843
C7    C     C_R   0.128434 0.662258 0.533276 -0.025612
C8    C     C_R   0.353816 0.513782 0.498741 -0.118841
C9    C     C_R   0.646963 0.507221 0.497647 -0.039252
C10   C     C_R   0.976627 0.462427 0.395230 0.045449
C11   C     C_R   0.974707 0.662084 0.522498 0.044251
C12   C     C_R   0.406123 0.500293 0.500045 0.954888
C13   C     C_R   0.950391 0.558526 0.462284 0.071873
C14   C     C_R   0.950964 0.357373 0.344621 -0.215786
C15   C     C_R   0.901046 0.349144 0.355520 -0.136609
C16   C     C_R   0.874835 0.445111 0.417192 -0.021551
C17   C     C_R   0.899267 0.550293 0.470344 -0.051999
C18   C     C_R   0.872488 0.646773 0.532309 -0.021897
C19   C     C_R   0.821995 0.636496 0.539333 0.506119
C20   C     C_R   0.824440 0.437867 0.427949 0.504481
C21   C     C_R   0.721591 0.530675 0.370609 -0.100629
C22   C     C_R   0.671508 0.521201 0.373279 -0.212996
C23   C     C_R   0.501790 0.740194 0.499842 0.877958
C24   C     C_R   0.673285 0.502523 0.619280 -0.218390
C25   C     C_R   0.723541 0.511536 0.616203 -0.097257
C26   C     C_R   0.747672 0.525668 0.491823 0.314780
C27   C     C_R   0.027585 0.472260 0.384456 0.044117
C28   C     C_R   0.052126 0.569579 0.454999 0.072905
C29   C     C_R   0.026024 0.664071 0.525210 0.043867
C30   C     C_R   0.055116 0.387004 0.306290 -0.214849
C31   C     C_R   0.102567 0.754368 0.602738 -0.130539
C32   C     C_R   0.946606 0.759482 0.579508 -0.215162
C33   C     C_R   0.896480 0.751631 0.584367 -0.133701
C34   C     C_R   0.594103 0.500933 0.499616 0.864108
C35   C     C_R   0.052359 0.755601 0.598825 -0.212703
C36   C     C_R   0.519166 0.064232 0.618994 0.133878
C37   C     C_R   0.510695 0.128818 0.498394 -0.105355
C38   C     C_R   0.512737 0.064819 0.373932 -0.212362
C39   C     C_R   0.512730 0.935457 0.373868 -0.217956
C40   C     C_R   0.510562 0.871463 0.498266 -0.099783
C41   C     C_R   0.518910 0.936233 0.618900 0.133457
C42   C     C_3   0.494347 0.928801 0.754272 -0.475005
C43   C     C_3   0.494931 0.071025 0.754911 -0.475056
C44   C     C_R   0.476802 0.406861 0.071580 0.193089
C45   C     C_R   0.180091 0.478029 0.395196 0.513910
C46   C     C_R   0.526597 0.585057 0.071790 -0.129563
C47   C     C_R   0.526614 0.585034 0.927625 -0.127827
C48   C     C_R   0.476797 0.406855 0.928863 0.187771
C49   C     C_3   0.424113 0.376339 0.924043 -0.448755
C50   C     C_3   0.424164 0.376249 0.078258 -0.469103
C51   C     C_R   0.179002 0.656951 0.540786 0.516818
C52   C     C_R   0.285334 0.631774 0.416787 -0.074691
C53   C     C_R   0.334857 0.612027 0.421006 -0.236172
C54   C     C_R   0.322689 0.434243 0.574189 -0.063606
H1    H     H_    0.270869 0.705849 0.353965 0.149638
H2    H     H_    0.121029 0.825284 0.662292 0.192978
H3    H     H_    0.962147 0.844457 0.619659 0.144304
H4    H     H_    0.655133 0.491949 0.716382 0.163078
H5    H     H_    0.876590 0.828272 0.629922 0.192326
H6    H     H_    0.743774 0.507104 0.710054 0.144888
H7    H     H_    0.035301 0.827434 0.658796 0.144600
H8    H     H_    0.510315 0.113244 0.277475 0.171705
H9    H     H_    0.510374 0.886924 0.277368 0.170538
H10   H     H_    0.457273 0.888057 0.748403 0.215860
H11   H     H_    0.247894 0.395517 0.624041 0.171794
H12   H     H_    0.518006 0.887311 0.833254 0.198196
H13   H     H_    0.458267 0.112418 0.750705 0.204673
H14   H     H_    0.519069 0.111531 0.833846 0.203190
H15   H     H_    0.547282 0.655190 0.126142 0.143220
H16   H     H_    0.547359 0.655024 0.872860 0.144396
H17   H     H_    0.402239 0.453291 0.879891 0.226272
H18   H     H_    0.417138 0.282160 0.880003 0.210827
H19   H     H_    0.402313 0.453200 0.123134 0.229487
H20   H     H_    0.417348 0.282041 0.122803 0.211265
H21   H     H_    0.124765 0.321360 0.248256 0.193940
H22   H     H_    0.652081 0.525781 0.278072 0.163135
H23   H     H_    0.740266 0.541899 0.274369 0.143355
H24   H     H_    0.883081 0.266538 0.315578 0.191855
H25   H     H_    0.968480 0.277461 0.299598 0.144695
H26   H     H_    0.039022 0.317002 0.241517 0.145328
H27   H     H_    0.358559 0.673540 0.363267 0.157759
N1    N     N_R   0.203398 0.564314 0.474239 -0.354995
N2    N     N_R   0.799220 0.533090 0.487599 -0.356457
N3    N     N_R   0.499670 0.499140 0.142800 -0.106106
N4    N     N_R   0.499670 0.499180 0.857150 -0.105773
O1    O     O_R   0.500010 0.316790 0.614690 -0.608473
O2    O     O_2   0.800707 0.336352 0.379654 -0.555880
O3    O     O_2   0.203563 0.741991 0.615520 -0.546101
O4    O     O_2   0.795785 0.729344 0.596150 -0.556861
O5    O     O_R   0.500000 0.316760 0.385350 -0.623490
O6    O     O_R   0.428760 0.500040 0.614660 -0.609550
O7    O     O_R   0.428750 0.500000 0.385310 -0.616067
O8    O     O_R   0.500000 0.683240 0.614650 -0.622667
O9    O     O_R   0.499990 0.683210 0.385310 -0.630969
O10   O     O_R   0.571250 0.500000 0.614690 -0.625230
O11   O     O_R   0.571240 0.499960 0.385340 -0.625209
O12   O     O_2   0.205757 0.390516 0.327303 -0.543216
Zn1   Zn    Zn3+2 0.500000 0.500020 0.653130 0.959522
Zn2   Zn    Zn3+2 0.500000 0.499980 0.346870 0.953934
C55   C     C_2   0.340245 0.321730 0.647179 0.900388
O13   O     O_2   0.318229 0.282700 0.746766 -0.614679
O14   O     O_R   0.380570 0.256685 0.598819 -0.818767
H28   H     H_    0.386804 0.177302 0.652140 0.330756

loop_
_geom_bond_atom_site_label_1
_geom_bond_atom_site_label_2
_ccdc_geom_bond_type
C10   C27   A    
C21   C26   A    
O11   Zn2   S    
C40   C41   A    
C1    O5    A    
C41   C42   S    
C12   O6    A    
C45   N1    A    
C22   H22   S    
C2    H11   S    
O10   Zn1   S    
C6    H21   S    
C26   N2    S    
C47   N4    A    
C36   C37   A    
C34   O11   A    
C50   H20   S    
C5    C6    A    
C9    C22   A    
C15   H24   S    
C23   C40   S    
C20   O2    S    
C53   H27   S    
C18   C19   A    
C46   H15   S    
N4    Zn1   S    
C43   H14   S    
C49   H18   S    
C25   H6    S    
C31   H2    S    
C52   H1    S    
C1    C37   S    
C30   H26   S    
C33   H5    S    
C21   C22   A    
C27   C30   A    
C54   C55   S    
C36   C41   A    
C32   H3    S    
C4    C7    A    
C19   N2    A    
C4    C28   A    
C7    C31   A    
C24   C25   A    
C10   C14   A    
C50   H19   S    
C8    C54   A    
C39   C40   A    
C16   C17   A    
C25   C26   A    
C5    C45   A    
C23   O8    A    
C8    C53   A    
C47   H16   S    
C37   C38   A    
C19   O4    S    
C8    C12   S    
C3    N1    S    
C55   O14   S    
C17   C18   A    
C35   H7    S    
C16   C20   A    
C14   H25   S    
C34   O10   A    
C51   N1    A    
C46   N3    A    
C43   H13   S    
C48   C49   S    
C6    C30   A    
C11   C32   A    
C2    C54   A    
C9    C34   S    
C31   C35   A    
C42   C43   S    
C42   H10   S    
O5    Zn2   S    
C52   C53   A    
C44   C50   S    
C1    O1    A    
C46   C47   A    
C28   C29   A    
C48   N4    A    
N3    Zn2   S    
C12   O7    A    
C4    C5    A    
C44   N3    A    
C10   C13   A    
C51   O3    S    
C3    C52   A    
C9    C24   A    
C39   H9    S    
C29   C35   A    
C23   O9    A    
C13   C17   A    
C32   C33   A    
C2    C3    A    
C7    C51   A    
C45   O12   S    
C11   C13   A    
C38   C39   A    
O9    Zn2   S    
C55   O13   D    
O6    Zn1   S    
O14   H28   S    
O1    Zn1   S    
C18   C33   A    
C44   C48   A    
C11   C29   A    
C24   H4    S    
C49   C50   S    
C49   H17   S    
C20   N2    A    
C21   H23   S    
C27   C28   A    
C42   H12   S    
C14   C15   A    
C36   C43   S    
O8    Zn1   S    
C15   C16   A    
O7    Zn2   S    
C38   H8    S    
