data_mof_unit_139.cif
_audit_creation_date              2012-12-10T16:53:32-0500
_audit_creation_method            fapswitch 2.2
_symmetry_space_group_name_H-M    P1
_symmetry_Int_Tables_number       1
_space_group_crystal_system       triclinic
_cell_length_a                    7.865294
_cell_length_b                    8.614397
_cell_length_c                    13.627507
_cell_angle_alpha                 92.331615
_cell_angle_beta                  79.958769
_cell_angle_gamma                 92.335445
_cell_volume                      907.901082692

loop_
_atom_site_label
_atom_site_type_symbol
_atom_type_description
_atom_site_fract_x
_atom_site_fract_y
_atom_site_fract_z
_atom_type_partial_charge
C1    C     C_R   0.543449 0.793378 0.496864 0.941670
C2    C     C_1   0.562176 0.506681 0.122210 -0.024762
C3    C     C_2   0.560433 0.952090 0.476751 -0.000899
C4    C     C_2   0.436586 0.047086 0.524310 -0.015531
C5    C     C_3   0.173269 0.274935 0.988253 -0.788570
C6    C     C_3   0.859907 0.644056 0.003432 -0.764871
C7    C     C_3   0.698145 0.995701 0.388849 -0.920712
C8    C     C_3   0.296597 0.001338 0.611476 -0.900286
C9    C     C_3   0.031077 0.284737 0.335916 -0.686433
C10   C     C_3   0.970898 0.453463 0.693406 -0.622417
C11   C     C_R   0.455834 0.206522 0.504542 0.942202
C12   C     C_R   0.472016 0.500426 0.686488 0.884847
C13   C     C_R   0.527863 0.498758 0.313551 0.893671
C14   C     C_1   0.546050 0.503627 0.210064 -0.210328
C15   C     C_1   0.452980 0.481052 0.789084 -0.222419
C16   C     C_2   0.573677 0.506454 0.017292 0.159365
C17   C     C_2   0.440237 0.440841 0.978331 0.168374
C18   C     C_1   0.441201 0.461134 0.875483 -0.022746
H1    H     H_    0.323008 0.308190 0.099748 0.221820
H2    H     H_    0.649875 0.079305 0.341058 0.233070
H3    H     H_    0.813146 0.043410 0.417778 0.264301
H4    H     H_    0.243432 0.104934 0.655861 0.227825
H5    H     H_    0.187389 0.938412 0.583773 0.268991
H6    H     H_    0.349897 0.928301 0.663442 0.235231
H7    H     H_    0.001698 0.521773 0.331372 0.229302
H8    H     H_    0.124033 0.276319 0.264791 0.206290
H9    H     H_    0.899994 0.255878 0.319900 0.235567
H10   H     H_    0.068208 0.201620 0.388056 0.233246
H11   H     H_    0.870323 0.653804 0.633707 0.232082
H12   H     H_    0.066418 0.227338 0.044437 0.234978
H13   H     H_    0.839579 0.406901 0.722589 0.208494
H14   H     H_    0.027274 0.503412 0.757401 0.211822
H15   H     H_    0.048860 0.354603 0.658694 0.242475
H16   H     H_    0.237757 0.176872 0.943003 0.242795
H17   H     H_    0.116427 0.351146 0.939567 0.251650
H18   H     H_    0.756894 0.533462 0.886727 0.221212
H19   H     H_    0.959032 0.701608 0.947103 0.234737
H20   H     H_    0.920352 0.548201 0.035554 0.251662
H21   H     H_    0.813214 0.731847 0.062977 0.251526
H22   H     H_    0.738691 0.892663 0.339819 0.236552
N1    N     N_2   0.954190 0.457600 0.473930 0.029893
N2    N     N_2   0.045810 0.542400 0.526070 0.029943
N3    N     N_2   0.296051 0.362545 0.038488 -0.305605
N4    N     N_2   0.718056 0.583426 0.956558 -0.307985
N5    N     N_2   0.037464 0.440880 0.376958 -0.181780
N6    N     N_2   0.965932 0.573674 0.622514 -0.211814
O1    O     O_R   0.388300 0.738660 0.506400 -0.612135
O2    O     O_R   0.611700 0.261340 0.493600 -0.610724
O3    O     O_R   0.679920 0.711490 0.489690 -0.638480
O4    O     O_R   0.320080 0.288510 0.510310 -0.622519
O5    O     O_R   0.333200 0.515510 0.649910 -0.606315
O6    O     O_R   0.666800 0.484490 0.350090 -0.632274
O7    O     O_R   0.624820 0.488340 0.633200 -0.632052
O8    O     O_R   0.375180 0.511660 0.366800 -0.591472
Zn1   Zn    Zn3+2 0.305280 0.518140 0.511160 0.968772
Zn2   Zn    Zn3+2 0.694720 0.481860 0.488840 0.938765

loop_
_geom_bond_atom_site_label_1
_geom_bond_atom_site_label_2
_ccdc_geom_bond_type
C10   N6    S    
C15   C18   T    
C8    H4    S    
C7    H22   S    
C6    H20   S    
N1    Zn2   S    
C9    N5    S    
H7    N5    S    
N2    Zn1   S    
C13   O6    A    
C2    C16   S    
N1    N2    D    
C16   N4    S    
C3    C7    S    
O4    Zn1   S    
C12   C15   S    
H11   N6    S    
C4    C8    S    
C5    H16   S    
C8    H5    S    
C17   N3    S    
C17   C18   S    
C5    N3    S    
C6    H19   S    
C11   O4    A    
C6    N4    S    
C13   C14   S    
C4    C11   S    
C7    H3    S    
C11   O2    A    
O6    Zn2   S    
C5    H17   S    
C8    H6    S    
H1    N3    S    
C9    H8    S    
C5    H12   S    
C10   H15   S    
O5    Zn1   S    
C2    C14   T    
H18   N4    S    
C3    C4    D    
O3    Zn2   S    
C10   H14   S    
C12   O5    A    
C9    H9    S    
O1    Zn1   S    
C13   O8    A    
N2    N6    S    
O7    Zn2   S    
O2    Zn2   S    
N1    N5    S    
O8    Zn1   S    
C1    O1    A    
C6    H21   S    
C1    O3    A    
C10   H13   S    
C7    H2    S    
C12   O7    A    
C9    H10   S    
C16   C17   D    
C1    C3    S    
