data_mof_unit_3758.cif
_audit_creation_date              2012-12-10T18:05:59-0500
_audit_creation_method            fapswitch 2.2
_symmetry_space_group_name_H-M    P1
_symmetry_Int_Tables_number       1
_space_group_crystal_system       triclinic
_cell_length_a                    12.657754
_cell_length_b                    13.085489
_cell_length_c                    14.927587
_cell_angle_alpha                 91.135671
_cell_angle_beta                  103.154084
_cell_angle_gamma                 81.832278
_cell_volume                      2383.00237242

loop_
_atom_site_label
_atom_site_type_symbol
_atom_type_description
_atom_site_fract_x
_atom_site_fract_y
_atom_site_fract_z
_atom_type_partial_charge
C1    C     C_R   0.438682 0.691429 0.492908 0.868256
C2    C     C_R   0.434951 0.565779 0.803157 -0.296748
C3    C     C_R   0.507012 0.494927 0.769036 -0.080780
C4    C     C_R   0.501800 0.499109 0.672682 0.865330
C5    C     C_R   0.581400 0.419844 0.825000 0.043603
C6    C     C_R   0.698332 0.069501 0.641261 -0.183990
C7    C     C_R   0.598946 0.199626 0.529289 -0.098207
C8    C     C_R   0.296738 0.838835 0.433083 -0.215158
C9    C     C_R   0.265206 0.944919 0.417854 0.159712
C10   C     C_R   0.340668 0.012247 0.452360 -0.175855
C11   C     C_R   0.446486 0.974527 0.504980 0.042637
C12   C     C_R   0.581547 0.413592 0.109274 0.046267
C13   C     C_R   0.467292 0.871321 0.535663 0.090901
C14   C     C_R   0.530749 0.036879 0.531921 0.043766
C15   C     C_R   0.620167 0.004216 0.607042 0.158439
C16   C     C_R   0.561343 0.308723 0.510666 0.841044
C17   C     C_R   0.629819 0.907165 0.647364 -0.235605
C18   C     C_R   0.555437 0.840539 0.610934 -0.190846
C19   C     C_R   0.531128 0.129457 0.485918 -0.048972
C20   C     C_R   0.685340 0.168556 0.604650 -0.224218
C21   C     C_R   0.398711 0.801706 0.490223 -0.136640
C22   C     C_R   0.091701 0.337955 0.378615 0.012049
C23   C     C_R   0.359821 0.633582 0.022815 -0.178055
C24   C     C_R   0.801768 0.621332 0.617073 -0.024317
C25   C     C_R   0.910095 0.634016 0.653721 -0.031807
C26   C     C_R   0.991990 0.580944 0.615049 -0.227885
C27   C     C_R   0.965435 0.520505 0.535549 0.007322
C28   C     C_R   0.499374 0.497611 0.327539 0.871877
C29   C     C_R   0.855377 0.501989 0.507737 0.225406
C30   C     C_R   0.044019 0.472041 0.486751 -0.074669
C31   C     C_R   0.014168 0.392623 0.423024 0.145673
C32   C     C_R   0.906754 0.369961 0.403577 -0.244027
C33   C     C_R   0.828635 0.425413 0.443578 -0.190731
C34   C     C_R   0.359247 0.635915 0.930223 0.090411
C35   C     C_R   0.149485 0.501016 0.494669 0.061784
C36   C     C_R   0.197021 0.364724 0.396718 -0.052787
C37   C     C_R   0.569951 0.408848 0.201261 0.056678
C38   C     C_R   0.499711 0.487829 0.232306 -0.066524
C39   C     C_R   0.431030 0.561404 0.173302 -0.269473
C40   C     C_R   0.432798 0.560813 0.081417 0.085388
C41   C     C_R   0.508925 0.488326 0.048622 0.017292
C42   C     C_1   0.472862 0.149724 0.390810 0.134130
C43   C     C_1   0.179801 0.595426 0.537801 0.224925
C44   C     C_1   0.937590 0.697671 0.733099 0.144597
C45   C     C_R   0.434513 0.564613 0.895729 0.088270
C46   C     C_1   0.755305 0.285533 0.953652 0.235380
C47   C     C_1   0.750239 0.280848 0.137793 0.223732
C48   C     C_R   0.510736 0.490735 0.955111 -0.005395
C49   C     C_R   0.587133 0.419197 0.920626 0.065589
C50   C     C_R   0.666374 0.350760 0.982768 -0.068397
C51   C     C_R   0.663455 0.347883 0.076297 -0.080159
H1    H     H_    0.696457 0.881715 0.705558 0.154292
H2    H     H_    0.075357 0.582723 0.651981 0.155502
H3    H     H_    0.748344 0.404124 0.425526 0.216296
H4    H     H_    0.302073 0.688775 0.048989 0.163821
H5    H     H_    0.379015 0.621365 0.755927 0.150515
H6    H     H_    0.739256 0.222253 0.637808 0.170193
H7    H     H_    0.604569 0.325223 0.324528 0.166407
H8    H     H_    0.590128 0.256310 0.229509 0.201844
H9    H     H_    0.115570 0.925055 0.337301 0.189847
H10   H     H_    0.115570 0.024163 0.409907 0.176841
H11   H     H_    0.048997 0.195861 0.353494 0.189488
H12   H     H_    0.765700 0.046071 0.699444 0.157181
H13   H     H_    0.129139 0.227690 0.286432 0.201527
H14   H     H_    0.230574 0.673334 0.821697 0.197668
H15   H     H_    0.322928 0.758892 0.842371 0.191530
H16   H     H_    0.591415 0.303787 0.733353 0.184775
H17   H     H_    0.697677 0.374277 0.752324 0.208930
H18   H     H_    0.242380 0.785493 0.399848 0.160410
H19   H     H_    0.314086 0.094023 0.440178 0.149264
H20   H     H_    0.565264 0.765889 0.644008 0.152806
H21   H     H_    0.259246 0.323146 0.365430 0.154361
H22   H     H_    0.881311 0.310250 0.355713 0.196438
H23   H     H_    0.376183 0.619751 0.199620 0.146410
H24   H     H_    0.737484 0.658866 0.648174 0.136314
N1    N     N_R   0.222190 0.444670 0.452360 -0.132471
N2    N     N_3   0.644638 0.340697 0.783337 -0.457750
N3    N     N_1   0.826388 0.233484 0.931153 -0.193741
N4    N     N_1   0.819604 0.227029 0.185888 -0.197319
N5    N     N_R   0.776970 0.554790 0.547140 -0.136288
N6    N     N_3   0.622843 0.321072 0.259821 -0.457942
N7    N     N_1   0.426884 0.166032 0.314981 -0.219330
N8    N     N_3   0.158721 0.985303 0.364507 -0.457447
N9    N     N_3   0.063264 0.256525 0.315455 -0.438340
N10   N     N_1   0.202922 0.671543 0.572683 -0.232788
N11   N     N_1   0.959691 0.748849 0.796851 -0.196187
N12   N     N_3   0.280936 0.711405 0.872974 -0.446569
O1    O     O_R   0.366740 0.627160 0.477250 -0.607589
O2    O     O_R   0.544830 0.662520 0.507680 -0.608665
O3    O     O_R   0.410940 0.482340 0.616930 -0.605297
O4    O     O_R   0.589030 0.517700 0.647360 -0.636307
O5    O     O_R   0.455170 0.337480 0.492320 -0.605437
O6    O     O_R   0.633260 0.372840 0.522750 -0.643762
O7    O     O_R   0.410970 0.482300 0.352640 -0.611897
O8    O     O_R   0.589060 0.517660 0.383070 -0.621633
Zn1   Zn    Zn3+2 0.381090 0.476390 0.479680 0.956275
Zn2   Zn    Zn3+2 0.618910 0.523610 0.520320 0.928612

loop_
_geom_bond_atom_site_label_1
_geom_bond_atom_site_label_2
_ccdc_geom_bond_type
O1    Zn1   S    
C1    C21   S    
N5    Zn2   S    
C27   C29   A    
C42   N7    T    
C47   N4    T    
C5    C49   A    
C8    H18   S    
C12   C41   A    
C13   C18   A    
C28   O8    A    
C30   C31   A    
C11   C14   A    
C23   C40   A    
C29   C33   A    
H17   N2    S    
C10   H19   S    
C28   O7    A    
C39   H23   S    
C12   C37   A    
C49   C50   A    
H13   N9    S    
C36   N1    A    
C6    C15   A    
C24   N5    A    
C8    C9    A    
H16   N2    S    
C35   C43   S    
C9    C10   A    
C19   C42   S    
C33   H3    S    
C4    O4    A    
C1    O1    A    
C27   C30   A    
C37   N6    S    
C44   N11   T    
C25   C44   S    
H14   N12   S    
C4    O3    A    
C2    C45   A    
C35   N1    A    
C22   C31   A    
C43   N10   T    
C24   C25   A    
H10   N8    S    
H7    N6    S    
H15   N12   S    
C46   N3    T    
C47   C51   S    
C50   C51   A    
C25   C26   A    
O3    Zn1   S    
O2    Zn2   S    
C22   N9    S    
C6    H12   S    
C37   C38   A    
C31   C32   A    
C28   C38   S    
C23   C34   A    
C17   C18   A    
C16   O6    A    
C13   C21   A    
C34   C45   A    
O4    Zn2   S    
O7    Zn1   S    
C9    N8    S    
C17   H1    S    
C30   C35   A    
C48   C49   A    
C16   O5    A    
C7    C19   A    
C26   C27   A    
C5    N2    S    
C3    C4    S    
C26   H2    S    
O6    Zn2   S    
C39   C40   A    
C12   C51   A    
C6    C20   A    
C45   C48   A    
C18   H20   S    
C15   C17   A    
H11   N9    S    
C40   C41   A    
C1    O2    A    
C14   C19   A    
C7    C16   S    
H8    N6    S    
C3    C5    A    
C8    C21   A    
O8    Zn2   S    
C24   H24   S    
C23   H4    S    
C22   C36   A    
C46   C50   S    
C32   C33   A    
C2    C3    A    
C2    H5    S    
N1    Zn1   S    
C11   C13   A    
C38   C39   A    
C29   N5    A    
H9    N8    S    
C41   C48   A    
O5    Zn1   S    
C34   N12   S    
C10   C11   A    
C7    C20   A    
C14   C15   A    
C20   H6    S    
C32   H22   S    
C36   H21   S    
