data_mof_unit_1878.cif
_audit_creation_date              2012-10-26T19:02:35-0400
_audit_creation_method            fapswitch 2.2
_symmetry_space_group_name_H-M    P1
_symmetry_Int_Tables_number       1
_space_group_crystal_system       triclinic
_cell_length_a                    17.232932
_cell_length_b                    8.722129
_cell_length_c                    7.490039
_cell_angle_alpha                 102.724103
_cell_angle_beta                  91.211412
_cell_angle_gamma                 93.45631
_cell_volume                      1095.48133985

loop_
_atom_site_label
_atom_site_type_symbol
_atom_type_description
_atom_site_fract_x
_atom_site_fract_y
_atom_site_fract_z
_atom_type_partial_charge
C1    C     C_R   0.496063 0.200435 0.454929 0.529993
C2    C     C_R   0.771293 0.639094 0.598393 -0.118665
C3    C     C_R   0.148921 0.595305 0.407843 0.011263
C4    C     C_R   0.849829 0.635433 0.645432 0.001299
C5    C     C_R   0.109183 0.570128 0.562424 0.065811
C6    C     C_R   0.890242 0.503460 0.558013 0.046830
C7    C     C_R   0.149135 0.518777 0.701747 0.424396
C8    C     C_R   0.851309 0.382998 0.423494 0.440118
C9    C     C_R   0.228466 0.498493 0.691076 -0.066308
C10   C     C_R   0.772671 0.388619 0.381315 -0.062399
C11   C     C_2   0.026552 0.601425 0.577766 0.437524
C12   C     C_R   0.504201 0.799579 0.545000 0.524773
C13   C     C_2   0.973217 0.488048 0.595463 0.501078
C14   C     C_2   0.884826 0.766677 0.792517 0.675763
C15   C     C_2   0.107440 0.630443 0.248240 0.706390
C16   C     C_2   0.418637 0.955212 0.306316 0.600564
C17   C     C_2   0.582330 0.044494 0.692669 0.593037
C18   C     C_2   0.482682 0.034343 0.438303 0.012195
C19   C     C_2   0.517953 0.965626 0.561343 0.010264
C20   C     C_R   0.351398 0.506096 0.524923 0.548710
C21   C     C_R   0.648493 0.501499 0.476466 0.539012
C22   C     C_R   0.268245 0.526146 0.539398 -0.054787
C23   C     C_R   0.732457 0.514511 0.472689 -0.043722
C24   C     C_R   0.228309 0.574630 0.398653 -0.113070
Cu1   Cu    Cu3+1 0.508700 0.517250 0.683000 1.241497
Cu2   Cu    Cu3+1 0.491300 0.482750 0.317000 1.241800
F1    F     F_    0.995844 0.344591 0.611787 -0.507836
F2    F     F_    0.004076 0.737750 0.538109 -0.597583
F3    F     F_    0.111371 0.486885 0.847151 -0.565015
F4    F     F_    0.889366 0.258180 0.334408 -0.511005
F5    F     F_    0.427984 0.351181 0.935603 -0.523025
F6    F     F_    0.571936 0.648983 0.064417 -0.515937
H1    H     H_    0.258687 0.594010 0.279420 0.200984
H2    H     H_    0.738196 0.734404 0.670126 0.182054
H3    H     H_    0.742290 0.290577 0.286262 0.166144
H4    H     H_    0.258497 0.459579 0.799999 0.188975
H5    H     H_    0.964913 0.841553 0.998265 0.396690
H6    H     H_    0.012097 0.583419 0.079176 0.413580
H7    H     H_    0.372484 0.913667 0.049010 0.355211
H8    H     H_    0.630028 0.082743 0.948343 0.353757
N1    N     N_2   0.478180 0.456750 0.041980 0.186579
N2    N     N_2   0.521820 0.543250 0.958020 0.190603
O1    O     O_R   0.505650 0.286040 0.618880 -0.469116
O2    O     O_R   0.946749 0.742867 0.903947 -0.675309
O3    O     O_2   0.137380 0.722786 0.164377 -0.426893
O4    O     O_R   0.034562 0.553898 0.191476 -0.589972
O5    O     O_2   0.365117 0.878686 0.357566 -0.512122
O6    O     O_R   0.418852 0.972365 0.125062 -0.595711
O7    O     O_2   0.635109 0.123040 0.641649 -0.498527
O8    O     O_R   0.583431 0.024433 0.872857 -0.599986
O9    O     O_R   0.494350 0.713960 0.381120 -0.475044
O10   O     O_R   0.490960 0.256910 0.309800 -0.457429
O11   O     O_R   0.509040 0.743090 0.690200 -0.460614
O12   O     O_R   0.394600 0.516230 0.672450 -0.488555
O13   O     O_R   0.605400 0.483770 0.327550 -0.476400
O14   O     O_R   0.379910 0.487100 0.363380 -0.492078
O15   O     O_R   0.620090 0.512900 0.636620 -0.485180
O16   O     O_2   0.858280 0.896432 0.818352 -0.404606

loop_
_geom_bond_atom_site_label_1
_geom_bond_atom_site_label_2
_ccdc_geom_bond_type
C17   O8    S    
Cu1   N2    S    
C9    H4    S    
C2    C4    A    
C21   O15   A    
C10   H3    S    
C7    F3    S    
Cu2   O10   S    
C10   C23   A    
N1    N2    D    
C12   O11   A    
C20   O14   A    
C8    F4    S    
Cu2   O13   S    
Cu1   O1    S    
H5    O2    S    
C1    C18   S    
Cu1   Cu2   S    
Cu2   O9    S    
C6    C13   S    
C11   C13   D    
C20   O12   A    
C16   O6    S    
C3    C24   A    
Cu1   O15   S    
C11   F2    S    
H8    O8    S    
C16   O5    D    
C14   O2    S    
C17   C19   S    
Cu1   O11   S    
C5    C11   S    
C5    C7    A    
C21   C23   S    
C4    C14   S    
C14   O16   D    
C1    O10   A    
C22   C24   A    
C9    C22   A    
H6    O4    S    
C4    C6    A    
C15   O3    D    
C7    C9    A    
C12   O9    A    
C3    C15   S    
Cu1   O12   S    
C12   C19   S    
C16   C18   S    
C18   C19   D    
C17   O7    D    
C2    C23   A    
C21   O13   A    
F6    N2    S    
C13   F1    S    
C6    C8    A    
F5    N1    S    
C15   O4    S    
C2    H2    S    
C1    O1    A    
C8    C10   A    
C24   H1    S    
Cu2   N1    S    
C20   C22   S    
H7    O6    S    
C3    C5    A    
Cu2   O14   S    
