data_mof_unit_2227.cif
_audit_creation_date              2012-12-11T14:06:34-0500
_audit_creation_method            fapswitch 2.2
_symmetry_space_group_name_H-M    P1
_symmetry_Int_Tables_number       1
_space_group_crystal_system       triclinic
_cell_length_a                    6.937709
_cell_length_b                    17.357748
_cell_length_c                    24.160023
_cell_angle_alpha                 104.915413
_cell_angle_beta                  90.348805
_cell_angle_gamma                 89.743321
_cell_volume                      2811.33014622

loop_
_atom_site_label
_atom_site_type_symbol
_atom_type_description
_atom_site_fract_x
_atom_site_fract_y
_atom_site_fract_z
_atom_type_partial_charge
O1    O     O_R   0.494290 0.391990 0.999150 -0.524396
O2    O     O_R   0.827170 0.534410 0.082350 -0.546203
O3    O     O_R   0.994360 0.608010 0.000850 -0.543802
C1    C     C_R   0.658384 0.550372 0.106112 0.700970
O4    O     O_R   0.824210 0.388010 0.004470 -0.516596
O5    O     O_R   0.991370 0.460560 0.922410 -0.529418
C2    C     C_R   0.654595 0.355591 0.002571 0.796897
O6    O     O_R   0.497270 0.539440 0.077590 -0.541912
O7    O     O_3   0.659770 0.523970 0.973170 -0.383329
V1    V     V_3+5 0.935840 0.495550 0.004980 1.518978
O8    O     O_R   0.320910 0.465590 0.917650 -0.546030
C3    C     C_R   0.152050 0.446909 0.894189 0.747509
O9    O     O_R   0.323870 0.611990 0.995530 -0.553015
C4    C     C_R   0.154121 0.645040 0.998528 0.747904
V2    V     V_3+5 0.435470 0.504450 0.995020 1.466684
O10   O     O_3   0.161670 0.476030 0.026830 -0.354971
C5    C     C_2   0.142459 0.730063 0.998121 -0.336257
H1    H     H_    0.276690 0.760503 0.994744 0.147898
C6    C     C_2   0.973110 0.770001 0.002055 -0.335609
H2    H     H_    0.838881 0.739564 0.005438 0.148045
C7    C     C_R   0.102818 0.231511 0.627521 0.630386
N1    N     N_R   0.138205 0.311766 0.648452 -0.559553
C8    C     C_R   0.168798 0.359085 0.611824 0.568983
C9    C     C_R   0.164170 0.326607 0.552218 -0.009881
C10   C     C_R   0.115851 0.245612 0.530062 -0.046714
C11   C     C_R   0.081983 0.196781 0.567788 -0.090914
C12   C     C_R   0.203270 0.373970 0.514358 -0.142000
C13   C     C_R   0.192771 0.341923 0.455233 -0.131723
C14   C     C_R   0.138679 0.262171 0.432448 -0.008915
C15   C     C_R   0.099583 0.213940 0.469904 -0.007671
C16   C     C_R   0.041898 0.134510 0.447215 -0.071022
C17   C     C_R   0.007396 0.086331 0.484544 -0.183975
C18   C     C_R   0.027881 0.115793 0.543941 0.208947
C19   C     C_R   0.119298 0.229750 0.372978 0.623945
N2    N     N_R   0.055211 0.153136 0.351648 -0.543565
C20   C     C_R   0.016583 0.105465 0.387508 0.689268
O11   O     O_2   0.090998 0.185737 0.664640 -0.469961
O12   O     O_2   0.200363 0.437886 0.632902 -0.522937
H3    H     H_    0.242199 0.436149 0.530285 0.169021
H4    H     H_    0.223750 0.380337 0.427486 0.173978
O13   O     O_2   0.161553 0.274785 0.336742 -0.510420
O14   O     O_2   0.951948 0.030559 0.365546 -0.492567
H5    H     H_    0.963145 0.024961 0.467585 0.185738
C21   C     C_R   0.151558 0.070919 0.256428 0.253613
C22   C     C_R   0.129052 0.048383 0.197035 -0.210772
H6    H     H_    0.233449 0.007755 0.171760 0.160043
C23   C     C_R   0.975918 0.077304 0.169851 -0.163453
C24   C     C_R   0.838208 0.129293 0.204034 -0.106392
C25   C     C_R   0.861017 0.152795 0.264697 -0.075532
C26   C     C_R   0.020045 0.123902 0.290726 0.257065
C27   C     C_R   0.295251 0.392481 0.737264 -0.030079
H7    H     H_    0.418257 0.402330 0.712608 0.146402
C28   C     C_R   0.295117 0.425472 0.796561 -0.179845
H8    H     H_    0.416788 0.461710 0.815762 0.151158
C29   C     C_R   0.142724 0.411146 0.830864 -0.141421
C30   C     C_R   0.986791 0.362418 0.803500 -0.064473
C31   C     C_R   0.983481 0.334288 0.743466 -0.126519
H9    H     H_    0.862923 0.298724 0.722558 0.170893
C32   C     C_R   0.138768 0.346962 0.709948 0.328342
C33   C     C_R   0.480758 0.884080 0.612071 0.624301
N3    N     N_R   0.500645 0.834349 0.647748 -0.560635
C34   C     C_R   0.540068 0.754728 0.625929 0.577001
C35   C     C_R   0.561863 0.722451 0.566434 -0.027616
C36   C     C_R   0.542498 0.772862 0.529417 -0.018034
C37   C     C_R   0.500991 0.854350 0.552250 -0.034465
C38   C     C_R   0.603859 0.641225 0.543174 -0.133930
C39   C     C_R   0.626529 0.610557 0.484085 -0.146887
C40   C     C_R   0.607398 0.660266 0.446670 -0.029520
C41   C     C_R   0.564858 0.741692 0.469438 -0.014459
C42   C     C_R   0.544376 0.791967 0.432356 -0.036941
C43   C     C_R   0.502514 0.873239 0.455636 -0.124294
C44   C     C_R   0.481211 0.904032 0.514803 -0.116701
C45   C     C_R   0.628317 0.630475 0.386906 0.578544
N4    N     N_R   0.606726 0.679948 0.351171 -0.565119
C46   C     C_R   0.565732 0.759478 0.372827 0.591226
O15   O     O_2   0.440785 0.962013 0.634303 -0.479318
O16   O     O_2   0.560785 0.706990 0.661696 -0.516390
H10   H     H_    0.619630 0.601012 0.570559 0.177410
H11   H     H_    0.658787 0.547693 0.467841 0.170658
O17   O     O_2   0.667633 0.552469 0.364700 -0.509399
O18   O     O_2   0.546244 0.807120 0.336952 -0.495108
H12   H     H_    0.486012 0.913384 0.428219 0.190803
H13   H     H_    0.449194 0.966922 0.531071 0.185284
C47   C     C_R   0.799754 0.622155 0.264133 -0.071285
H14   H     H_    0.928791 0.627508 0.290269 0.122382
C48   C     C_R   0.812733 0.590473 0.204592 -0.180746
H15   H     H_    0.952485 0.571990 0.186030 0.134874
C49   C     C_R   0.646949 0.582801 0.169601 -0.051368
C50   C     C_R   0.468368 0.607794 0.195898 -0.178026
H16   H     H_    0.337489 0.603138 0.170615 0.130329
C51   C     C_R   0.456017 0.639829 0.255209 -0.083236
H17   H     H_    0.317190 0.658621 0.274348 0.118816
C52   C     C_R   0.621305 0.647350 0.289846 0.376436
C53   C     C_R   0.335900 0.843561 0.740089 -0.068119
H18   H     H_    0.226927 0.802414 0.717869 0.141364
C54   C     C_R   0.326150 0.873039 0.799782 -0.210378
H19   H     H_    0.209729 0.853429 0.822498 0.141099
C55   C     C_R   0.467388 0.925590 0.830087 -0.099161
C56   C     C_R   0.616248 0.950315 0.798539 0.109796
C57   C     C_R   0.624401 0.920473 0.738814 -0.099330
H20   H     H_    0.739500 0.939218 0.715182 0.167541
C58   C     C_R   0.486095 0.866533 0.709169 0.329421
C59   C     C_2   0.644931 0.270353 0.001659 -0.251118
C60   C     C_2   0.478237 0.234408 0.012012 -0.052072
O19   O     O_R   0.618210 0.960470 0.922400 -0.533054
O20   O     O_R   0.291310 0.111960 0.995450 -0.541704
O21   O     O_R   0.124210 0.039530 0.077580 -0.549964
C61   C     C_R   0.461230 0.146215 0.002502 0.772776
O22   O     O_R   0.288310 0.965490 0.917650 -0.532937
O23   O     O_R   0.121180 0.892010 0.999220 -0.543538
C62   C     C_R   0.457442 0.952763 0.893806 0.730569
O24   O     O_R   0.621230 0.107990 0.000760 -0.527913
O25   O     O_3   0.455770 0.976060 0.026840 -0.382944
V3    V     V_3+5 0.179680 0.004440 0.995020 1.489791
O26   O     O_R   0.791670 0.888040 0.004570 -0.551728
C63   C     C_R   0.961430 0.855002 0.001597 0.753266
O27   O     O_R   0.794680 0.034510 0.082370 -0.534020
C64   C     C_R   0.963600 0.050183 0.106065 0.748318
V4    V     V_3+5 0.680070 0.995560 0.005010 1.493339
O28   O     O_3   0.953840 0.023940 0.973160 -0.358199
C65   C     C_2   0.724658 0.210475 0.301233 0.869262
O29   O     O_2   0.668228 0.199644 0.346490 -0.546251
O30   O     O_R   0.663531 0.277939 0.284382 -0.625930
H21   H     H_    0.571938 0.312562 0.312884 0.336849
C66   C     C_2   0.833392 0.333097 0.835292 0.799399
O31   O     O_2   0.872542 0.313197 0.878980 -0.527056
O32   O     O_R   0.646023 0.322997 0.813112 -0.668915
H22   H     H_    0.554968 0.301352 0.838107 0.306672
I1    I     I_    0.827272 0.036768 0.835920 -0.250500
C67   C     C_2   0.831777 0.228835 0.998396 0.876458
O33   O     O_2   0.931546 0.217104 0.955522 -0.509969
O34   O     O_R   0.891309 0.203668 0.046125 -0.621661
H23   H     H_    0.006625 0.167401 0.038601 0.318922
I2    I     I_    0.268915 0.304289 0.067578 -0.276303
I3    I     I_    0.960500 0.030670 0.590835 -0.261419
I4    I     I_    0.393760 0.025380 0.291957 -0.244907
C68   C     C_2   0.671886 0.159981 0.177106 0.855597
O35   O     O_2   0.698494 0.194077 0.139519 -0.523346
O36   O     O_R   0.485065 0.152067 0.196058 -0.655224
H24   H     H_    0.384400 0.176332 0.174964 0.311808

loop_
_geom_bond_atom_site_label_1
_geom_bond_atom_site_label_2
_ccdc_geom_bond_type
C21   I4    S    
C7    C11   A    
C45   N4    A    
C34   O16   S    
C20   O14   S    
N2    C20   A    
C4    C5    S    
C9    C12   A    
C1    O6    A    
O30   H21   S    
C28   H8    S    
C68   O36   S    
C14   C15   A    
C60   I2    S    
C24   C68   S    
O20   V3    S    
C13   C14   A    
C47   C48   A    
C41   C42   A    
O22   C62   A    
O5    C3    A    
C15   C16   A    
C48   C49   A    
C31   C32   A    
C13   H4    S    
O26   C63   A    
C30   C31   A    
C19   N2    A    
O25   V4    S    
O8    V2    S    
C17   H5    S    
C23   C64   S    
C23   C24   A    
C12   H3    S    
O34   H23   S    
C54   C55   A    
C8    C9    A    
C42   C43   A    
O1    V2    S    
C50   C51   A    
O7    V1    S    
O23   V3    S    
O21   C64   A    
C51   H17   S    
C43   H12   S    
C28   C29   A    
C38   C39   A    
O19   C62   A    
C35   C38   A    
C2    C59   S    
O9    C4    A    
N4    C52   S    
C53   H18   S    
C19   O13   S    
N2    C26   S    
N1    C8    A    
C22   C23   A    
C38   H10   S    
N4    C46   A    
C56   I1    S    
C39   C40   A    
C44   H13   S    
C39   H11   S    
C9    C10   A    
N1    C32   S    
O4    C2    A    
C48   H15   S    
C46   O18   S    
C10   C11   A    
C22   H6    S    
C14   C19   A    
C33   O15   S    
C61   O24   A    
C33   N3    A    
C27   C28   A    
C67   O34   S    
O21   V3    S    
C34   C35   A    
C51   C52   A    
C18   I3    S    
C11   C18   A    
C56   C57   A    
O36   H24   S    
C25   C65   S    
C54   H19   S    
C29   C30   A    
C57   C58   A    
C5    H1    S    
C7    O11   S    
C36   C41   A    
C47   H14   S    
C53   C54   A    
C65   O29   D    
O3    C4    A    
O22   V3    S    
C24   C25   A    
C33   C37   A    
C55   C56   A    
O6    V2    S    
O26   V4    S    
O9    V2    S    
C66   O31   D    
C27   C32   A    
O32   H22   S    
O2    V1    S    
O23   C63   A    
C60   C61   S    
C21   C22   A    
O25   V3    S    
C21   C26   A    
C10   C15   A    
C55   C62   S    
O1    C2    A    
C40   C41   A    
C16   C17   A    
O5    V1    S    
O24   V4    S    
V4    O28   S    
C1    C49   S    
C37   C44   A    
C68   O35   D    
C8    O12   S    
C36   C37   A    
C6    H2    S    
O27   V4    S    
C67   O33   D    
C40   C45   A    
C27   H7    S    
O3    V1    S    
V1    O10   S    
O27   C64   A    
C17   C18   A    
C31   H9    S    
O20   C61   A    
C6    C63   S    
O2    C1    A    
C57   H20   S    
C5    C6    D    
C45   O17   S    
N3    C58   S    
C47   C52   A    
O7    V2    S    
N3    C34   A    
C59   C67   S    
C65   O30   S    
C3    C29   S    
C35   C36   A    
O4    V1    S    
C43   C44   A    
C49   C50   A    
C53   C58   A    
C30   C66   S    
C25   C26   A    
C59   C60   D    
C66   O32   S    
C16   C20   A    
O19   V4    S    
C42   C46   A    
C50   H16   S    
C7    N1    A    
V3    O28   S    
V2    O10   S    
O8    C3    A    
C12   C13   A    
