data_mof_unit_3005.cif
_audit_creation_date              2012-12-10T16:52:04-0500
_audit_creation_method            fapswitch 2.2
_symmetry_space_group_name_H-M    P1
_symmetry_Int_Tables_number       1
_space_group_crystal_system       triclinic
_cell_length_a                    7.756888
_cell_length_b                    8.576548
_cell_length_c                    14.91841
_cell_angle_alpha                 91.500105
_cell_angle_beta                  86.804749
_cell_angle_gamma                 93.169363
_cell_volume                      989.157687264

loop_
_atom_site_label
_atom_site_type_symbol
_atom_type_description
_atom_site_fract_x
_atom_site_fract_y
_atom_site_fract_z
_atom_type_partial_charge
C1    C     C_R   0.545455 0.794645 0.498263 0.979459
C2    C     C_R   0.625220 0.608275 0.816894 0.409725
C3    C     C_R   0.486206 0.499829 0.232006 -0.196100
C4    C     C_R   0.508653 0.508222 0.770084 -0.189984
C5    C     C_R   0.569272 0.627541 0.189436 -0.248301
C6    C     C_R   0.375568 0.421253 0.815290 -0.210048
C7    C     C_R   0.567581 0.639595 0.096912 0.056409
C8    C     C_R   0.356573 0.427017 0.908211 0.063053
C9    C     C_R   0.464599 0.527941 0.049195 0.038974
C10   C     C_R   0.468139 0.530791 0.955531 0.044827
C11   C     C_R   0.363231 0.409090 0.094530 -0.018266
C12   C     C_R   0.454829 0.205549 0.504610 1.013742
C13   C     C_R   0.588656 0.633345 0.909324 -0.025952
C14   C     C_R   0.660330 0.762195 0.050531 -0.038806
C15   C     C_R   0.231650 0.329906 0.955314 -0.049919
C16   C     C_2   0.755378 0.894165 0.095631 0.984383
C17   C     C_2   0.092181 0.237551 0.911019 0.911384
C18   C     C_R   0.666766 0.758351 0.957049 -0.140348
C19   C     C_R   0.239998 0.318497 0.047797 -0.135824
C20   C     C_2   0.569831 0.957826 0.498469 -0.301460
C21   C     C_2   0.430754 0.042448 0.507323 -0.310249
C22   C     C_R   0.504532 0.504517 0.673450 0.934378
C23   C     C_R   0.495682 0.496508 0.327147 0.989643
C24   C     C_R   0.387475 0.385264 0.185388 0.401707
H1    H     H_    0.637066 0.715011 0.229805 0.195196
H2    H     H_    0.903703 0.851620 0.665338 0.369718
H3    H     H_    0.802258 0.127575 0.105756 0.363483
H4    H     H_    0.952914 0.034612 0.901848 0.371952
H5    H     H_    0.293015 0.342463 0.776634 0.196159
H6    H     H_    0.731093 0.854883 0.921794 0.200462
H7    H     H_    0.144886 0.242584 0.083326 0.226202
H8    H     H_    0.701644 0.007829 0.490679 0.178567
H9    H     H_    0.298957 0.992454 0.515247 0.172074
H10   H     H_    0.012571 0.376476 0.435836 0.227803
H11   H     H_    0.988256 0.626736 0.561871 0.235422
H12   H     H_    0.082250 0.124789 0.312681 0.386528
N1    N     N_2   0.950330 0.457950 0.475660 -0.163369
N2    N     N_2   0.049670 0.542050 0.524340 -0.150324
O1    O     O_R   0.389250 0.738570 0.505970 -0.628927
O2    O     O_2   0.430694 0.168842 0.309751 -0.342357
O3    O     O_3   0.112093 0.224131 0.281585 -0.575156
O4    O     O_2   0.949800 0.751729 0.828412 -0.309729
O5    O     O_2   0.913511 0.539585 0.720152 -0.251917
O6    O     O_3   0.788377 0.805594 0.685156 -0.596342
O7    O     O_2   0.860931 0.869645 0.150794 -0.592304
O8    O     O_R   0.729229 0.047173 0.071500 -0.761128
O9    O     O_2   0.011029 0.296185 0.853774 -0.567846
O10   O     O_R   0.049491 0.084674 0.937293 -0.754182
O11   O     O_R   0.610750 0.261430 0.494030 -0.616404
O12   O     O_R   0.678390 0.711620 0.490370 -0.624531
O13   O     O_R   0.321610 0.288380 0.509630 -0.627222
O14   O     O_R   0.355420 0.513510 0.639950 -0.600897
O15   O     O_R   0.644580 0.486490 0.360050 -0.601826
O16   O     O_R   0.644560 0.486560 0.624350 -0.558501
O17   O     O_R   0.355440 0.513440 0.375650 -0.601856
O18   O     O_2   0.314357 0.073099 0.169486 -0.257585
S1    S     S_3+6 0.314142 0.206160 0.237183 0.015855
S2    S     S_3+6 0.826890 0.676724 0.763714 0.020081
Zn1   Zn    Zn3+2 0.306940 0.517990 0.510420 1.024518
Zn2   Zn    Zn3+2 0.693060 0.482010 0.489580 1.035954

loop_
_geom_bond_atom_site_label_1
_geom_bond_atom_site_label_2
_ccdc_geom_bond_type
C16   O7    D    
C2    C4    A    
C2    S2    S    
C23   O17   A    
N1    N2    D    
C18   H6    S    
O14   Zn1   S    
O17   Zn1   S    
O12   Zn2   S    
H10   N1    S    
C4    C22   S    
C1    O12   A    
C14   C18   A    
C3    C23   S    
C17   O10   S    
O1    Zn1   S    
C19   H7    S    
O4    S2    D    
C12   O11   A    
C3    C24   A    
H2    O6    S    
C22   O16   A    
O16   Zn2   S    
C20   C21   D    
C15   C19   A    
C9    C11   A    
C11   C19   A    
H12   O3    S    
O11   Zn2   S    
C13   C18   A    
C5    H1    S    
H3    O8    S    
C8    C10   A    
O15   Zn2   S    
C23   O15   A    
C8    C15   A    
C5    C7    A    
C20   H8    S    
C14   C16   S    
N1    Zn2   S    
C21   H9    S    
C1    O1    A    
O3    S1    S    
N2    Zn1   S    
C17   O9    D    
C11   C24   A    
C6    H5    S    
O13   Zn1   S    
O18   S1    D    
C22   O14   A    
C4    C6    A    
C9    C10   A    
C16   O8    S    
C7    C9    A    
C2    C13   A    
H11   N2    S    
H4    O10   S    
C1    C20   S    
C6    C8    A    
O2    S1    D    
O5    S2    D    
C15   C17   S    
C12   C21   S    
C7    C14   A    
C12   O13   A    
O6    S2    S    
C24   S1    S    
C3    C5    A    
C10   C13   A    
