data_mof_unit_2350.cif
_audit_creation_date              2012-12-10T21:13:56-0500
_audit_creation_method            fapswitch 2.2
_symmetry_space_group_name_H-M    P1
_symmetry_Int_Tables_number       1
_space_group_crystal_system       triclinic
_cell_length_a                    15.268546
_cell_length_b                    16.826194
_cell_length_c                    17.500614
_cell_angle_alpha                 91.626831
_cell_angle_beta                  92.12726
_cell_angle_gamma                 68.064302
_cell_volume                      4167.22179289

loop_
_atom_site_label
_atom_site_type_symbol
_atom_type_description
_atom_site_fract_x
_atom_site_fract_y
_atom_site_fract_z
_atom_type_partial_charge
C1    C     C_R   0.500362 0.500905 0.646740 0.912712
C2    C     C_R   0.501768 0.498531 0.353435 0.910332
C3    C     C_R   0.112542 0.386364 0.458286 -0.202051
C4    C     C_R   0.905418 0.575701 0.398634 -0.191927
C5    C     C_R   0.073089 0.325813 0.469652 -0.098372
C6    C     C_R   0.945454 0.637020 0.392024 -0.078038
C7    C     C_R   0.582172 0.419481 0.156085 -0.230610
C8    C     C_R   0.480824 0.573743 0.851821 -0.259611
C9    C     C_R   0.574606 0.420385 0.235140 0.533093
C10   C     C_R   0.469015 0.576906 0.772239 0.471349
C11   C     C_R   0.511209 0.494427 0.271396 -0.139820
C12   C     C_R   0.509482 0.500506 0.729385 -0.099380
C13   C     C_R   0.461125 0.567887 0.229263 -0.228305
C14   C     C_R   0.563616 0.423493 0.765353 -0.270046
C15   C     C_R   0.471602 0.567212 0.150999 -0.133357
C16   C     C_R   0.576976 0.421764 0.844036 -0.136472
C17   C     C_R   0.531825 0.493076 0.114945 0.062689
C18   C     C_R   0.535164 0.496718 0.886715 0.090782
C19   C     C_1   0.538727 0.492168 0.034879 -0.009069
C20   C     C_1   0.539918 0.493341 0.967146 -0.015302
C21   C     C_R   0.543206 0.157320 0.566807 0.326784
C22   C     C_R   0.416979 0.856011 0.462412 0.394956
C23   C     C_R   0.676968 0.446394 0.499075 0.908815
C24   C     C_R   0.322558 0.553486 0.499042 0.948385
C25   C     C_R   0.544706 0.240934 0.559803 -0.133034
C26   C     C_R   0.427414 0.768216 0.461229 -0.227686
C27   C     C_R   0.451497 0.262019 0.445203 0.516138
C28   C     C_R   0.565456 0.732775 0.540724 0.544778
C29   C     C_R   0.449026 0.179679 0.451128 -0.362685
C30   C     C_R   0.558976 0.818268 0.539532 -0.349043
C31   C     C_R   0.493794 0.126363 0.511203 -0.072608
C32   C     C_R   0.484915 0.881215 0.502208 -0.094402
C33   C     C_1   0.488703 0.040429 0.510849 0.147849
C34   C     C_1   0.483968 0.969272 0.506536 0.165311
C35   C     C_R   0.779452 0.410344 0.490215 -0.257342
C36   C     C_R   0.219931 0.585728 0.483259 -0.259138
C37   C     C_R   0.933062 0.293257 0.496273 0.323212
C38   C     C_R   0.078590 0.684905 0.418250 0.350928
C39   C     C_R   0.836397 0.326628 0.513344 0.376617
C40   C     C_R   0.167758 0.668460 0.454902 0.383455
C41   C     C_R   0.819247 0.460493 0.454122 -0.266842
C42   C     C_R   0.178421 0.525269 0.484334 -0.250115
C43   C     C_R   0.916807 0.434787 0.448835 0.034522
C44   C     C_R   0.091532 0.538912 0.448303 0.059294
C45   C     C_R   0.974825 0.350039 0.470767 -0.072185
C46   C     C_R   0.038255 0.621015 0.418653 -0.061025
C47   C     C_R   0.958048 0.494151 0.429114 0.120318
C48   C     C_R   0.055081 0.472858 0.444991 0.114309
H1    H     H_    0.121031 0.261780 0.483240 0.227268
H2    H     H_    0.900389 0.698460 0.369789 0.222538
H3    H     H_    0.581333 0.264873 0.602903 0.176596
H4    H     H_    0.375890 0.748805 0.430362 0.233411
H5    H     H_    0.412743 0.155598 0.407529 0.222439
H6    H     H_    0.612156 0.836739 0.569264 0.254132
H7    H     H_    0.216062 0.466227 0.513908 0.180640
H8    H     H_    0.772192 0.522151 0.434474 0.205066
H9    H     H_    0.188773 0.363951 0.460059 0.188843
H10   H     H_    0.833273 0.593733 0.378066 0.151373
H11   H     H_    0.627886 0.361976 0.127079 0.158861
H12   H     H_    0.445317 0.630171 0.886641 0.146080
H13   H     H_    0.413658 0.625516 0.256965 0.196210
H14   H     H_    0.595974 0.364841 0.732534 0.169696
H15   H     H_    0.432197 0.624035 0.118512 0.164429
H16   H     H_    0.618024 0.361887 0.871655 0.162276
N1    N     N_R   0.499980 0.292780 0.499970 -0.160012
N2    N     N_R   0.500020 0.707220 0.500030 -0.178344
O1    O     O_R   0.500000 0.433430 0.610870 -0.656840
O2    O     O_R   0.500000 0.566570 0.389130 -0.641090
O3    O     O_R   0.500010 0.566520 0.610900 -0.544837
O4    O     O_R   0.499990 0.433480 0.389100 -0.506255
O5    O     O_R   0.632240 0.395450 0.499980 -0.602081
O6    O     O_R   0.367760 0.604550 0.500020 -0.607592
O7    O     O_R   0.632250 0.528530 0.500000 -0.546921
O8    O     O_R   0.367750 0.471470 0.500000 -0.583480
Zn1   Zn    Zn3+2 0.500000 0.411140 0.499980 1.030862
Zn2   Zn    Zn3+2 0.500000 0.588860 0.500020 1.012728
S1    S     S_3+6 0.603657 0.092977 0.644521 0.049858
O9    O     O_2   0.686469 0.018892 0.614813 -0.214833
O10   O     O_2   0.638631 0.143422 0.701784 -0.309369
O11   O     O_3   0.531320 0.054401 0.687352 -0.522907
H17   H     H_    0.475563 0.105691 0.701008 0.349302
S2    S     S_3+6 0.317533 0.932701 0.416745 0.041876
O12   O     O_2   0.266328 0.889504 0.366198 -0.238299
O13   O     O_2   0.252291 0.985672 0.476988 -0.274083
O14   O     O_3   0.352322 0.996865 0.363774 -0.553638
H18   H     H_    0.293567 0.045907 0.350592 0.398114
S3    S     S_3+6 0.395124 0.316543 0.360480 0.052677
O15   O     O_2   0.337696 0.409584 0.373437 -0.266109
O16   O     O_2   0.469141 0.307763 0.303216 -0.259404
O17   O     O_3   0.321098 0.271795 0.322411 -0.562029
H19   H     H_    0.357388 0.230652 0.282802 0.376207
S4    S     S_3+6 0.664324 0.665021 0.595738 0.016308
O18   O     O_2   0.648319 0.593924 0.634912 -0.316519
O19   O     O_2   0.746776 0.628229 0.544217 -0.319681
O20   O     O_3   0.692666 0.724486 0.664017 -0.573257
H20   H     H_    0.753425 0.685794 0.686935 0.394884
O21   O     O_3   0.206235 0.731155 0.457495 -0.565955
C49   C     C_3   0.203193 0.765308 0.532896 0.117408
H21   H     H_    0.265853 0.783086 0.541896 0.168763
H22   H     H_    0.207975 0.718635 0.578475 0.107999
C50   C     C_3   0.114539 0.846310 0.542726 -0.288199
H23   H     H_    0.109001 0.891659 0.496212 0.296927
H24   H     H_    0.051120 0.828932 0.539605 0.241126
C51   C     C_3   0.117230 0.891013 0.619355 -0.892743
H25   H     H_    0.124420 0.846799 0.667193 0.260985
H26   H     H_    0.050709 0.947707 0.625781 0.288905
H27   H     H_    0.177386 0.913073 0.622150 0.281457
O22   O     O_3   0.797436 0.275594 0.549010 -0.559360
C52   C     C_3   0.778015 0.302812 0.626123 0.123566
H28   H     H_    0.721466 0.281657 0.644182 0.172326
H29   H     H_    0.750523 0.373801 0.634146 0.110725
C53   C     C_3   0.864858 0.261341 0.678645 -0.292877
H30   H     H_    0.892164 0.190637 0.670205 0.283008
H31   H     H_    0.921001 0.285042 0.664330 0.230983
C54   C     C_3   0.840544 0.282824 0.762458 -0.925292
H32   H     H_    0.813602 0.353294 0.772378 0.269493
H33   H     H_    0.904825 0.252736 0.799163 0.282025
H34   H     H_    0.786062 0.257972 0.778930 0.276987
S5    S     S_3+6 0.000310 0.181802 0.507949 0.029640
O23   O     O_2   0.059315 0.147706 0.438791 -0.270430
O24   O     O_2   0.064315 0.169827 0.577581 -0.323013
O25   O     O_3   0.930608 0.125633 0.517825 -0.477226
H35   H     H_    0.974549 0.065080 0.521034 0.386947
S6    S     S_3+6 0.021363 0.782570 0.368207 0.040330
O26   O     O_2   0.987910 0.763285 0.290553 -0.280088
O27   O     O_2   0.937584 0.838667 0.412557 -0.315195
O28   O     O_3   0.093867 0.835467 0.355981 -0.456160
H36   H     H_    0.052552 0.892165 0.336177 0.398307
O29   O     O_3   0.626849 0.347855 0.275912 -0.589319
C55   C     C_3   0.712030 0.354211 0.304397 0.086032
H37   H     H_    0.731387 0.318268 0.358666 0.204371
H38   H     H_    0.705326 0.421306 0.318763 0.081567
C56   C     C_3   0.791628 0.312901 0.248113 -0.384910
H39   H     H_    0.795576 0.247126 0.232720 0.261161
H40   H     H_    0.776861 0.351125 0.195184 0.211946
C57   C     C_3   0.886810 0.307959 0.282348 -0.836045
H41   H     H_    0.884890 0.373194 0.297098 0.256888
H42   H     H_    0.942692 0.278192 0.240085 0.278624
H43   H     H_    0.904775 0.268146 0.334374 0.284369
O30   O     O_3   0.408622 0.650520 0.736468 -0.651574
C58   C     C_3   0.441126 0.718266 0.749432 0.118211
H44   H     H_    0.518245 0.697038 0.739091 0.193881
H45   H     H_    0.426858 0.743621 0.808954 0.138435
C59   C     C_3   0.387827 0.790477 0.694481 -0.366982
H46   H     H_    0.400719 0.766037 0.634747 0.223188
H47   H     H_    0.310850 0.812256 0.704184 0.230379
C60   C     C_3   0.418828 0.866472 0.705552 -0.848109
H48   H     H_    0.401995 0.894610 0.763883 0.270613
H49   H     H_    0.380905 0.916333 0.663026 0.273305
H50   H     H_    0.495960 0.846014 0.697352 0.299341

loop_
_geom_bond_atom_site_label_1
_geom_bond_atom_site_label_2
_ccdc_geom_bond_type
O5    Zn1   S    
S3    O15   D    
C42   C44   A    
C50   H23   S    
C37   C45   A    
C27   C29   A    
C36   C42   A    
O20   H20   S    
O6    Zn2   S    
C53   H31   S    
O21   C49   S    
S1    O9    D    
C21   C31   A    
C24   C36   S    
C22   C32   A    
C22   S2    S    
C60   H49   S    
C2    O2    A    
C52   H29   S    
S5    O25   S    
C54   H32   S    
C14   H14   S    
C3    C48   A    
O22   C52   S    
O3    Zn2   S    
C15   C17   A    
C28   N2    A    
C51   H25   S    
C1    O1    A    
C58   H44   S    
C60   H48   S    
C7    C17   A    
C56   C57   S    
C31   C33   S    
C55   H38   S    
C9    C11   A    
S1    O10   D    
C50   H24   S    
C38   C40   A    
C41   C43   A    
C5    H1    S    
C1    C12   S    
C10   O30   S    
C23   O7    A    
C57   H43   S    
C2    C11   S    
C7    H11   S    
C53   H30   S    
C44   C46   A    
S5    O24   D    
C39   O22   S    
O8    Zn1   S    
C26   N2    A    
C59   C60   S    
C23   O5    A    
C36   C40   A    
C60   H50   S    
C25   N1    A    
O30   C58   S    
C59   H47   S    
C52   C53   S    
C40   O21   S    
O11   H17   S    
C54   H33   S    
O14   H18   S    
C5    C45   A    
S4    O20   S    
C1    O3    A    
C32   C34   S    
C35   C39   A    
C25   H3    S    
C41   H8    S    
C27   N1    A    
C26   H4    S    
C42   H7    S    
C30   H6    S    
C47   C48   A    
C37   S5    S    
C29   C31   A    
C54   H34   S    
N2    Zn2   S    
S4    O19   D    
C33   C34   T    
C28   S4    S    
C6    H2    S    
C27   S3    S    
C43   C45   A    
C10   C12   A    
S6    O28   S    
C3    H9    S    
C4    C6    A    
C12   C14   A    
S2    O12   D    
C50   C51   S    
S2    O13   D    
C13   C15   A    
C56   H39   S    
O7    Zn2   S    
C14   C16   A    
C58   C59   S    
C55   C56   S    
O1    Zn1   S    
C21   S1    S    
O28   H36   S    
C49   C50   S    
C24   O6    A    
C57   H42   S    
S6    O27   D    
O29   C55   S    
S1    O11   S    
C7    C9    A    
C21   C25   A    
C6    C46   A    
C8    C10   A    
C59   H46   S    
C3    C5    A    
S5    O23   D    
C51   H26   S    
C9    O29   S    
O2    Zn2   S    
S2    O14   S    
C23   C35   S    
N1    Zn1   S    
C19   C20   T    
C58   H45   S    
C55   H37   S    
C37   C39   A    
C52   H28   S    
C8    H12   S    
C30   C32   A    
C11   C13   A    
C24   O8    A    
O17   H19   S    
C29   H5    S    
C28   C30   A    
S4    O18   D    
C17   C19   S    
C18   C20   S    
C51   H27   S    
C35   C41   A    
C49   H22   S    
C8    C18   A    
C38   C46   A    
C13   H13   S    
C16   C18   A    
C49   H21   S    
C22   C26   A    
S3    O17   S    
C4    H10   S    
O4    Zn1   S    
C56   H40   S    
S3    O16   D    
C15   H15   S    
C57   H41   S    
C16   H16   S    
O25   H35   S    
C2    O4    A    
C43   C47   A    
C53   C54   S    
C38   S6    S    
C44   C48   A    
S6    O26   D    
C4    C47   A    
