data_mof_unit_1461.cif
_audit_creation_date              2012-12-11T15:57:46-0500
_audit_creation_method            fapswitch 2.2
_symmetry_space_group_name_H-M    P1
_symmetry_Int_Tables_number       1
_space_group_crystal_system       triclinic
_cell_length_a                    10.724446
_cell_length_b                    10.763619
_cell_length_c                    17.023503
_cell_angle_alpha                 99.520372
_cell_angle_beta                  99.753421
_cell_angle_gamma                 61.39649
_cell_volume                      1692.23170854

loop_
_atom_site_label
_atom_site_type_symbol
_atom_type_description
_atom_site_fract_x
_atom_site_fract_y
_atom_site_fract_z
_atom_type_partial_charge
C1    C     C_R   0.354417 0.776004 0.402036 0.560062
C2    C     C_2   0.845338 0.320531 0.163482 -0.117754
C3    C     C_2   0.905619 0.205146 0.204513 -0.138066
C4    C     C_2   0.868680 0.211340 0.284270 -0.026544
C5    C     C_2   0.328796 0.854796 0.334808 -0.116956
C6    C     C_2   0.348769 0.818871 0.155880 0.097846
C7    C     C_2   0.413103 0.872399 0.216766 -0.157137
C8    C     C_2   0.439024 0.832180 0.297463 -0.166733
C9    C     C_2   0.327834 0.321124 0.652478 -0.096493
C10   C     C_2   0.327471 0.344739 0.826819 -0.123698
C11   C     C_2   0.440203 0.257025 0.787487 -0.137378
C12   C     C_R   0.369526 0.346628 0.357156 0.550516
C13   C     C_2   0.427252 0.222152 0.700360 0.000084
C14   C     C_1   0.816636 0.342362 0.708842 -0.037929
C15   C     C_1   0.843421 0.313941 0.776514 -0.038407
C16   C     C_1   0.358636 0.763140 0.713723 -0.055158
C17   C     C_1   0.325765 0.810680 0.780518 -0.047234
C18   C     C_R   0.896908 0.306494 0.087715 0.549213
C19   C     C_R   0.319164 0.299572 0.119712 0.553694
C20   C     C_R   0.294971 0.890019 0.083245 0.593127
C21   C     C_R   0.885233 0.297189 0.858703 0.549154
C22   C     C_R   0.308301 0.295749 0.895634 0.556991
C23   C     C_R   0.777381 0.376161 0.405199 0.548592
C24   C     C_R   0.280327 0.881049 0.857145 0.553190
C25   C     C_R   0.381479 0.713965 0.631479 0.558483
C26   C     C_R   0.367833 0.345047 0.581222 0.539933
C27   C     C_R   0.772892 0.381167 0.629747 0.545515
C28   C     C_1   0.343071 0.336644 0.273800 -0.045601
C29   C     C_1   0.331958 0.326504 0.202946 -0.038758
C30   C     C_2   0.857896 0.325227 0.335907 -0.110339
Cr1   Cr    Cr6+3 0.608020 0.610770 0.522990 1.007257
Cr2   Cr    Cr6+3 0.289390 0.599570 0.488050 1.023874
Cr3   Cr    Cr6+3 0.602610 0.289690 0.489020 0.999016
Cr4   Cr    Cr6+3 0.053780 0.052210 0.965970 1.029189
Cr5   Cr    Cr6+3 0.060060 0.372530 0.992430 1.040541
Cr6   Cr    Cr6+3 0.372600 0.061970 0.991430 1.020215
H1    H     H_    0.983576 0.103191 0.178891 0.161766
H2    H     H_    0.231348 0.426640 0.798776 0.105324
H3    H     H_    0.237805 0.413970 0.676162 0.089947
H4    H     H_    0.770130 0.424432 0.188738 0.098297
H5    H     H_    0.893439 0.396412 0.320265 0.100603
H6    H     H_    0.437695 0.956202 0.208827 0.144090
H7    H     H_    0.549054 0.774363 0.322909 0.158558
H8    H     H_    0.219774 0.913212 0.307923 0.104586
H9    H     H_    0.536699 0.184470 0.820944 0.155749
O1    O     O_R   0.749250 0.499990 0.439200 -0.515053
O2    O     O_R   0.299400 0.468710 0.556310 -0.509563
O3    O     O_R   0.489240 0.256450 0.560730 -0.521363
O4    O     O_R   0.723350 0.306730 0.584410 -0.499769
O5    O     O_3   0.500010 0.500010 0.500020 -0.263513
O6    O     O_R   0.170650 0.915100 0.051290 -0.500480
O7    O     O_R   0.941960 0.184500 0.049060 -0.503616
O8    O     O_R   0.922640 0.402670 0.071640 -0.506837
O9    O     O_R   0.196880 0.368740 0.083740 -0.490330
O10   O     O_R   0.411120 0.181190 0.091480 -0.520237
O11   O     O_R   0.364220 0.944920 0.062310 -0.519056
O12   O     O_R   0.477870 0.725740 0.440280 -0.492717
O13   O     O_R   0.158740 0.906940 0.874970 -0.503366
O14   O     O_R   0.930920 0.176940 0.885610 -0.496649
O15   O     O_R   0.910730 0.394510 0.895320 -0.508396
O16   O     O_R   0.185840 0.361180 0.920280 -0.493051
O17   O     O_R   0.399210 0.173040 0.915160 -0.514227
O18   O     O_R   0.353170 0.937370 0.898860 -0.496709
O19   O     O_3   0.162150 0.162240 0.983280 -0.259522
O20   O     O_R   0.260770 0.742210 0.412610 -0.512021
O21   O     O_R   0.297990 0.466320 0.394220 -0.493625
O22   O     O_R   0.487720 0.253870 0.385870 -0.526628
O23   O     O_R   0.721940 0.304340 0.422320 -0.507487
O24   O     O_R   0.750770 0.502570 0.614050 -0.516540
O25   O     O_R   0.479280 0.728140 0.602370 -0.508770
O26   O     O_R   0.262290 0.744790 0.587460 -0.501452
C31   C     C_3   0.538548 0.076628 0.667553 -0.247204
C32   C     C_3   0.558012 0.955552 0.712334 -0.419771
H10   H     H_    0.613984 0.957361 0.773234 0.145752
H11   H     H_    0.452559 0.963228 0.716810 0.179686
H12   H     H_    0.624916 0.852151 0.679507 0.168817
H13   H     H_    0.505436 0.051210 0.604027 0.176698
H14   H     H_    0.642941 0.076889 0.671442 0.163555
C33   C     C_3   0.837271 0.096048 0.303665 -0.239773
C34   C     C_3   0.881284 0.963933 0.243178 -0.444308
H15   H     H_    0.822891 0.992600 0.183147 0.167382
H16   H     H_    0.998086 0.911259 0.239298 0.146747
H17   H     H_    0.854429 0.887083 0.262943 0.144321
H18   H     H_    0.894654 0.060084 0.362903 0.162240
H19   H     H_    0.720652 0.141177 0.306192 0.194508
N1    N     N_3   0.321074 0.702820 0.162235 -0.623371
H20   H     H_    0.416111 0.618089 0.183324 0.232728
H21   H     H_    0.245792 0.734412 0.202625 0.231745

loop_
_geom_bond_atom_site_label_1
_geom_bond_atom_site_label_2
_ccdc_geom_bond_type
Cr5   O8    S    
C32   H10   S    
C8    H7    S    
C20   O11   A    
C18   O7    A    
C7    C8    S    
C10   C22   S    
Cr4   O6    S    
C12   C28   S    
C1    C5    S    
C28   C29   T    
C21   O14   A    
C20   O6    A    
C33   H18   S    
N1    H21   S    
C2    C18   S    
Cr3   O4    S    
C9    H3    S    
C7    H6    S    
C9    C13   D    
C31   H14   S    
C18   O8    A    
Cr1   O25   S    
C16   C17   T    
Cr1   O1    S    
C1    O20   A    
C30   H5    S    
Cr5   O19   S    
C25   O26   A    
C14   C27   S    
Cr6   O18   S    
C27   O24   A    
C26   O3    A    
C23   O1    A    
Cr5   O9    S    
C32   H11   S    
C34   H17   S    
Cr6   O17   S    
C9    C26   S    
Cr2   O26   S    
C12   O22   A    
C17   C24   S    
C23   C30   S    
C21   O15   A    
C34   H16   S    
N1    H20   S    
C31   C32   S    
Cr3   O5    S    
C12   O21   A    
Cr5   O15   S    
C23   O23   A    
C31   H13   S    
Cr6   O11   S    
C1    O12   A    
C22   O17   A    
C15   C21   S    
Cr4   O19   S    
Cr5   O16   S    
Cr2   O5    S    
C26   O2    A    
C4    C33   S    
C19   O9    A    
C5    H8    S    
C24   O18   A    
Cr4   O14   S    
Cr2   O2    S    
C11   H9    S    
Cr1   O5    S    
C3    C4    S    
C19   C29   S    
C33   H19   S    
Cr3   O22   S    
Cr2   O21   S    
C19   O10   A    
C16   C25   S    
C34   H15   S    
C5    C8    D    
C6    C7    D    
C13   C31   S    
C6    C20   S    
Cr4   O7    S    
C6    N1    S    
C10   H2    S    
Cr1   O12   S    
C2    C3    D    
Cr6   O10   S    
C22   O16   A    
C11   C13   S    
C32   H12   S    
C10   C11   D    
C33   C34   S    
C2    H4    S    
Cr1   O24   S    
C3    H1    S    
C24   O13   A    
Cr4   O13   S    
Cr3   O3    S    
C14   C15   T    
C25   O25   A    
Cr6   O19   S    
C4    C30   D    
C27   O4    A    
Cr3   O23   S    
Cr2   O20   S    
