data_mof_unit_2731.cif
_audit_creation_date              2012-12-11T16:56:08-0500
_audit_creation_method            fapswitch 2.2
_symmetry_space_group_name_H-M    P1
_symmetry_Int_Tables_number       1
_space_group_crystal_system       triclinic
_cell_length_a                    6.965273
_cell_length_b                    14.512654
_cell_length_c                    16.20558
_cell_angle_alpha                 90.431163
_cell_angle_beta                  89.775768
_cell_angle_gamma                 90.079336
_cell_volume                      1638.07409291

loop_
_atom_site_label
_atom_site_type_symbol
_atom_type_description
_atom_site_fract_x
_atom_site_fract_y
_atom_site_fract_z
_atom_type_partial_charge
O1    O     O_R   0.505830 0.583360 0.413880 -0.550757
O2    O     O_R   0.175830 0.595460 0.585520 -0.536457
O3    O     O_R   0.005520 0.416640 0.586120 -0.553489
C1    C     C_R   0.344662 0.616856 0.614842 0.728488
O4    O     O_R   0.176120 0.594390 0.414490 -0.533493
O5    O     O_R   0.005810 0.415570 0.413870 -0.533700
C2    C     C_R   0.344850 0.614457 0.384646 0.711730
O6    O     O_R   0.505540 0.584430 0.586130 -0.537309
O7    O     O_3   0.339200 0.441330 0.500000 -0.353290
V1    V     V_3+5 0.064350 0.510880 0.500000 1.490878
O8    O     O_R   0.676100 0.404540 0.414480 -0.526571
C3    C     C_R   0.845374 0.380900 0.387282 0.696896
O9    O     O_R   0.675810 0.405610 0.585510 -0.504313
C4    C     C_R   0.844047 0.383805 0.613935 0.752980
V2    V     V_3+5 0.564340 0.489120 0.500000 1.521295
O10   O     O_3   0.839360 0.558670 0.500000 -0.382763
C5    C     C_2   0.720557 0.209234 0.787899 -0.226582
C6    C     C_2   0.885739 0.183969 0.824401 -0.327618
C7    C     C_2   0.702364 0.281896 0.722878 0.400952
C8    C     C_2   0.856076 0.313848 0.680048 -0.292820
C9    C     C_R   0.760088 0.258543 0.183658 -0.084389
C10   C     C_R   0.883372 0.182811 0.185061 -0.176424
C11   C     C_R   0.008862 0.176361 0.252788 -0.063253
C12   C     C_R   0.994887 0.237385 0.321175 0.401964
C13   C     C_R   0.858431 0.310967 0.320427 -0.178077
C14   C     C_R   0.749643 0.321139 0.248578 -0.124661
C15   C     C_3   0.541176 0.341480 0.233078 0.201253
C16   C     C_3   0.552485 0.271343 0.161648 0.620276
H1    H     H_    0.517064 0.413713 0.213263 0.123190
C17   C     C_R   0.513939 0.743586 0.693388 -0.106846
C18   C     C_R   0.354814 0.685277 0.683397 -0.060928
C19   C     C_R   0.209240 0.690684 0.743595 -0.070307
H2    H     H_    0.091124 0.642900 0.741511 0.159351
C20   C     C_R   0.222713 0.752402 0.810901 -0.062557
C21   C     C_R   0.381687 0.810927 0.820451 -0.067497
C22   C     C_R   0.527233 0.804845 0.760836 -0.125095
C23   C     C_3   0.734977 0.782015 0.773927 0.595039
C24   C     C_3   0.721625 0.717011 0.699644 0.598424
C25   C     C_R   0.486058 0.753666 0.317208 -0.061402
C26   C     C_R   0.352752 0.681133 0.315578 -0.224833
C27   C     C_R   0.219984 0.678847 0.248503 0.357185
C28   C     C_R   0.232198 0.745581 0.185571 -0.125840
C29   C     C_R   0.376795 0.813343 0.185198 -0.228795
C30   C     C_R   0.497963 0.817763 0.253665 0.036489
C31   C     C_3   0.712182 0.821518 0.258967 0.648144
C32   C     C_3   0.699062 0.752103 0.329621 0.111159
H3    H     H_    0.766974 0.684027 0.316783 0.110072
O11   O     O_R   0.229930 0.912420 0.917160 -0.538583
O12   O     O_R   0.559420 0.902500 0.088780 -0.517093
O13   O     O_R   0.729660 0.081330 0.089380 -0.534212
C33   C     C_R   0.390217 0.880613 0.117147 0.752750
O14   O     O_R   0.559650 0.901420 0.917750 -0.546973
O15   O     O_R   0.729880 0.080250 0.917130 -0.545327
C34   C     C_R   0.391197 0.878403 0.889717 0.684107
O16   O     O_R   0.229700 0.913500 0.089410 -0.538849
O17   O     O_3   0.396250 0.055540 0.003280 -0.366186
V3    V     V_3+5 0.671130 0.986010 0.003260 1.497947
O18   O     O_R   0.059600 0.091310 0.917720 -0.545304
C35   C     C_R   0.891262 0.113531 0.889839 0.767430
O19   O     O_R   0.059370 0.092380 0.088750 -0.522962
C36   C     C_R   0.890527 0.114357 0.117242 0.747453
V4    V     V_3+5 0.171120 0.007820 0.003230 1.502147
O20   O     O_3   0.896130 0.938240 0.003240 -0.370398
H4    H     H_    0.588186 0.176507 0.807952 0.140697
O21   O     O_3   0.434599 0.192950 0.171040 -0.620093
H5    H     H_    0.486069 0.154741 0.216401 0.271845
H6    H     H_    0.114167 0.751263 0.858338 0.153235
O22   O     O_3   0.765057 0.734446 0.848064 -0.628502
H7    H     H_    0.795012 0.780931 0.891188 0.308448
O23   O     O_3   0.862013 0.857035 0.763703 -0.654010
H8    H     H_    0.805778 0.900574 0.723517 0.265465
O24   O     O_3   0.744754 0.623828 0.721244 -0.626394
H9    H     H_    0.803300 0.591113 0.673494 0.310989
O25   O     O_3   0.835538 0.743094 0.631281 -0.650741
H10   H     H_    0.780579 0.799750 0.606897 0.275884
O26   O     O_3   0.084709 0.610087 0.238457 -0.649263
H11   H     H_    0.123104 0.555503 0.270566 0.291120
H12   H     H_    0.135726 0.740385 0.133508 0.176571
O27   O     O_3   0.777530 0.909242 0.282583 -0.612911
H13   H     H_    0.918501 0.903634 0.289648 0.316008
H14   H     H_    0.020870 0.216130 0.807994 0.130478
O28   O     O_3   0.805266 0.788434 0.187419 -0.653190
H15   H     H_    0.752674 0.726518 0.173809 0.268868
O29   O     O_3   0.749762 0.790733 0.406052 -0.611708
H16   H     H_    0.732167 0.741112 0.447167 0.315956
O30   O     O_3   0.522037 0.316218 0.704986 -0.626498
H17   H     H_    0.426378 0.287475 0.742243 0.277373
H18   H     H_    0.998559 0.287700 0.692399 0.093802
H19   H     H_    0.110027 0.119810 0.255385 0.144835
O31   O     O_3   0.108980 0.218610 0.388467 -0.632237
H20   H     H_    0.056865 0.250400 0.437855 0.284305
O32   O     O_3   0.417057 0.315454 0.297695 -0.612140
H21   H     H_    0.469293 0.259818 0.324862 0.315335
O33   O     O_3   0.529031 0.312674 0.084469 -0.634246
H22   H     H_    0.562534 0.264906 0.042700 0.299075

loop_
_geom_bond_atom_site_label_1
_geom_bond_atom_site_label_2
_ccdc_geom_bond_type
O18   V4    S    
C9    C14   A    
C23   O22   S    
C15   H1    S    
C27   C28   A    
C31   O28   S    
C1    O6    A    
C7    O30   S    
O15   C35   A    
C31   C32   S    
O11   C34   A    
C14   C15   S    
C23   C24   S    
O19   V4    S    
C22   C23   S    
C5    H4    S    
O5    C3    A    
C17   C18   A    
V2    O10   S    
O16   V4    S    
C6    H14   S    
O12   V3    S    
O17   V3    S    
C17   C24   S    
C16   O33   S    
C20   C21   A    
O8    V2    S    
C7    C8    D    
O22   H7    S    
O12   C33   A    
C11   C12   A    
C11   H19   S    
O23   H8    S    
O1    V2    S    
O9    C4    A    
O7    V1    S    
C23   O23   S    
C21   C34   S    
O14   C34   A    
V3    O20   S    
O26   H11   S    
C24   O24   S    
O25   H10   S    
C4    C8    S    
C12   C13   A    
C25   C26   A    
O4    C2    A    
O15   V3    S    
O30   H17   S    
O18   C35   A    
O19   C36   A    
C21   C22   A    
C19   C20   A    
O2    C1    A    
C29   C30   A    
V4    O20   S    
O11   V4    S    
C18   C19   A    
C2    C26   S    
C5    C6    D    
C15   O32   S    
C31   O27   S    
O29   H16   S    
O3    C4    A    
C25   C32   S    
C32   O29   S    
C26   C27   A    
C9    C16   S    
C28   H12   S    
O6    V2    S    
O9    V2    S    
O17   V4    S    
C28   C29   A    
O2    V1    S    
C30   C31   S    
C24   O25   S    
C32   H3    S    
O1    C2    A    
O13   V3    S    
O24   H9    S    
C12   O31   S    
C20   H6    S    
O5    V1    S    
O8    C3    A    
C25   C30   A    
C17   C22   A    
C3    C13   S    
C19   H2    S    
C16   O21   S    
C13   C14   A    
O4    V1    S    
O3    V1    S    
V1    O10   S    
C27   O26   S    
C29   C33   S    
O31   H20   S    
C8    H18   S    
O32   H21   S    
C5    C7    S    
C33   O16   A    
O21   H5    S    
O7    V2    S    
O33   H22   S    
C1    C18   S    
O14   V3    S    
O27   H13   S    
C6    C35   S    
O28   H15   S    
C15   C16   S    
O13   C36   A    
C10   C11   A    
C9    C10   A    
C10   C36   S    
