data_mof_unit_3295.cif
_audit_creation_date              2012-12-11T14:08:20-0500
_audit_creation_method            fapswitch 2.2
_symmetry_space_group_name_H-M    P1
_symmetry_Int_Tables_number       1
_space_group_crystal_system       triclinic
_cell_length_a                    28.018137
_cell_length_b                    7.246076
_cell_length_c                    17.171799
_cell_angle_alpha                 89.998615
_cell_angle_beta                  101.048489
_cell_angle_gamma                 90.003118
_cell_volume                      3421.62891557

loop_
_atom_site_label
_atom_site_type_symbol
_atom_type_description
_atom_site_fract_x
_atom_site_fract_y
_atom_site_fract_z
_atom_type_partial_charge
O1    O     O_R   0.000700 0.436510 0.857920 -0.531089
O2    O     O_R   0.999300 0.563490 0.142080 -0.532487
O3    O     O_R   0.999300 0.936510 0.642080 -0.531078
O4    O     O_R   0.000700 0.063490 0.357920 -0.532477
O5    O     O_R   0.930080 0.766380 0.721890 -0.539237
O6    O     O_R   0.069920 0.233620 0.278110 -0.544658
O7    O     O_R   0.069920 0.266380 0.778110 -0.539245
O8    O     O_R   0.930080 0.733620 0.221890 -0.544657
C1    C     C_R   0.910672 0.596957 0.712952 0.721998
C2    C     C_R   0.089346 0.402575 0.290068 0.710466
C3    C     C_R   0.089327 0.096973 0.787075 0.722002
C4    C     C_R   0.910656 0.902566 0.209915 0.710475
O9    O     O_R   0.996180 0.766230 0.862310 -0.542320
O10   O     O_R   0.003820 0.233770 0.137690 -0.541574
O11   O     O_R   0.003820 0.266230 0.637690 -0.542307
O12   O     O_R   0.996180 0.733770 0.362310 -0.541567
O13   O     O_R   0.065870 0.936460 0.783500 -0.539369
O14   O     O_R   0.934130 0.063540 0.216500 -0.532458
O15   O     O_R   0.934130 0.436460 0.716500 -0.539372
O16   O     O_R   0.065870 0.563540 0.283500 -0.532455
C5    C     C_R   0.998587 0.596488 0.894401 0.750089
C6    C     C_R   0.001484 0.403531 0.105622 0.749144
C7    C     C_R   0.001414 0.096490 0.605598 0.750106
C8    C     C_R   0.998517 0.903530 0.394378 0.749170
O17   O     O_3   0.022790 0.603020 0.723980 -0.382345
O18   O     O_3   0.977210 0.396980 0.276020 -0.379668
O19   O     O_3   0.977210 0.103020 0.776020 -0.382370
O20   O     O_3   0.022790 0.896980 0.223980 -0.379679
V1    V     V_3+5 0.995770 0.877900 0.754830 1.393141
V2    V     V_3+5 0.004230 0.122100 0.245170 1.370238
V3    V     V_3+5 0.004230 0.377900 0.745170 1.393146
V4    V     V_3+5 0.995770 0.622100 0.254830 1.370249
C9    C     C_2   0.001626 0.082259 0.519488 -0.342139
C10   C     C_2   0.998420 0.917739 0.480526 -0.342348
C11   C     C_2   0.998376 0.582258 0.980511 -0.342157
C12   C     C_2   0.001581 0.417741 0.019475 -0.342380
H1    H     H_    0.004265 0.210100 0.487566 0.156849
H2    H     H_    0.995849 0.789890 0.512479 0.156449
H3    H     H_    0.995737 0.710097 0.012431 0.156851
H4    H     H_    0.004152 0.289893 0.987525 0.156451
C13   C     C_R   0.686124 0.970092 0.015365 0.553611
C14   C     C_R   0.315869 0.992678 0.947369 0.557776
C15   C     C_R   0.313868 0.470026 0.484501 0.553392
C16   C     C_R   0.684134 0.492163 0.552847 0.557723
O21   O     O_2   0.717514 0.002922 0.966379 -0.524409
O22   O     O_2   0.284889 0.957832 0.996885 -0.533195
O23   O     O_2   0.282454 0.502589 0.533471 -0.524713
O24   O     O_2   0.715121 0.457315 0.503344 -0.533164
N1    N     N_R   0.703513 0.929017 0.093327 -0.553175
N2    N     N_R   0.298051 0.045341 0.870862 -0.541382
N3    N     N_R   0.296509 0.429143 0.406509 -0.553018
N4    N     N_R   0.701944 0.544841 0.629355 -0.541466
C17   C     C_R   0.672418 0.893671 0.144050 0.621232
C18   C     C_R   0.328765 0.077884 0.819063 0.642310
C19   C     C_R   0.327632 0.394096 0.355800 0.620996
C20   C     C_R   0.671222 0.577276 0.681155 0.642609
C21   C     C_R   0.777497 0.062232 0.177929 0.285340
C22   C     C_R   0.220231 0.940914 0.787919 0.298589
C23   C     C_R   0.222506 0.562283 0.321920 0.285406
C24   C     C_R   0.779798 0.440664 0.712274 0.298592
C25   C     C_R   0.828289 0.055380 0.208262 0.214671
C26   C     C_R   0.169003 0.953484 0.766261 0.180764
C27   C     C_R   0.171707 0.555420 0.291638 0.214631
C28   C     C_R   0.831028 0.453366 0.733885 0.180757
C29   C     C_R   0.833862 0.779486 0.129447 -0.275655
C30   C     C_R   0.169881 0.209146 0.858553 -0.256589
C31   C     C_R   0.166167 0.279466 0.370436 -0.275597
C32   C     C_R   0.830082 0.709007 0.641561 -0.256562
C33   C     C_R   0.783899 0.786502 0.099973 -0.130454
C34   C     C_R   0.220493 0.197861 0.878745 -0.170827
C35   C     C_R   0.216137 0.286469 0.399847 -0.130574
C36   C     C_R   0.779469 0.697607 0.621423 -0.170844
C37   C     C_R   0.755408 0.927084 0.123303 0.273860
C38   C     C_R   0.245997 0.063024 0.844770 0.301875
C39   C     C_R   0.244616 0.427094 0.376508 0.273866
C40   C     C_R   0.753997 0.562702 0.655432 0.301795
C41   C     C_R   0.602891 0.952526 0.037825 -0.112457
C42   C     C_R   0.398633 0.003990 0.922790 -0.106569
C43   C     C_R   0.397120 0.452703 0.462132 -0.112688
C44   C     C_R   0.601363 0.503570 0.577382 -0.106712
C45   C     C_R   0.635699 0.979294 0.985958 -0.050550
C46   C     C_R   0.366149 0.973405 0.974781 -0.000318
C47   C     C_R   0.364287 0.479312 0.513961 -0.050496
C48   C     C_R   0.633857 0.472896 0.525414 -0.000263
C49   C     C_R   0.617634 0.014215 0.905567 -0.122609
C50   C     C_R   0.384312 0.923938 0.053279 -0.167784
C51   C     C_R   0.382325 0.514177 0.594370 -0.123563
C52   C     C_R   0.615705 0.423329 0.446921 -0.167765
C53   C     C_R   0.621434 0.913897 0.118711 -0.112586
C54   C     C_R   0.379750 0.053472 0.843304 -0.136437
C55   C     C_R   0.378609 0.414346 0.381211 -0.112289
C56   C     C_R   0.620235 0.552951 0.656885 -0.136365
C57   C     C_R   0.856843 0.912138 0.183570 -0.154667
C58   C     C_R   0.143318 0.085437 0.803962 -0.125972
C59   C     C_R   0.143164 0.412159 0.316356 -0.154677
C60   C     C_R   0.856679 0.585357 0.696135 -0.125965
H5    H     H_    0.854868 0.670734 0.108780 0.146875
H6    H     H_    0.151272 0.312665 0.887144 0.151105
H7    H     H_    0.145172 0.170695 0.391122 0.146884
H8    H     H_    0.848664 0.812559 0.612936 0.151113
H9    H     H_    0.767149 0.681721 0.058626 0.152072
H10   H     H_    0.240045 0.292928 0.922111 0.153881
H11   H     H_    0.232900 0.181669 0.441171 0.152076
H12   H     H_    0.759889 0.792621 0.578062 0.153870
H13   H     H_    0.642061 0.032609 0.864310 0.183532
H14   H     H_    0.360120 0.896890 0.094218 0.169256
H15   H     H_    0.357879 0.532546 0.635596 0.183645
H16   H     H_    0.639903 0.396098 0.406010 0.169147
C61   C     C_R   0.482446 0.016953 0.898180 -0.018347
C62   C     C_R   0.519219 0.940733 0.061382 -0.010991
C63   C     C_R   0.517534 0.516770 0.601916 -0.018385
C64   C     C_R   0.480807 0.440924 0.438679 -0.011172
C65   C     C_R   0.468028 0.945821 0.032043 0.080682
C66   C     C_R   0.533684 0.001662 0.926723 0.049133
C67   C     C_R   0.531988 0.445674 0.468079 0.080610
C68   C     C_R   0.466295 0.501612 0.573318 0.049752
C69   C     C_R   0.449884 0.987443 0.950870 0.058688
C70   C     C_R   0.551748 0.964304 0.008517 0.050218
C71   C     C_R   0.550113 0.487195 0.549262 0.058759
C72   C     C_R   0.448257 0.464397 0.491507 0.050319
C73   C     C_R   0.462459 0.063808 0.818666 -0.270752
C74   C     C_R   0.538901 0.919967 0.142971 -0.310959
C75   C     C_R   0.537507 0.563500 0.681449 -0.271052
C76   C     C_R   0.461162 0.420697 0.357059 -0.310939
C77   C     C_R   0.412291 0.078257 0.790885 0.424648
C78   C     C_R   0.589218 0.901042 0.172509 0.457936
C79   C     C_R   0.587681 0.577736 0.709287 0.424918
C80   C     C_R   0.410854 0.401828 0.327451 0.457961
O25   O     O_2   0.309946 0.134949 0.744769 -0.498542
O26   O     O_2   0.690998 0.837011 0.218522 -0.495171
O27   O     O_2   0.690035 0.634166 0.755478 -0.498228
O28   O     O_2   0.309090 0.337681 0.281278 -0.495270
C81   C     C_R   0.567854 0.023240 0.876358 -0.178746
C82   C     C_R   0.433972 0.911826 0.081501 -0.215237
C83   C     C_R   0.432100 0.523201 0.623633 -0.177960
C84   C     C_R   0.566046 0.411333 0.418669 -0.215180
H17   H     H_    0.484719 0.095807 0.775904 0.133662
H18   H     H_    0.515514 0.927770 0.185161 0.123708
H19   H     H_    0.515231 0.595572 0.724178 0.133582
H20   H     H_    0.484574 0.428988 0.314909 0.123762
H21   H     H_    0.557620 0.046095 0.813474 0.128516
H22   H     H_    0.444084 0.873551 0.142884 0.118852
H23   H     H_    0.442315 0.546036 0.686521 0.128539
H24   H     H_    0.555920 0.372832 0.357309 0.118866
N5    N     N_2   0.144495 0.833868 0.705777 -0.527580
H25   H     H_    0.117726 0.752459 0.721303 0.285372
C85   C     C_3   0.131416 0.917567 0.628164 -0.514818
H26   H     H_    0.104879 0.030879 0.629023 0.174990
H27   H     H_    0.114741 0.812122 0.584367 0.196260
H28   H     H_    0.164296 0.973427 0.609127 0.207933
N6    N     N_2   0.849461 0.187845 0.266170 -0.519754
H29   H     H_    0.878531 0.141753 0.307782 0.251055
C86   C     C_3   0.856433 0.369896 0.235547 -0.408947
H30   H     H_    0.881329 0.363659 0.192495 0.188322
H31   H     H_    0.872363 0.462582 0.285251 0.185936
H32   H     H_    0.821242 0.429837 0.205789 0.210579
N7    N     N_2   0.855568 0.333853 0.794380 -0.527612
H33   H     H_    0.882347 0.252509 0.778856 0.285402
C87   C     C_3   0.868645 0.417635 0.871976 -0.514891
H34   H     H_    0.895146 0.531066 0.871077 0.175002
H35   H     H_    0.885361 0.312279 0.915784 0.196255
H36   H     H_    0.835757 0.473358 0.891029 0.207948
N8    N     N_2   0.150514 0.687900 0.233754 -0.519777
H37   H     H_    0.121434 0.641804 0.192163 0.251062
C88   C     C_3   0.143550 0.869926 0.264400 -0.409014
H38   H     H_    0.118673 0.863644 0.307480 0.188344
H39   H     H_    0.127603 0.962626 0.214713 0.185948
H40   H     H_    0.178746 0.929879 0.294133 0.210541
N9    N     N_2   0.246121 0.803679 0.753426 -0.493274
H41   H     H_    0.233118 0.780730 0.693887 0.300309
C89   C     C_3   0.254071 0.633902 0.798290 -0.508139
H42   H     H_    0.276624 0.538885 0.769699 0.227846
H43   H     H_    0.218730 0.565920 0.799960 0.203035
H44   H     H_    0.273601 0.661300 0.859809 0.202782
N10   N     N_2   0.748917 0.208688 0.200612 -0.533732
H45   H     H_    0.718712 0.248175 0.159698 0.253147
C90   C     C_3   0.742325 0.211426 0.282309 -0.354548
H46   H     H_    0.703342 0.190145 0.284590 0.200520
H47   H     H_    0.753775 0.347889 0.308771 0.209090
H48   H     H_    0.763923 0.102153 0.318593 0.205552
N11   N     N_2   0.753944 0.303348 0.746797 -0.493030
H49   H     H_    0.766966 0.280444 0.806334 0.300397
C91   C     C_3   0.746019 0.133542 0.701950 -0.507981
H50   H     H_    0.723495 0.038450 0.730566 0.227838
H51   H     H_    0.781371 0.065678 0.700263 0.202967
H52   H     H_    0.726471 0.160874 0.640436 0.202762
N12   N     N_2   0.251069 0.708823 0.299247 -0.533797
H53   H     H_    0.281281 0.748303 0.340146 0.253188
C92   C     C_3   0.257623 0.711742 0.217532 -0.354463
H54   H     H_    0.296604 0.690620 0.215200 0.200677
H55   H     H_    0.246135 0.848211 0.191115 0.209043
H56   H     H_    0.236034 0.602453 0.181241 0.205523
O29   O     O_3   0.396032 0.138637 0.714150 -0.549541
C93   C     C_3   0.394603 0.989075 0.660916 0.115481
H57   H     H_    0.365982 0.888770 0.669688 0.148268
H58   H     H_    0.430435 0.917734 0.668295 0.095305
C94   C     C_3   0.382236 0.067758 0.577192 -0.268785
H59   H     H_    0.348127 0.148561 0.571715 0.234454
H60   H     H_    0.412725 0.157480 0.568427 0.209350
C95   C     C_3   0.374810 0.924131 0.511877 -0.850202
H61   H     H_    0.407871 0.837892 0.516101 0.251869
H62   H     H_    0.368091 0.994330 0.453287 0.231272
H63   H     H_    0.342387 0.839816 0.515761 0.252413
O30   O     O_3   0.609165 0.894577 0.253687 -0.547367
C96   C     C_3   0.578843 0.817769 0.302405 0.117039
H64   H     H_    0.602436 0.734385 0.348528 0.164060
H65   H     H_    0.551105 0.719566 0.270962 0.089580
C97   C     C_3   0.556697 0.972849 0.344719 -0.338797
H66   H     H_    0.586629 0.046681 0.384289 0.216551
H67   H     H_    0.537490 0.073484 0.301012 0.181428
C98   C     C_3   0.521161 0.900259 0.394364 -0.808475
H68   H     H_    0.492283 0.816281 0.357266 0.232256
H69   H     H_    0.503769 0.018053 0.419508 0.240207
H70   H     H_    0.540890 0.816303 0.444242 0.244507
O31   O     O_3   0.603947 0.637992 0.786045 -0.549381
C99   C     C_3   0.605052 0.488630 0.839312 0.115292
H71   H     H_    0.633724 0.388161 0.830976 0.148389
H72   H     H_    0.569184 0.417435 0.831547 0.095192
C100  C     C_3   0.617049 0.567543 0.923023 -0.269003
H73   H     H_    0.651286 0.647715 0.928977 0.233797
H74   H     H_    0.586564 0.657899 0.931208 0.209615
C101  C     C_3   0.623900 0.424189 0.988446 -0.849477
H75   H     H_    0.590829 0.337719 0.983441 0.251917
H76   H     H_    0.630019 0.494637 0.046971 0.231268
H77   H     H_    0.656504 0.340084 0.985534 0.251718
O32   O     O_3   0.390962 0.395910 0.246252 -0.547430
C102  C     C_3   0.421254 0.318612 0.197601 0.116972
H78   H     H_    0.397627 0.235234 0.151519 0.164041
H79   H     H_    0.448949 0.220347 0.229116 0.089685
C103  C     C_3   0.443498 0.473320 0.155221 -0.338624
H80   H     H_    0.413619 0.547100 0.115514 0.216606
H81   H     H_    0.462698 0.574066 0.198882 0.181486
C104  C     C_3   0.479077 0.400265 0.105756 -0.808693
H82   H     H_    0.507871 0.316143 0.142975 0.232228
H83   H     H_    0.496574 0.517829 0.080639 0.240250
H84   H     H_    0.459356 0.316342 0.055863 0.244540

loop_
_geom_bond_atom_site_label_1
_geom_bond_atom_site_label_2
_ccdc_geom_bond_type
O17   V3    S    
C93   H58   S    
C89   H42   S    
N1    C17   A    
O1    C5    A    
C88   H38   S    
C97   H67   S    
C75   H19   S    
O19   V1    S    
O13   V1    S    
N9    H41   S    
O3    C7    A    
C11   C12   D    
C14   C46   A    
C99   C100  S    
C44   C48   A    
O15   V3    S    
C62   C70   A    
C103  H81   S    
N5    H25   S    
C61   C69   A    
C79   O31   S    
N10   C90   S    
C68   C83   A    
N11   H49   S    
C42   C54   A    
O7    C3    A    
C89   H43   S    
C41   C53   A    
C32   C60   A    
C63   C71   A    
N8    C88   S    
N3    C39   S    
C18   C54   A    
N2    C38   S    
C87   H34   S    
O4    C8    A    
C25   C57   A    
C93   C94   S    
C100  H74   S    
C67   C84   A    
C21   C37   A    
C27   C59   A    
O1    V3    S    
C15   C47   A    
C64   C67   A    
C103  C104  S    
O2    V4    S    
C14   O22   S    
C73   H17   S    
O3    V1    S    
C19   C55   A    
C73   C77   A    
C21   N10   S    
C50   C82   A    
N7    H33   S    
C3    O13   A    
C85   H26   S    
C92   H56   S    
C2    O16   A    
C95   H61   S    
C90   H47   S    
C26   N5    S    
C28   N7    S    
C34   C38   A    
C31   C35   A    
N6    H29   S    
C87   H35   S    
C33   C37   A    
C63   C68   A    
O14   V2    S    
C77   O29   S    
C86   H31   S    
C104  H82   S    
C27   N8    S    
C43   C55   A    
C31   H7    S    
C30   C58   A    
C16   N4    A    
O11   C7    A    
C93   H57   S    
C44   C71   A    
O12   C8    A    
C64   C76   A    
C35   H11   S    
C31   C59   A    
N9    C89   S    
C50   H14   S    
C76   C80   A    
O10   V2    S    
C49   H13   S    
C13   N1    A    
N5    C85   S    
C1    O15   A    
C45   C49   A    
O5    V1    S    
C53   C78   A    
N11   C91   S    
C89   H44   S    
O7    V3    S    
C55   C80   A    
C63   C75   A    
O8    V4    S    
C51   C83   A    
C12   H4    S    
C22   N9    S    
C99   H71   S    
C52   C84   A    
C41   C70   A    
C91   H52   S    
C100  H73   S    
C64   C72   A    
O18   V4    S    
C97   H66   S    
C94   H60   S    
C36   H12   S    
C101  H77   S    
C7    C9    S    
C46   C50   A    
O11   V3    S    
C24   C40   A    
C8    C10   S    
C68   C72   A    
C32   C36   A    
C74   C78   A    
C94   C95   S    
C11   H3    S    
C91   H50   S    
C32   H8    S    
C98   H68   S    
O5    C1    A    
C24   N11   S    
C54   C77   A    
C82   H22   S    
C25   N6    S    
C42   C46   A    
C75   C79   A    
C102  H78   S    
C62   C65   A    
C41   C45   A    
O8    C4    A    
C90   H48   S    
C13   C45   A    
C43   C72   A    
C42   C69   A    
C9    C10   D    
C87   H36   S    
O9    C5    A    
C36   C40   A    
O32   C102  S    
N2    C18   A    
C86   H32   S    
C23   N12   S    
C44   C56   A    
C104  H83   S    
C1    C60   S    
C74   H18   S    
C66   C70   A    
C22   C26   A    
C14   N2    A    
C65   C69   A    
C61   C66   A    
C3    C58   S    
C80   O32   S    
C102  H79   S    
C19   O28   S    
C88   H40   S    
C67   C71   A    
C65   C82   A    
C26   C58   A    
C17   C53   A    
N1    C37   S    
C4    C57   S    
C102  C103  S    
C56   C79   A    
C23   C39   A    
C85   H28   S    
C22   C38   A    
O16   V4    S    
C96   C97   S    
O9    V1    S    
C92   H54   S    
C98   H69   S    
C18   O25   S    
C96   H64   S    
C101  H76   S    
C85   H27   S    
C10   H2    S    
C23   C27   A    
C76   H20   S    
C48   C52   A    
C99   H72   S    
N4    C40   S    
C47   C51   A    
O6    C2    A    
N7    C87   S    
C34   H10   S    
C21   C25   A    
C5    C11   S    
C33   H9    S    
O12   V4    S    
C6    C12   S    
C81   H21   S    
C16   C48   A    
C24   C28   A    
C78   O30   S    
O10   C6    A    
C91   H51   S    
C30   H6    S    
C29   H5    S    
C103  H80   S    
C84   H24   S    
N10   H45   S    
O2    C6    A    
C62   C74   A    
C100  C101  S    
C35   C39   A    
C61   C73   A    
C30   C34   A    
C2    C59   S    
C15   N3    A    
C95   H63   S    
C29   C33   A    
C83   H23   S    
C29   C57   A    
C66   C81   A    
O20   V2    S    
C96   H65   S    
C28   C60   A    
N3    C19   A    
N6    C86   S    
O31   C99   S    
C94   H59   S    
O6    V2    S    
C104  H84   S    
C9    H1    S    
N12   C92   S    
N8    H37   S    
C90   H46   S    
C43   C47   A    
C52   H16   S    
N4    C20   A    
N12   H53   S    
C98   H70   S    
C51   H15   S    
O30   C96   S    
C88   H39   S    
O29   C93   S    
C97   C98   S    
C4    O14   A    
C13   O21   S    
C17   O26   S    
C92   H55   S    
C86   H30   S    
C20   C56   A    
C15   O23   S    
C101  H75   S    
C95   H62   S    
O4    V2    S    
C20   O27   S    
C16   O24   S    
C49   C81   A    
