data_mof_unit_1100.cif
_audit_creation_date              2013-03-05T15:54:52-0500
_audit_creation_method            fapswitch 2.2
_symmetry_space_group_name_H-M    P1
_symmetry_Int_Tables_number       1
_space_group_crystal_system       triclinic
_cell_length_a                    12.534906
_cell_length_b                    13.468981
_cell_length_c                    14.651131
_cell_angle_alpha                 94.931556
_cell_angle_beta                  108.73124
_cell_angle_gamma                 117.776418
_cell_volume                      1989.01321617

loop_
_atom_site_label
_atom_site_type_symbol
_atom_site_description
_atom_site_fract_x
_atom_site_fract_y
_atom_site_fract_z
_atom_type_partial_charge
O1    O     O_R   0.545970 0.684450 0.528810 -0.531079
O2    O     O_R   0.687130 0.639470 0.490120 -0.576258
C1    C     C_R   0.646974 0.712258 0.503704 0.798856
O3    O     O_R   0.519670 0.535100 0.660030 -0.574798
O4    O     O_R   0.660830 0.490120 0.621340 -0.556231
C2    C     C_R   0.615945 0.512868 0.685123 0.806714
Cu1   Cu    Cu3+1 0.416420 0.526630 0.522910 1.007529
Cu2   Cu    Cu3+1 0.583580 0.473370 0.477090 0.960837
O5    O     O_R   0.312870 0.360530 0.509880 -0.540703
O6    O     O_R   0.454030 0.315550 0.471190 -0.597364
O7    O     O_R   0.339170 0.509880 0.378660 -0.584171
O8    O     O_R   0.480330 0.464900 0.339970 -0.561225
C3    C     C_R   0.345939 0.285669 0.486010 0.836438
C4    C     C_R   0.383218 0.485549 0.314224 0.788813
C5    C     C_R   0.674830 0.507726 0.788219 -0.083272
C6    C     C_R   0.325143 0.487450 0.209148 -0.078902
C7    C     C_R   0.673537 0.496400 0.951489 -0.149863
C8    C     C_R   0.615361 0.501773 0.855024 -0.135352
C9    C     C_R   0.789582 0.502414 0.817899 -0.168511
C10   C     C_R   0.847483 0.491330 0.912880 0.070742
C11   C     C_R   0.791960 0.495460 0.982567 0.083641
C12   C     C_R   0.964207 0.484760 0.942865 0.009863
C13   C     C_R   0.038037 0.508567 0.047146 -0.003009
C14   C     C_R   0.994316 0.539662 0.116437 0.137538
C15   C     C_R   0.861549 0.509150 0.083860 0.100052
C16   C     C_R   0.012151 0.459088 0.873616 0.082871
C17   C     C_R   0.140778 0.478387 0.908574 -0.026421
C18   C     C_R   0.208374 0.492204 0.010569 0.012683
C19   C     C_R   0.154153 0.501843 0.079467 0.100909
C20   C     C_R   0.325916 0.490350 0.044353 -0.179789
C21   C     C_R   0.380836 0.482661 0.140461 0.149320
C22   C     C_R   0.213675 0.498113 0.177808 -0.232904
H1    H     H_    0.169810 0.497387 0.229735 0.227220
H2    H     H_    0.628083 0.498372 0.002604 0.153189
H3    H     H_    0.525327 0.503252 0.833521 0.191432
H4    H     H_    0.836850 0.513684 0.767461 0.185767
H5    H     H_    0.375287 0.490209 0.996220 0.179941
C23   C     C_R   0.195685 0.959858 0.441688 0.040387
H6    H     H_    0.381730 0.103599 0.455959 0.190681
C24   C     C_R   0.255971 0.162392 0.475696 -0.078939
C25   C     C_R   0.700526 0.919922 0.526717 0.169574
C26   C     C_R   0.800343 0.037008 0.556751 -0.195625
C27   C     C_R   0.922718 0.069173 0.555526 -0.011529
C28   C     C_R   0.937966 0.985543 0.502763 0.006467
C29   C     C_R   0.833860 0.866582 0.468533 -0.018219
C30   C     C_R   0.050750 0.015254 0.480878 0.037280
C31   C     C_R   0.071133 0.926795 0.445341 0.095482
C32   C     C_R   0.960195 0.812334 0.400491 0.136197
C33   C     C_R   0.839025 0.786337 0.403065 0.134143
C34   C     C_R   0.136598 0.129468 0.482961 -0.149382
C35   C     C_R   0.287248 0.077954 0.458765 -0.249163
C36   C     C_R   0.725137 0.833134 0.496408 -0.154512
H7    H     H_    0.107803 0.192999 0.484929 0.195590
H8    H     H_    0.785868 0.102947 0.588887 0.164456
C37   C     C_R   0.270646 0.701465 0.654346 -0.147365
H9    H     H_    0.320745 0.780256 0.715216 0.158035
N1    N     N_R   0.290690 0.566960 0.557640 -0.272372
C38   C     C_R   0.648753 0.326786 0.378352 0.010851
C39   C     C_R   0.721110 0.275867 0.370286 -0.106073
C40   C     C_R   0.858525 0.341691 0.422825 -0.128052
C41   C     C_R   0.926865 0.460096 0.478781 -0.059418
C42   C     C_R   0.848256 0.502381 0.497621 0.241479
C43   C     C_R   0.070333 0.531885 0.524828 -0.065835
C44   C     C_R   0.133260 0.638607 0.598759 0.092338
C45   C     C_R   0.059473 0.680745 0.619812 -0.067296
C46   C     C_R   0.920708 0.612422 0.576353 0.060940
C47   C     C_R   0.155874 0.505431 0.497416 0.129232
C48   C     C_R   0.345883 0.659695 0.638092 0.171815
N2    N     N_R   0.709100 0.433710 0.442970 -0.209648
H10   H     H_    0.542076 0.277156 0.340064 0.176396
H11   H     H_    0.910716 0.296920 0.422893 0.211042
N3    N     N_3   0.801920 0.503063 0.154050 -0.617453
H12   H     H_    0.855849 0.494046 0.220197 0.257372
H13   H     H_    0.711377 0.423663 0.125299 0.221892
N4    N     N_3   0.963462 0.727494 0.337473 -0.590779
H14   H     H_    0.929838 0.650988 0.360054 0.237767
H15   H     H_    0.900503 0.710451 0.263422 0.262428
C49   C     C_2   0.236289 0.876414 0.420770 0.858182
O9    O     O_2   0.215752 0.797128 0.460538 -0.591150
O10   O     O_R   0.301995 0.891240 0.357278 -0.757354
H16   H     H_    0.319219 0.826202 0.344276 0.335420
N5    N     N_3   0.575607 0.889139 0.529404 -0.478738
H17   H     H_    0.572936 0.963757 0.550875 0.230543
H18   H     H_    0.504044 0.844728 0.456037 0.221341
C50   C     C_2   0.031316 0.188765 0.615919 0.826609
O11   O     O_2   0.138040 0.206009 0.672333 -0.561369
O12   O     O_R   0.011435 0.281769 0.606305 -0.798771
H19   H     H_    0.096395 0.360511 0.637976 0.345215
N6    N     N_3   0.720913 0.689283 0.324592 -0.588472
H20   H     H_    0.636305 0.690179 0.319308 0.223716
H21   H     H_    0.712478 0.611201 0.336839 0.275532
C51   C     C_2   0.483791 0.717095 0.711641 0.902199
O13   O     O_2   0.508933 0.683941 0.786472 -0.603690
O14   O     O_R   0.582641 0.816462 0.701990 -0.736280
H22   H     H_    0.672569 0.849405 0.758794 0.329553
C52   C     C_2   0.127601 0.797162 0.693887 0.807863
O15   O     O_2   0.166491 0.806101 0.783884 -0.570270
O16   O     O_R   0.145198 0.894992 0.659693 -0.758635
H23   H     H_    0.191547 0.968744 0.716557 0.353369
C53   C     C_2   0.101919 0.429515 0.394612 0.855247
O17   O     O_2   0.034507 0.446009 0.324014 -0.667640
O18   O     O_R   0.112090 0.331673 0.377763 -0.755257
H24   H     H_    0.066073 0.285958 0.304226 0.328208
C54   C     C_2   0.653374 0.152196 0.311186 0.855944
O19   O     O_2   0.533054 0.094852 0.265353 -0.572677
O20   O     O_R   0.726939 0.100406 0.308299 -0.760404
H25   H     H_    0.669512 0.015529 0.266700 0.343721
N7    N     N_3   0.862074 0.652160 0.626996 -0.486051
H26   H     H_    0.889797 0.738113 0.625437 0.225754
H27   H     H_    0.901102 0.656724 0.702810 0.204681
N8    N     N_3   0.490332 0.465691 0.165508 -0.572737
H28   H     H_    0.563444 0.530851 0.149278 0.230254
H29   H     H_    0.458313 0.385524 0.118404 0.229192
C55   C     C_2   0.201638 0.481698 0.836569 0.820584
O21   O     O_2   0.214926 0.553256 0.788787 -0.603482
O22   O     O_R   0.245839 0.405632 0.824493 -0.745914
H30   H     H_    0.294452 0.423605 0.778936 0.347082
N9    N     N_3   0.091595 0.630937 0.207870 -0.580460
H31   H     H_    0.066608 0.612899 0.268076 0.285305
H32   H     H_    0.091722 0.707090 0.198639 0.257567
N10   N     N_3   0.925088 0.398058 0.769641 -0.591486
H33   H     H_    0.920371 0.318701 0.752721 0.251216
H34   H     H_    0.963103 0.447805 0.724562 0.251845

loop_
_geom_bond_atom_site_label_1
_geom_bond_atom_site_label_2
_geom_bond_distance
_ccdc_geom_bond_type
C5    C8    1.395158 A    
H6    C35   1.084466 S    
C37   H9    1.082753 S    
C25   C26   1.390728 A    
N8    H28   1.045398 S    
O12   H19   1.009735 S    
C54   O20   1.399357 S    
C37   C48   1.370536 A    
Cu1   Cu2   2.752688 S    
C50   O11   1.222283 D    
N7    H26   1.047018 S    
C6    C21   1.409346 A    
Cu1   O7    1.963456 S    
Cu2   N2    2.062369 S    
C39   C54   1.485578 S    
C13   C19   1.427754 A    
C18   C19   1.413541 A    
C19   C22   1.411414 A    
C9    H4    1.066225 S    
C20   C21   1.391507 A    
O7    C4    1.324284 A    
C49   O10   1.397942 S    
O20   H25   1.013894 S    
O16   H23   1.013576 S    
O22   H30   1.013382 S    
C41   C43   1.453305 A    
O5    C3    1.316377 A    
N9    H31   1.038536 S    
C51   O13   1.222356 D    
C3    C24   1.467568 S    
C2    C5    1.476731 S    
C45   C52   1.493279 S    
C9    C10   1.404844 A    
C52   O16   1.396237 S    
C13   C14   1.415806 A    
C16   N10   1.438101 S    
N6    H21   1.044226 S    
C8    H3    1.080266 S    
C25   C36   1.411960 A    
C41   C42   1.429059 A    
N3    H12   1.042558 S    
C39   C40   1.397583 A    
C52   O15   1.223078 D    
C32   N4    1.430531 S    
O14   H22   1.013895 S    
N1    C47   1.390111 A    
O3    Cu1   1.969021 S    
C53   O18   1.390939 S    
C54   O19   1.223434 D    
C28   C30   1.430919 A    
C55   O21   1.219849 D    
C50   O12   1.396384 S    
C43   C47   1.430396 A    
C34   H7    1.074070 S    
C42   C46   1.459716 A    
C27   C50   1.472500 S    
C14   C15   1.408895 A    
O3    C2    1.323615 A    
C33   N6    1.437748 S    
C49   O9    1.221984 D    
C38   H10   1.081777 S    
C23   C35   1.398428 A    
C23   C49   1.479951 S    
C40   H11   1.076564 S    
C38   C39   1.393419 A    
C7    C11   1.412595 A    
C20   H5    1.077721 S    
C40   C41   1.414260 A    
O1    C1    1.326405 A    
C5    C9    1.400992 A    
N4    H14   1.045127 S    
C31   C32   1.408223 A    
C29   C33   1.420994 A    
Cu2   O8    1.969021 S    
C37   C44   1.402675 A    
C51   O14   1.394975 S    
C7    C8    1.392599 A    
N10   H33   1.045728 S    
N8    H29   1.045624 S    
C15   N3    1.440130 S    
N4    H15   1.044515 S    
C23   C31   1.431227 A    
C47   C53   1.485925 S    
N3    H13   1.045686 S    
C32   C33   1.405115 A    
C10   C12   1.433909 A    
C45   C46   1.404930 A    
N5    H18   1.043042 S    
C27   C28   1.431346 A    
C16   C17   1.409107 A    
C4    C6    1.484917 S    
C26   C27   1.393084 A    
N1    C48   1.358616 A    
C28   C29   1.419308 A    
Cu1   O5    1.946064 S    
C11   C15   1.403182 A    
C30   C31   1.420721 A    
O1    Cu1   1.955494 S    
O2    Cu2   1.946065 S    
C46   N7    1.423304 S    
O10   H16   1.012060 S    
O6    C3    1.319327 A    
O4    Cu2   1.963456 S    
C55   O22   1.395991 S    
C1    C36   1.494138 S    
C38   N2    1.353817 A    
C6    C22   1.403584 A    
C24   C35   1.392180 A    
C30   C34   1.397614 A    
C14   N9    1.436426 S    
C29   C36   1.429659 A    
C22   H1    1.070589 S    
C18   C20   1.408716 A    
O2    C1    1.320928 A    
O8    C4    1.319135 A    
C26   H8    1.084685 S    
C7    H2    1.082075 S    
O4    C2    1.316374 A    
C24   C34   1.392459 A    
C25   N5    1.436190 S    
C44   C45   1.383892 A    
C53   O17   1.219181 D    
C48   C51   1.470335 S    
N7    H27   1.043123 S    
O18   H24   1.014115 S    
N9    H32   1.045384 S    
N10   H34   1.045406 S    
C43   C44   1.410119 A    
C17   C55   1.479929 S    
C10   C11   1.418652 A    
C42   N2    1.418154 A    
Cu2   O6    1.955493 S    
N5    H17   1.045912 S    
C12   C16   1.426566 A    
C17   C18   1.406287 A    
C21   N8    1.433197 S    
C12   C13   1.422897 A    
N6    H20   1.044161 S    
Cu1   N1    2.074426 S    
