data_mof_unit_605.cif
_audit_creation_date              2012-12-10T16:57:17-0500
_audit_creation_method            fapswitch 2.2
_symmetry_space_group_name_H-M    P1
_symmetry_Int_Tables_number       1
_space_group_crystal_system       triclinic
_cell_length_a                    15.896953
_cell_length_b                    10.929465
_cell_length_c                    9.713734
_cell_angle_alpha                 91.055768
_cell_angle_beta                  90.242926
_cell_angle_gamma                 90.361092
_cell_volume                      1687.37853192

loop_
_atom_site_label
_atom_site_type_symbol
_atom_type_description
_atom_site_fract_x
_atom_site_fract_y
_atom_site_fract_z
_atom_type_partial_charge
C1    C     C_R   0.502766 0.265538 0.498517 0.919695
C2    C     C_3   0.951292 0.493078 0.647030 -0.395717
C3    C     C_3   0.917005 0.495025 0.496587 0.030433
C4    C     C_3   0.949636 0.615750 0.429664 0.265637
C5    C     C_3   0.047818 0.612786 0.424226 0.260949
C6    C     C_1   0.824564 0.497097 0.499224 0.046379
C7    C     C_1   0.175385 0.498404 0.499387 0.019928
C8    C     C_1   0.250820 0.499096 0.499397 -0.160424
C9    C     C_2   0.484118 0.931475 0.393010 -0.296094
C10   C     C_2   0.483980 0.865018 0.506740 -0.407329
C11   C     C_2   0.470313 0.064638 0.403202 0.440820
C12   C     C_R   0.340337 0.499774 0.499821 0.813164
C13   C     C_2   0.516905 0.134291 0.492633 -0.241229
C14   C     C_2   0.451470 0.429626 0.921380 0.105835
C15   C     C_2   0.443039 0.444183 0.075943 -0.015523
C16   C     C_R   0.496340 0.734278 0.501375 0.869966
C17   C     C_R   0.659657 0.500006 0.500170 0.815059
C18   C     C_3   0.048832 0.485860 0.649405 0.339651
C19   C     C_3   0.050677 0.383684 0.415865 -0.497136
C20   C     C_3   0.951515 0.378653 0.413381 -0.050749
C21   C     C_1   0.749148 0.498724 0.500335 -0.134660
C22   C     C_3   0.083231 0.497434 0.499542 0.044367
Cu1   Cu    Cu3+1 0.500020 0.500020 0.638630 1.008377
Cu2   Cu    Cu3+1 0.499980 0.499980 0.361370 0.974476
H1    H     H_    0.923654 0.415487 0.703972 0.237968
H2    H     H_    0.073953 0.562728 0.713753 0.057110
H3    H     H_    0.931219 0.576658 0.704819 0.163161
H4    H     H_    0.925402 0.615951 0.321429 0.024439
H5    H     H_    0.489790 0.888760 0.291639 0.199698
H6    H     H_    0.473567 0.908204 0.606938 0.167210
H7    H     H_    0.415718 0.356749 0.870815 0.083664
H8    H     H_    0.388821 0.402736 0.124392 0.143198
H9    H     H_    0.556183 0.518102 0.109540 0.236102
H10   H     H_    0.076839 0.386469 0.309748 0.186738
H11   H     H_    0.077731 0.298990 0.459657 0.218590
H12   H     H_    0.061838 0.594826 0.313397 0.085807
N1    N     N_2   0.499090 0.498660 0.846910 0.015263
N2    N     N_2   0.499070 0.498630 0.153040 -0.264698
O1    O     O_R   0.500010 0.321960 0.617040 -0.569836
O2    O     O_R   0.499990 0.321920 0.382900 -0.546132
O3    O     O_R   0.379450 0.500030 0.617120 -0.583487
O4    O     O_R   0.379420 0.499980 0.382980 -0.574559
O5    O     O_R   0.500010 0.678080 0.617100 -0.564622
O6    O     O_R   0.499990 0.678040 0.382960 -0.570101
O7    O     O_R   0.620580 0.500020 0.617020 -0.580196
O8    O     O_R   0.620550 0.499970 0.382880 -0.594880
O9    O     O_3   0.412349 0.122336 0.317640 -0.570070
C23   C     C_3   0.343205 0.045863 0.283485 -0.280542
H13   H     H_    0.315959 0.002564 0.376279 0.169494
H14   H     H_    0.361234 0.975452 0.205279 0.173710
H15   H     H_    0.293322 0.102696 0.237167 0.178977
C24   C     C_2   0.590146 0.087055 0.572361 0.294054
H16   H     H_    0.617189 0.998452 0.548445 0.102142
O10   O     O_2   0.622993 0.148976 0.663951 -0.496112
O11   O     O_3   0.518196 0.608434 0.905386 -0.498140
C25   C     C_3   0.604386 0.631463 0.883381 -0.123119
H17   H     H_    0.614386 0.679551 0.785507 0.184296
H18   H     H_    0.643216 0.546992 0.887164 0.139359
H19   H     H_    0.627534 0.693627 0.966994 0.119459
O12   O     O_3   0.074318 0.372023 0.704249 -0.563916
C26   C     C_3   0.083489 0.380635 0.848785 -0.280089
H20   H     H_    0.025580 0.416242 0.899006 0.173883
H21   H     H_    0.138588 0.439148 0.877187 0.148400
H22   H     H_    0.095135 0.287800 0.888686 0.206644
C27   C     C_2   0.922909 0.256911 0.472674 0.468693
H23   H     H_    0.953167 0.173066 0.438011 0.076168
O13   O     O_2   0.865274 0.249433 0.554846 -0.547368
C28   C     C_2   0.919963 0.377146 0.265099 0.259632
H24   H     H_    0.868413 0.435294 0.234187 0.084110
O14   O     O_2   0.949073 0.305866 0.179658 -0.556863
O15   O     O_3   0.088386 0.728281 0.447757 -0.566120
C29   C     C_3   0.098147 0.763793 0.587147 -0.235514
H25   H     H_    0.040779 0.749608 0.649203 0.188377
H26   H     H_    0.111597 0.863483 0.591456 0.180032
H27   H     H_    0.153540 0.718411 0.632976 0.139794
O16   O     O_3   0.920098 0.719098 0.505830 -0.569230
C30   C     C_3   0.898010 0.814987 0.417551 -0.253397
H28   H     H_    0.840864 0.790076 0.356566 0.144328
H29   H     H_    0.950712 0.839268 0.347961 0.187964
H30   H     H_    0.883190 0.897279 0.481236 0.194652

loop_
_geom_bond_atom_site_label_1
_geom_bond_atom_site_label_2
_ccdc_geom_bond_type
O11   C25   S    
Cu1   O7    S    
C2    C18   S    
Cu2   O4    S    
C11   O9    S    
C19   C20   S    
C18   H2    S    
C14   H7    S    
C3    C6    S    
C7    C8    T    
C30   H28   S    
C17   O7    A    
C5    H12   S    
Cu1   O5    S    
C25   H17   S    
C26   H21   S    
C12   O4    A    
C1    O2    A    
C23   H15   S    
C5    C22   S    
C28   H24   S    
C27   O13   D    
Cu2   N2    S    
Cu1   Cu2   S    
C2    H3    S    
C9    C10   D    
C16   O6    A    
C9    H5    S    
C23   H14   S    
C29   H27   S    
C4    H4    S    
C24   O10   D    
C30   H29   S    
C20   C27   S    
C15   H8    S    
C19   C22   S    
C17   O8    A    
C29   H26   S    
C29   H25   S    
Cu1   N1    S    
C6    C21   T    
C17   C21   S    
O12   C26   S    
C26   H22   S    
C15   N2    D    
C12   O3    A    
C13   C24   S    
C10   H6    S    
O9    C23   S    
C8    C12   S    
C3    C20   S    
O16   C30   S    
C9    C11   S    
C16   O5    A    
C18   O12   S    
C23   H13   S    
Cu2   O6    S    
C1    C13   S    
C3    C4    S    
C24   H16   S    
C30   H30   S    
C18   C22   S    
C20   C28   S    
C4    C5    S    
C19   H10   S    
C7    C22   S    
H9    N2    S    
Cu1   O3    S    
C25   H19   S    
Cu2   O8    S    
C2    C3    S    
O15   C29   S    
C5    O15   S    
C19   H11   S    
C14   N1    D    
C11   C13   D    
Cu1   O1    S    
Cu2   O2    S    
C25   H18   S    
C2    H1    S    
C26   H20   S    
C4    O16   S    
C1    O1    A    
N1    O11   S    
C28   O14   D    
C27   H23   S    
C14   C15   S    
C10   C16   S    
