data_mof_unit_4645.cif
_audit_creation_date              2013-03-05T16:11:20-0500
_audit_creation_method            fapswitch 2.2
_symmetry_space_group_name_H-M    P1
_symmetry_Int_Tables_number       1
_space_group_crystal_system       triclinic
_cell_length_a                    10.702042
_cell_length_b                    9.836824
_cell_length_c                    10.68156
_cell_angle_alpha                 89.633725
_cell_angle_beta                  89.780418
_cell_angle_gamma                 90.024733
_cell_volume                      1124.46030214

loop_
_atom_site_label
_atom_site_type_symbol
_atom_site_description
_atom_site_fract_x
_atom_site_fract_y
_atom_site_fract_z
_atom_type_partial_charge
O1    O     O_R   0.316750 0.614620 0.499990 -0.643684
O2    O     O_R   0.316750 0.385380 0.499990 -0.600211
C1    C     C_R   0.259869 0.499997 0.499730 0.915701
O3    O     O_R   0.499970 0.614670 0.314790 -0.623156
O4    O     O_R   0.499970 0.385330 0.314790 -0.622233
C2    C     C_R   0.502389 0.500685 0.257972 0.876930
Zn1   Zn    Zn3+2 0.499980 0.653120 0.500000 0.986186
Zn2   Zn    Zn3+2 0.499980 0.346880 0.500000 0.985106
O5    O     O_R   0.683220 0.614710 0.500010 -0.626819
O6    O     O_R   0.683220 0.385290 0.500010 -0.645823
O7    O     O_R   0.500010 0.614660 0.685200 -0.581867
O8    O     O_R   0.500010 0.385340 0.685200 -0.611836
C3    C     C_R   0.740063 0.499990 0.500326 0.849059
C4    C     C_R   0.502692 0.499335 0.742507 0.848873
C5    C     C_3   0.512538 0.649771 0.071659 -0.435126
C6    C     C_3   0.383614 0.433726 0.074855 -0.421353
H1    H     H_    0.590650 0.706260 0.116077 0.239966
H2    H     H_    0.385016 0.324761 0.102517 0.257710
H3    H     H_    0.425213 0.705279 0.096589 0.175290
H4    H     H_    0.300047 0.479746 0.120431 0.150835
C7    C     C_3   0.527568 0.647226 0.929160 0.140580
C8    C     C_3   0.374091 0.453556 0.931800 0.125344
H5    H     H_    0.450879 0.712498 0.891573 0.143813
H6    H     H_    0.308940 0.540626 0.916921 0.117208
H7    H     H_    0.706244 0.484920 0.097882 0.204372
H8    H     H_    0.636172 0.327678 0.130169 0.214175
C9    C     C_3   0.622039 0.423138 0.075893 -0.304598
C10   C     C_3   0.504997 0.501806 0.122384 -0.031825
C11   C     C_3   0.506775 0.496839 0.879549 -0.248821
C12   C     C_3   0.612286 0.396434 0.932278 -0.110834
C13   C     C_R   0.063983 0.381125 0.468371 -0.135139
C14   C     C_R   0.063908 0.618396 0.533762 -0.166550
H9    H     H_    0.112897 0.289210 0.441867 0.149892
H10   H     H_    0.112815 0.710315 0.560084 0.161535
C15   C     C_R   0.936005 0.381068 0.468721 -0.166295
C16   C     C_R   0.935882 0.618313 0.534195 -0.151497
H11   H     H_    0.887160 0.289105 0.442405 0.158541
H12   H     H_    0.886903 0.710133 0.560868 0.164985
C17   C     C_R   0.872469 0.499805 0.501182 -0.024897
C18   C     C_R   0.127429 0.499895 0.500520 -0.006373
C19   C     C_R   0.601672 0.071723 0.540932 -0.076421
C20   C     C_R   0.601969 0.927960 0.540095 0.016216
H13   H     H_    0.682948 0.125774 0.574135 0.133444
H14   H     H_    0.683931 0.873683 0.571559 0.158345
N1    N     N_R   0.499970 0.857200 0.499970 -0.090555
N2    N     N_R   0.499970 0.142800 0.499970 -0.087890
C21   C     C_R   0.398433 0.928318 0.458532 -0.066679
C22   C     C_R   0.398533 0.072154 0.458297 -0.014789
H15   H     H_    0.317268 0.874262 0.425085 0.133396
H16   H     H_    0.317500 0.126596 0.424565 0.127608
N3    N     N_R   0.646433 0.710210 0.889315 0.219559
O9    O     O_R   0.749263 0.688890 0.951116 -0.395410
O10   O     O_R   0.643752 0.811292 0.810322 -0.386307
N4    N     N_R   0.316524 0.336619 0.868001 0.233010
O11   O     O_R   0.307390 0.217965 0.921925 -0.343325
O12   O     O_R   0.249048 0.359342 0.769017 -0.377574
C23   C     C_2   0.738724 0.419972 0.870372 0.436402
H17   H     H_    0.746923 0.480073 0.785236 0.077278
O13   O     O_2   0.832870 0.366721 0.912572 -0.519926
C24   C     C_2   0.582476 0.246786 0.906668 0.566339
H18   H     H_    0.587730 0.208049 0.812018 0.083463
O14   O     O_2   0.556996 0.165990 0.990321 -0.533348

loop_
_geom_bond_atom_site_label_1
_geom_bond_atom_site_label_2
_geom_bond_distance
_ccdc_geom_bond_type
C6    C10   1.549966 S    
O4    Zn2   2.011787 S    
C15   C17   1.396728 A    
C19   N2    1.365771 A    
C13   H9    1.083618 S    
N4    O12   1.300893 A    
C11   C12   1.602021 S    
C8    C11   1.580988 S    
C2    C10   1.448425 S    
H7    C9    1.113363 S    
C19   C20   1.414270 A    
C21   C22   1.414877 A    
C6    H4    1.114271 S    
Zn2   O8    2.016451 S    
Zn1   O5    1.997269 S    
C22   H16   1.081210 S    
O2    C1    1.281535 A    
C23   H17   1.084741 S    
C8    N4    1.476396 S    
O6    C3    1.281632 A    
C21   H15   1.081351 S    
C9    C12   1.561899 S    
C5    H3    1.114828 S    
C19   H13   1.081408 S    
H8    C9    1.111125 S    
C16   C17   1.396528 A    
C20   H14   1.080642 S    
O3    Zn1   2.016537 S    
Zn1   N1    2.007497 S    
C16   H12   1.083641 S    
C15   H11   1.083784 S    
O8    C4    1.281345 A    
C1    C18   1.417364 S    
Zn1   O7    2.011701 S    
C13   C15   1.369613 A    
C14   C18   1.396832 A    
N1    C21   1.366202 A    
C7    H5    1.116569 S    
C24   O14   1.222018 D    
O4    C2    1.283615 A    
O7    C4    1.285978 A    
C8    H6    1.115625 S    
C23   O13   1.222156 D    
O3    C2    1.278593 A    
C3    C17   1.417075 S    
C4    C11   1.464688 S    
C5    C10   1.551796 S    
N3    O9    1.301860 A    
C12   C23   1.520782 S    
C14   C16   1.370132 A    
C5    C7    1.530338 S    
C7    N3    1.474798 S    
C13   C18   1.396489 A    
C6    H2    1.110150 S    
C9    C10   1.554152 S    
C5    H1    1.112977 S    
O5    C3    1.282233 A    
N4    O11   1.301725 A    
C6    C8    1.542971 S    
Zn2   N2    2.007501 S    
N3    O10   1.300352 A    
O1    Zn1   1.997011 S    
C7    C11   1.590410 S    
N2    C22   1.366227 A    
Zn2   O6    1.996949 S    
O2    Zn2   1.997332 S    
C12   C24   1.532642 S    
C24   H18   1.083972 S    
O1    C1    1.281153 A    
C20   N1    1.366201 A    
C14   H10   1.083759 S    
