data_mof_unit_3574.cif
_audit_creation_date              2012-12-10T17:08:43-0500
_audit_creation_method            fapswitch 2.2
_symmetry_space_group_name_H-M    P1
_symmetry_Int_Tables_number       1
_space_group_crystal_system       triclinic
_cell_length_a                    15.721725
_cell_length_b                    10.67392
_cell_length_c                    10.065058
_cell_angle_alpha                 89.415249
_cell_angle_beta                  89.739588
_cell_angle_gamma                 90.191838
_cell_volume                      1688.92674991

loop_
_atom_site_label
_atom_site_type_symbol
_atom_type_description
_atom_site_fract_x
_atom_site_fract_y
_atom_site_fract_z
_atom_type_partial_charge
C1    C     C_R   0.493813 0.262815 0.500549 0.872592
C2    C     C_2   0.507707 0.869901 0.496137 -0.281225
C3    C     C_2   0.484947 0.067194 0.391239 -0.219439
C4    C     C_R   0.338432 0.500156 0.500332 0.903326
C5    C     C_2   0.470114 0.133480 0.501098 0.026432
C6    C     C_2   0.539141 0.581706 0.927892 0.220620
C7    C     C_2   0.520604 0.595575 0.072987 -0.137164
C8    C     C_R   0.501817 0.737446 0.499203 0.933532
C9    C     C_R   0.661543 0.500364 0.499713 0.899363
C10   C     C_3   0.047747 0.416013 0.613714 -0.053333
C11   C     C_3   0.049744 0.455965 0.366849 -0.479756
C12   C     C_3   0.949516 0.415434 0.610283 -0.412532
C13   C     C_3   0.951486 0.463420 0.362049 0.381567
C14   C     C_1   0.750385 0.502658 0.499345 -0.169520
C15   C     C_3   0.082594 0.505240 0.502495 0.101866
C16   C     C_3   0.904380 0.334325 0.190056 0.064253
C17   C     C_3   0.815500 0.380733 0.151443 -0.352580
C18   C     C_3   0.800950 0.370638 0.002100 -0.913317
C19   C     C_3   0.055102 0.688323 0.760727 0.012491
C20   C     C_3   0.022601 0.815783 0.806616 -0.306387
C21   C     C_3   0.980973 0.805816 0.943577 -0.955169
C22   C     C_3   0.068886 0.843472 0.419296 0.162664
C23   C     C_3   0.917222 0.505412 0.499815 0.157599
C24   C     C_3   0.053336 0.902332 0.282593 -0.413280
C25   C     C_3   0.050734 0.045013 0.288425 -0.878708
C26   C     C_3   0.949617 0.640192 0.526656 -0.654276
C27   C     C_3   0.049982 0.643927 0.522216 0.887189
C28   C     C_1   0.825688 0.504517 0.499511 0.000619
C29   C     C_1   0.174224 0.503335 0.501852 0.068303
C30   C     C_1   0.249554 0.501739 0.501086 -0.108933
C31   C     C_2   0.477569 0.933360 0.392206 -0.144890
H1    H     H_    0.925259 0.319205 0.591965 0.244423
H2    H     H_    0.077188 0.511312 0.282620 0.179816
H3    H     H_    0.070961 0.357976 0.350946 0.232202
H4    H     H_    0.933562 0.537996 0.288547 0.070448
H5    H     H_    0.920754 0.676737 0.618807 0.186936
H6    H     H_    0.909152 0.233613 0.164501 0.173655
H7    H     H_    0.954711 0.383825 0.130965 0.127031
H8    H     H_    0.766634 0.323935 0.205112 0.238168
H9    H     H_    0.807510 0.480093 0.180617 0.219332
H10   H     H_    0.847846 0.429530 0.946798 0.257019
H11   H     H_    0.735956 0.403917 0.977629 0.279121
H12   H     H_    0.070309 0.446928 0.712139 0.146533
H13   H     H_    0.807104 0.271761 0.970148 0.265110
H14   H     H_    0.105822 0.657468 0.830120 0.186558
H15   H     H_    0.004320 0.617142 0.769959 0.121357
H16   H     H_    0.076720 0.882909 0.810839 0.252570
H17   H     H_    0.975478 0.853075 0.734622 0.216889
H18   H     H_    0.924019 0.744066 0.939813 0.270918
H19   H     H_    0.960900 0.900234 0.976510 0.271739
H20   H     H_    0.026642 0.766887 0.016887 0.261494
H21   H     H_    0.130072 0.879271 0.459219 0.206041
H22   H     H_    0.016452 0.872186 0.487201 0.142628
H23   H     H_    0.923874 0.443663 0.708674 0.152099
H24   H     H_    0.104868 0.873886 0.213300 0.246966
H25   H     H_    0.991727 0.867457 0.243530 0.225398
H26   H     H_    0.998829 0.075996 0.355622 0.290216
H27   H     H_    0.038866 0.083837 0.187469 0.256464
H28   H     H_    0.112503 0.082165 0.324151 0.287571
H29   H     H_    0.923570 0.702931 0.447795 0.180156
H30   H     H_    0.453131 0.887215 0.304425 0.183475
H31   H     H_    0.536773 0.916039 0.580407 0.184681
H32   H     H_    0.511231 0.109819 0.301450 0.174631
H33   H     H_    0.530576 0.686144 0.118318 0.175890
H34   H     H_    0.509360 0.414253 0.107001 0.197479
I1    I     I_    0.395700 0.068718 0.667835 -0.272513
I2    I     I_    0.634342 0.702571 0.850231 -0.376910
I3    I     I_    0.387013 0.414090 0.912492 -0.232498
I4    I     I_    0.096346 0.226572 0.606662 -0.429007
N1    N     N_2   0.500900 0.501330 0.852150 -0.056560
N2    N     N_2   0.500920 0.501360 0.147810 -0.188867
O1    O     O_R   0.499990 0.319060 0.613040 -0.575260
O2    O     O_3   0.092520 0.700761 0.632986 -0.664149
O3    O     O_3   0.074445 0.711705 0.405056 -0.680214
O4    O     O_R   0.500010 0.319100 0.386900 -0.632990
O5    O     O_R   0.377130 0.499990 0.613120 -0.574365
O6    O     O_R   0.377160 0.500030 0.386980 -0.600436
O7    O     O_R   0.499990 0.680900 0.613100 -0.581576
O8    O     O_R   0.500010 0.680940 0.386960 -0.627300
O9    O     O_R   0.622840 0.499970 0.613020 -0.589874
O10   O     O_R   0.622870 0.500010 0.386880 -0.618914
O11   O     O_3   0.916603 0.344741 0.328848 -0.627895
Zn1   Zn    Zn3+2 0.499980 0.499970 0.650990 1.046563
Zn2   Zn    Zn3+2 0.500020 0.500030 0.349010 0.965841

loop_
_geom_bond_atom_site_label_1
_geom_bond_atom_site_label_2
_ccdc_geom_bond_type
C31   H30   S    
C19   C20   S    
C21   H18   S    
C19   H15   S    
C24   H24   S    
C12   C23   S    
C26   C27   S    
C1    C5    S    
C13   H4    S    
C10   C15   S    
C18   H11   S    
C7    N2    D    
O8    Zn2   S    
O4    Zn2   S    
C13   C23   S    
C17   H8    S    
C23   C26   S    
C11   C15   S    
O7    Zn1   S    
C16   C17   S    
C8    O8    A    
C27   O3    S    
C16   H6    S    
C12   H1    S    
C8    O7    A    
C25   H26   S    
O9    Zn1   S    
O5    Zn1   S    
C21   H19   S    
C15   C29   S    
C22   H22   S    
C1    O1    A    
C1    O4    A    
C19   O2    S    
C24   C25   S    
C18   H10   S    
O6    Zn2   S    
H34   N2    S    
C13   O11   S    
C2    C31   D    
C9    O9    A    
C9    C14   S    
C29   C30   T    
C18   H13   S    
C15   C27   S    
C11   H2    S    
C16   O11   S    
C17   C18   S    
C23   C28   S    
C3    C31   S    
N1    Zn1   S    
C20   H17   S    
C10   C12   S    
C26   H5    S    
C6    I2    S    
C22   C24   S    
C25   H27   S    
C22   O3    S    
C21   H20   S    
O10   Zn2   S    
C22   H21   S    
N2    Zn2   S    
C6    N1    D    
C10   H12   S    
C11   H3    S    
C2    C8    S    
C5    I1    S    
C3    C5    D    
C19   H14   S    
C6    C7    S    
C3    H32   S    
C24   H25   S    
C4    O6    A    
C11   C13   S    
C4    C30   S    
C7    H33   S    
C4    O5    A    
O1    Zn1   S    
C10   I4    S    
C20   C21   S    
I3    N1    S    
C16   H7    S    
C25   H28   S    
C14   C28   T    
C27   O2    S    
C26   H29   S    
C17   H9    S    
C12   H23   S    
C20   H16   S    
C2    H31   S    
C9    O10   A    
