data_mof_unit_694.cif
_audit_creation_date              2012-12-11T14:56:38-0500
_audit_creation_method            fapswitch 2.2
_symmetry_space_group_name_H-M    P1
_symmetry_Int_Tables_number       1
_space_group_crystal_system       triclinic
_cell_length_a                    10.542145
_cell_length_b                    10.646989
_cell_length_c                    17.106977
_cell_angle_alpha                 80.112942
_cell_angle_beta                  89.88966
_cell_angle_gamma                 118.847835
_cell_volume                      1648.85044949

loop_
_atom_site_label
_atom_site_type_symbol
_atom_type_description
_atom_site_fract_x
_atom_site_fract_y
_atom_site_fract_z
_atom_type_partial_charge
C1    C     C_R   0.221886 0.853735 0.128652 0.555975
C2    C     C_R   0.797675 0.420348 0.263286 -0.127918
C3    C     C_R   0.787436 0.406996 0.184780 -0.133502
C4    C     C_R   0.650550 0.340967 0.156942 0.027835
C5    C     C_1   0.668706 0.848084 0.205396 -0.025275
C6    C     C_1   0.680389 0.839019 0.274804 -0.026674
C7    C     C_1   0.180213 0.825165 0.211246 -0.047122
C8    C     C_1   0.151344 0.819566 0.279833 -0.044237
C9    C     C_1   0.663525 0.359801 0.780526 0.016989
C10   C     C_1   0.687252 0.404396 0.709966 0.071258
C11   C     C_R   0.614831 0.711890 0.805501 -0.120994
C12   C     C_R   0.635903 0.279730 0.086366 0.541571
C13   C     C_R   0.595527 0.698059 0.727650 0.343569
C14   C     C_R   0.669340 0.821380 0.666274 0.005375
C15   C     C_R   0.765003 0.957501 0.684200 -0.184676
C16   C     C_R   0.782766 0.973486 0.763136 0.018114
C17   C     C_R   0.696613 0.850210 0.824350 -0.049282
C18   C     C_R   0.273502 0.002299 0.744541 0.013817
C19   C     C_R   0.248717 0.975312 0.667961 -0.118459
C20   C     C_R   0.186976 0.833414 0.653313 -0.000124
C21   C     C_R   0.177682 0.720341 0.711909 -0.131447
C22   C     C_R   0.216762 0.747187 0.787225 -0.138985
C23   C     C_R   0.640383 0.858049 0.125308 0.552538
C24   C     C_R   0.257190 0.885083 0.806064 -0.007473
C25   C     C_R   0.686573 0.809983 0.357245 0.545844
C26   C     C_R   0.689659 0.396678 0.394454 0.548810
C27   C     C_R   0.104233 0.810345 0.359259 0.549817
C28   C     C_R   0.678019 0.798770 0.586186 0.554296
C29   C     C_R   0.717901 0.447055 0.625782 0.580257
C30   C     C_R   0.104782 0.804335 0.584198 0.540222
C31   C     C_R   0.287707 0.904277 0.887980 0.557947
C32   C     C_R   0.640285 0.290888 0.861885 0.526487
C33   C     C_R   0.648510 0.866714 0.899744 0.546338
C34   C     C_R   0.524939 0.303371 0.205806 -0.125653
C35   C     C_R   0.535596 0.318819 0.284719 -0.134787
C36   C     C_R   0.671365 0.370935 0.314327 0.031863
Cr1   Cr    Cr6+3 0.402240 0.783890 0.019450 1.026537
Cr2   Cr    Cr6+3 0.382360 0.097900 0.991800 1.064971
Cr3   Cr    Cr6+3 0.715380 0.118170 0.988700 1.073712
Cr4   Cr    Cr6+3 0.936650 0.882420 0.465510 1.027282
Cr5   Cr    Cr6+3 0.605770 0.565620 0.493360 1.092234
Cr6   Cr    Cr6+3 0.921340 0.550490 0.496380 1.042080
H1    H     H_    0.417815 0.252681 0.184949 0.146177
H2    H     H_    0.261007 0.063682 0.620664 0.175154
H3    H     H_    0.132473 0.610226 0.701074 0.145347
H4    H     H_    0.206562 0.656613 0.831920 0.158257
H5    H     H_    0.438468 0.286403 0.322937 0.133604
H6    H     H_    0.905092 0.469396 0.283972 0.144539
H7    H     H_    0.885539 0.439187 0.147458 0.140399
H8    H     H_    0.552984 0.615182 0.851496 0.162316
H9    H     H_    0.829653 0.049911 0.636358 0.179937
O1    O     O_R   0.521780 0.757110 0.108900 -0.507817
O2    O     O_R   0.513330 0.228330 0.898660 -0.499931
O3    O     O_R   0.739230 0.266130 0.888050 -0.499789
O4    O     O_R   0.712580 0.991850 0.918770 -0.456770
O5    O     O_3   0.499990 0.999980 0.999980 -0.290145
O6    O     O_R   0.083770 0.911170 0.376030 -0.506325
O7    O     O_R   0.808770 0.880340 0.383890 -0.494765
O8    O     O_R   0.584340 0.689460 0.394160 -0.511984
O9    O     O_R   0.614320 0.443940 0.423590 -0.502387
O10   O     O_R   0.805020 0.410040 0.421340 -0.518880
O11   O     O_R   0.049240 0.685450 0.403290 -0.502087
O12   O     O_R   0.275160 0.783810 0.101120 -0.493199
O13   O     O_R   0.077520 0.903010 0.551800 -0.520406
O14   O     O_R   0.802980 0.872780 0.546830 -0.519608
O15   O     O_R   0.578090 0.681300 0.569920 -0.435856
O16   O     O_R   0.608530 0.436370 0.586530 -0.419434
O17   O     O_R   0.798770 0.401880 0.597100 -0.492160
O18   O     O_R   0.043450 0.677890 0.566230 -0.514123
O19   O     O_3   0.821250 0.666180 0.485090 -0.296787
O20   O     O_R   0.237900 0.972600 0.090980 -0.503319
O21   O     O_R   0.511190 0.220540 0.061620 -0.512467
O22   O     O_R   0.736920 0.257720 0.063840 -0.514245
O23   O     O_R   0.710450 0.984050 0.081720 -0.488787
O24   O     O_R   0.524090 0.765520 0.933110 -0.536751
O25   O     O_R   0.277300 0.791600 0.938160 -0.510019
O26   O     O_R   0.240210 0.981010 0.915190 -0.433277
F1    F     F_    0.506146 0.562586 0.713109 -0.609762
C37   C     C_2   0.892022 0.118787 0.778169 0.620240
O27   O     O_2   0.961793 0.127637 0.835909 -0.460552
O28   O     O_R   0.919499 0.245812 0.724305 -0.694071
H10   H     H_    0.996862 0.337784 0.740697 0.334100
C38   C     C_2   0.307425 0.152451 0.753699 0.582070
O29   O     O_2   0.379539 0.255744 0.699434 -0.475352
O30   O     O_R   0.244113 0.176486 0.817075 -0.603899
H11   H     H_    0.274537 0.283529 0.813553 0.363683

loop_
_geom_bond_atom_site_label_1
_geom_bond_atom_site_label_2
_ccdc_geom_bond_type
C33   O4    A    
C30   O13   A    
C35   C36   A    
C35   H5    S    
O28   H10   S    
C3    H7    S    
C7    C8    T    
Cr5   O16   S    
Cr2   O21   S    
C20   C30   S    
O30   H11   S    
C1    O20   A    
Cr4   O19   S    
C18   C24   A    
C21   C22   A    
C26   O10   A    
C18   C19   A    
C5    C6    T    
Cr3   O3    S    
C15   C16   A    
Cr6   O19   S    
C34   C35   A    
Cr3   O23   S    
C9    C32   S    
Cr2   O20   S    
Cr1   O5    S    
C33   O24   A    
Cr3   O4    S    
C38   O29   D    
C16   C17   A    
C15   H9    S    
C4    C12   S    
C9    C10   T    
Cr6   O11   S    
Cr1   O24   S    
C29   O16   A    
C12   O22   A    
Cr6   O17   S    
C17   C33   S    
C1    O12   A    
C32   O3    A    
Cr1   O12   S    
C31   O26   A    
C21   H3    S    
C4    C34   A    
Cr4   O7    S    
Cr5   O8    S    
C27   O6    A    
C37   O28   S    
Cr1   O1    S    
C2    H6    S    
Cr6   O18   S    
C23   O1    A    
C28   O15   A    
C27   O11   A    
C29   O17   A    
Cr3   O5    S    
C5    C23   S    
C18   C38   S    
Cr6   O10   S    
C26   C36   S    
C38   O30   S    
Cr1   O25   S    
Cr4   O14   S    
C22   C24   A    
C25   O7    A    
C23   O23   A    
C3    C4    A    
C32   O2    A    
C30   O18   A    
C19   H2    S    
C2    C36   A    
C13   F1    S    
C11   C17   A    
Cr4   O6    S    
C22   H4    S    
C1    C7    S    
C34   H1    S    
Cr5   O9    S    
Cr5   O15   S    
Cr2   O26   S    
Cr4   O13   S    
C16   C37   S    
C19   C20   A    
C2    C3    A    
C24   C31   S    
C11   H8    S    
C11   C13   A    
C10   C29   S    
C31   O25   A    
Cr2   O2    S    
C28   O14   A    
Cr3   O22   S    
C12   O21   A    
C37   O27   D    
C6    C25   S    
Cr2   O5    S    
C20   C21   A    
C8    C27   S    
C14   C15   A    
C25   O8    A    
C14   C28   S    
C13   C14   A    
C26   O9    A    
Cr5   O19   S    
