data_mof_unit_680.cif
_audit_creation_date              2013-03-05T15:58:05-0500
_audit_creation_method            fapswitch 2.2
_symmetry_space_group_name_H-M    P1
_symmetry_Int_Tables_number       1
_space_group_crystal_system       triclinic
_cell_length_a                    15.150987
_cell_length_b                    13.886806
_cell_length_c                    11.059277
_cell_angle_alpha                 89.078585
_cell_angle_beta                  88.183469
_cell_angle_gamma                 90.726033
_cell_volume                      2325.18644848

loop_
_atom_site_label
_atom_site_type_symbol
_atom_site_description
_atom_site_fract_x
_atom_site_fract_y
_atom_site_fract_z
_atom_type_partial_charge
O1    O     O_R   0.370250 0.582280 0.500040 -0.576493
O2    O     O_R   0.370250 0.417720 0.500040 -0.591701
C1    C     C_R   0.328913 0.500288 0.503676 0.996863
O3    O     O_R   0.499970 0.582270 0.317700 -0.548210
O4    O     O_R   0.499970 0.417730 0.317700 -0.495731
C2    C     C_R   0.499022 0.500126 0.259972 0.970255
Cu1   Cu    Cu3+1 0.499990 0.597420 0.500010 1.152143
Cu2   Cu    Cu3+1 0.499990 0.402580 0.500010 1.127006
O5    O     O_R   0.629730 0.582260 0.499980 -0.461596
O6    O     O_R   0.629730 0.417740 0.499980 -0.539709
O7    O     O_R   0.500000 0.582270 0.682320 -0.562562
O8    O     O_R   0.500000 0.417730 0.682320 -0.565124
C3    C     C_R   0.671286 0.499958 0.503204 0.946651
C4    C     C_R   0.499488 0.498827 0.739903 0.997143
C5    C     C_3   0.429759 0.580485 0.072164 -0.354524
C6    C     C_3   0.460152 0.391927 0.076577 -0.372708
C7    C     C_3   0.445128 0.587931 0.927484 0.350442
C8    C     C_3   0.450584 0.399804 0.932036 0.368227
C9    C     C_3   0.598282 0.517402 0.063099 -0.405728
C10   C     C_3   0.497418 0.498213 0.121613 -0.405902
C11   C     C_3   0.499214 0.496182 0.877982 -0.342573
C12   C     C_3   0.595961 0.498193 0.921497 0.931339
C13   C     C_R   0.817492 0.569336 0.441451 0.640074
C14   C     C_R   0.768704 0.499217 0.508050 -0.238692
C15   C     C_R   0.814112 0.427573 0.573376 -0.102659
C16   C     C_R   0.905730 0.439787 0.590771 -0.058939
C17   C     C_R   0.954208 0.503680 0.511711 0.053557
C18   C     C_R   0.909884 0.564917 0.430686 -0.131500
C19   C     C_R   0.950780 0.388770 0.682578 -0.183817
C20   C     C_R   0.043056 0.392230 0.683519 0.673798
C21   C     C_R   0.091566 0.448790 0.598138 -0.136489
C22   C     C_R   0.047065 0.505884 0.513182 -0.186496
C23   C     C_R   0.095673 0.567224 0.431929 -0.144310
C24   C     C_R   0.051536 0.624704 0.348197 0.657914
C25   C     C_R   0.959334 0.622246 0.344442 -0.188040
C26   C     C_R   0.184047 0.451448 0.598123 0.558217
C27   C     C_R   0.232154 0.503663 0.509075 -0.349962
C28   C     C_R   0.188023 0.567830 0.433529 0.600792
C29   C     C_R   0.432602 0.794447 0.556207 -0.000414
C30   C     C_R   0.432995 0.202438 0.555720 0.001062
N1    N     N_R   0.499930 0.743810 0.499950 -0.288642
N2    N     N_R   0.499930 0.256190 0.499950 -0.262203
C31   C     C_R   0.570836 0.794791 0.450989 0.798203
C32   C     C_R   0.569831 0.208957 0.446786 0.775509
C33   C     C_R   0.575572 0.898046 0.450355 -0.112078
C34   C     C_R   0.574189 0.105709 0.445635 -0.129326
C35   C     C_R   0.506488 0.948700 0.507233 -0.016754
C36   C     C_R   0.506359 0.051730 0.506337 0.002344
C37   C     C_R   0.437308 0.896233 0.566930 -0.274275
C38   C     C_R   0.437310 0.100734 0.566208 -0.272418
C39   C     C_R   0.647087 0.952113 0.395205 -0.084047
C40   C     C_R   0.645065 0.054719 0.389240 -0.110064
C41   C     C_R   0.374744 0.046599 0.637336 0.564365
C42   C     C_R   0.375051 0.947119 0.638198 0.581984
C43   C     C_2   0.437397 0.681836 0.132796 0.879954
O9    O     O_2   0.504400 0.731155 0.123146 -0.576834
O10   O     O_R   0.365316 0.720916 0.197295 -0.609505
H1    H     H_    0.378924 0.786316 0.232315 0.361952
C44   C     C_2   0.521821 0.307236 0.112699 0.895996
O11   O     O_2   0.591978 0.293578 0.058985 -0.487401
O12   O     O_R   0.493511 0.238033 0.199711 -0.699216
H2    H     H_    0.534141 0.180768 0.203715 0.357075
F1    F     F_    0.085237 0.341814 0.770440 -0.521436
F2    F     F_    0.227118 0.412124 0.691693 -0.507510
F3    F     F_    0.234959 0.634408 0.366440 -0.526561
F4    F     F_    0.098266 0.678829 0.264196 -0.536568
C45   C     C_2   0.918407 0.672352 0.241015 1.014720
O13   O     O_2   0.863969 0.630148 0.181206 -0.520994
O14   O     O_R   0.945288 0.766165 0.208443 -0.668716
H3    H     H_    0.913203 0.792123 0.135999 0.372378
C46   C     C_2   0.349633 0.746676 0.597286 1.062624
O15   O     O_2   0.347706 0.693279 0.685681 -0.478781
O16   O     O_R   0.271461 0.769429 0.540031 -0.658248
H4    H     H_    0.217732 0.736762 0.580307 0.359281
C47   C     C_2   0.351025 0.247715 0.595418 1.080305
O17   O     O_2   0.348489 0.293242 0.688450 -0.431841
O18   O     O_R   0.274433 0.230963 0.531165 -0.722184
H5    H     H_    0.219534 0.257086 0.572796 0.377016
F5    F     F_    0.637123 0.744874 0.401451 -0.595653
F6    F     F_    0.634202 0.262571 0.390770 -0.638517
C48   C     C_2   0.726650 0.903065 0.346785 0.979620
O19   O     O_2   0.743134 0.903217 0.237837 -0.554642
O20   O     O_R   0.783546 0.858879 0.427091 -0.643948
H6    H     H_    0.836754 0.829849 0.384458 0.373156
C49   C     C_2   0.719446 0.106680 0.325429 0.975024
O21   O     O_2   0.707983 0.146814 0.228078 -0.509522
O22   O     O_R   0.803111 0.106514 0.375059 -0.682168
H7    H     H_    0.848585 0.143604 0.322998 0.364303
F7    F     F_    0.313841 0.088576 0.711558 -0.563609
F8    F     F_    0.315433 0.901907 0.714721 -0.568367
C50   C     C_2   0.333585 0.550842 0.109690 1.058777
O23   O     O_2   0.316274 0.534527 0.216565 -0.582946
O24   O     O_R   0.264180 0.546349 0.029353 -0.532875
H8    H     H_    0.205692 0.526928 0.070414 0.366547
C51   C     C_2   0.369305 0.356303 0.135405 0.969595
O25   O     O_2   0.311293 0.321898 0.074155 -0.414283
O26   O     O_R   0.354967 0.353035 0.260922 -0.704497
H9    H     H_    0.294662 0.325987 0.286754 0.353365
F9    F     F_    0.365390 0.584210 0.870644 -0.511680
F10   F     F_    0.363357 0.412487 0.901819 -0.499442
C52   C     C_2   0.478639 0.688814 0.885704 0.954661
O27   O     O_2   0.551141 0.703041 0.837287 -0.495997
O28   O     O_R   0.421533 0.766765 0.899098 -0.638805
H10   H     H_    0.448861 0.829779 0.867896 0.354246
C53   C     C_2   0.470305 0.300329 0.877604 0.979043
O29   O     O_2   0.538467 0.283360 0.820838 -0.536834
O30   O     O_R   0.410617 0.224408 0.903121 -0.628759
H11   H     H_    0.431170 0.161047 0.868498 0.351621
C54   C     C_2   0.636564 0.617192 0.089942 0.922848
O31   O     O_2   0.659055 0.675066 0.010153 -0.424199
O32   O     O_R   0.655107 0.640169 0.208497 -0.643918
H12   H     H_    0.689344 0.703243 0.211190 0.422610
C55   C     C_2   0.672046 0.456406 0.117406 1.011070
O33   O     O_2   0.742430 0.448223 0.060902 -0.424420
O34   O     O_R   0.665153 0.419359 0.235327 -0.719669
H13   H     H_    0.721215 0.386649 0.260882 0.368559
F11   F     F_    0.647520 0.562090 0.851778 -0.564744
F12   F     F_    0.634250 0.411447 0.894510 -0.551547
F13   F     F_    0.774535 0.641318 0.385957 -0.601837
C56   C     C_2   0.771527 0.333387 0.605482 0.919987
O35   O     O_2   0.802976 0.259713 0.564237 -0.541525
O36   O     O_R   0.698505 0.327849 0.685242 -0.619678
H14   H     H_    0.678029 0.258790 0.700082 0.369580
C57   C     C_2   0.903904 0.340794 0.787468 0.959396
O37   O     O_2   0.843452 0.381767 0.840390 -0.459683
O38   O     O_R   0.930461 0.250038 0.827739 -0.637719
H15   H     H_    0.893776 0.225348 0.900272 0.367763

loop_
_geom_bond_atom_site_label_1
_geom_bond_atom_site_label_2
_geom_bond_distance
_ccdc_geom_bond_type
C12   F11   1.383590 S    
C43   O9    1.218258 D    
O24   H8    1.014239 S    
C8    C11   1.616440 S    
O16   H4    1.013923 S    
C51   O25   1.223580 D    
O22   H7    1.013798 S    
C24   F4    1.360733 S    
O26   H9    1.014303 S    
Cu1   Cu2   2.705704 S    
C35   C37   1.409495 A    
O18   H5    1.012008 S    
Cu1   O7    2.023801 S    
C53   O30   1.399684 S    
C16   C17   1.417402 A    
C52   O27   1.219099 D    
C8    F10   1.386097 S    
C4    C11   1.526774 S    
C40   C49   1.483679 S    
C27   C28   1.402033 A    
Cu2   N2    2.032889 S    
C42   F8    1.358800 S    
C54   O32   1.390810 S    
C13   F13   1.349636 S    
C20   C21   1.402231 A    
O7    C4    1.313032 A    
C33   C39   1.425661 A    
C31   F5    1.335765 S    
C37   C42   1.413489 A    
C19   C57   1.484854 S    
C34   C40   1.426370 A    
C12   F12   1.376597 S    
C24   C25   1.398888 A    
C7    C52   1.542790 S    
O5    C3    1.312353 A    
O20   H6    1.012402 S    
C18   C25   1.421277 A    
C32   C34   1.436376 A    
O30   H11   1.013901 S    
C39   C48   1.481689 S    
C6    C10   1.663042 S    
C9    C54   1.532542 S    
C44   O11   1.219589 D    
C52   O28   1.401103 S    
C20   F1    1.360624 S    
N1    C31   1.371146 A    
O14   H3    1.013892 S    
N2    C32   1.374072 A    
O3    Cu1   2.030535 S    
C48   O20   1.397432 S    
C56   O36   1.393483 S    
C48   O19   1.222678 D    
C33   C35   1.406129 A    
C5    C10   1.643264 S    
C34   C36   1.410416 A    
C44   O12   1.402552 S    
C38   C41   1.413560 A    
C49   O22   1.397226 S    
C45   O13   1.223146 D    
C35   C36   1.430656 A    
C32   F6    1.348233 S    
C9    C12   1.594205 S    
C14   C15   1.418052 A    
C29   N1    1.383530 A    
C50   O23   1.219578 D    
C46   O16   1.397898 S    
C15   C16   1.415843 A    
C41   C42   1.381414 A    
C7    C11   1.617094 S    
C39   C40   1.426091 A    
C3    C14   1.478811 S    
O1    C1    1.291948 A    
C6    C44   1.565951 S    
C5    C43   1.573236 S    
C47   O17   1.216046 D    
C19   C20   1.398666 A    
C50   O24   1.399430 S    
C47   O18   1.398723 S    
C21   C22   1.412696 A    
C28   F3    1.356029 S    
C25   C45   1.485692 S    
Cu2   O8    2.030530 S    
C23   C24   1.403868 A    
C13   C18   1.403310 A    
C7    F9    1.380202 S    
C49   O21   1.222675 D    
O3    C2    1.316285 A    
C29   C37   1.421428 A    
O8    C4    1.302633 A    
C43   O10   1.405025 S    
C41   F7    1.358688 S    
C15   C56   1.483987 S    
O28   H10   1.014042 S    
C56   O35   1.222881 D    
C57   O38   1.398139 S    
C55   O33   1.226248 D    
C5    C7    1.611072 S    
C26   C27   1.394622 A    
C6    C51   1.574216 S    
C29   C46   1.469565 S    
O32   H12   1.013632 S    
C17   C22   1.407433 A    
O1    Cu1   1.974239 S    
Cu2   O6    1.974267 S    
O2    Cu2   1.979538 S    
C30   N2    1.375648 A    
O6    C3    1.298374 A    
O4    Cu2   2.023806 S    
C51   O26   1.398130 S    
C2    C10   1.531768 S    
C53   O29   1.219008 D    
C23   C28   1.399787 A    
C30   C47   1.457582 S    
C22   C23   1.411722 A    
C9    C10   1.657280 S    
O2    C1    1.314023 A    
C8    C53   1.544562 S    
C46   O15   1.216836 D    
C31   C33   1.434668 A    
C26   F2    1.352248 S    
C54   O31   1.221415 D    
O10   H1    1.014374 S    
O4    C2    1.301744 A    
O38   H15   1.013911 S    
C30   C38   1.417755 A    
C36   C38   1.408748 A    
Cu1   N1    2.032891 S    
O12   H2    1.013067 S    
C13   C14   1.400440 A    
C5    C50   1.551090 S    
Cu1   O5    1.979573 S    
C1    C27   1.466703 S    
C16   C19   1.425387 A    
C6    C8    1.611750 S    
C17   C18   1.416052 A    
C9    C55   1.541881 S    
C21   C26   1.401187 A    
C45   O14   1.398211 S    
O36   H14   1.013439 S    
C11   C12   1.557271 S    
O34   H13   1.014176 S    
C57   O37   1.222749 D    
C55   O34   1.394537 S    
