data_mof_unit_1386.cif
_audit_creation_date              2013-03-05T15:48:29-0500
_audit_creation_method            fapswitch 2.2
_symmetry_space_group_name_H-M    P1
_symmetry_Int_Tables_number       1
_space_group_crystal_system       triclinic
_cell_length_a                    10.168878
_cell_length_b                    10.826608
_cell_length_c                    19.198197
_cell_angle_alpha                 90.219306
_cell_angle_beta                  80.592056
_cell_angle_gamma                 94.945663
_cell_volume                      2077.30925191

loop_
_atom_site_label
_atom_site_type_symbol
_atom_site_description
_atom_site_fract_x
_atom_site_fract_y
_atom_site_fract_z
_atom_type_partial_charge
O1    O     O_R   0.431050 0.692470 0.505750 -0.647908
O2    O     O_R   0.568950 0.307530 0.494250 -0.653056
O3    O     O_R   0.651120 0.659650 0.487410 -0.611344
O4    O     O_R   0.348880 0.340350 0.512590 -0.611386
C1    C     C_R   0.555828 0.732498 0.497219 0.942743
C2    C     C_R   0.444227 0.267537 0.506469 0.936342
O5    O     O_R   0.389930 0.516430 0.611030 -0.615254
O6    O     O_R   0.610070 0.483570 0.388970 -0.613855
O7    O     O_R   0.610000 0.483610 0.592700 -0.637464
O8    O     O_R   0.390000 0.516390 0.407300 -0.636326
C3    C     C_R   0.499066 0.499006 0.634583 0.906269
C4    C     C_R   0.500327 0.499566 0.365538 0.914420
Zn1   Zn    Zn3+2 0.353060 0.521920 0.512240 0.962454
Zn2   Zn    Zn3+2 0.646940 0.478080 0.487760 0.958875
C5    C     C_R   0.373423 0.504134 0.755883 -0.258224
C6    C     C_R   0.605644 0.450337 0.244489 -0.269832
H1    H     H_    0.284561 0.522247 0.734603 0.212410
H2    H     H_    0.689659 0.417984 0.265200 0.193104
C7    C     C_R   0.365050 0.492485 0.828674 0.267329
C8    C     C_R   0.605810 0.447850 0.171993 0.279405
C9    C     C_R   0.480924 0.468042 0.856004 -0.155482
C10   C     C_R   0.495584 0.489474 0.145256 -0.143033
C11   C     C_R   0.601554 0.451103 0.810922 0.469227
C12   C     C_R   0.386734 0.533154 0.190912 0.487194
C13   C     C_R   0.607920 0.464791 0.738269 -0.288500
C14   C     C_R   0.392275 0.539785 0.263113 -0.309127
H3    H     H_    0.702277 0.456901 0.703734 0.180507
H4    H     H_    0.313139 0.579289 0.298478 0.167491
C15   C     C_R   0.494135 0.490587 0.710654 -0.154647
C16   C     C_R   0.499824 0.496732 0.289885 -0.140925
N1    N     N_R   0.517727 0.373613 0.964983 -0.134778
N2    N     N_R   0.452897 0.580171 0.036311 -0.086887
N3    N     N_R   0.521389 0.378930 0.033703 -0.124652
N4    N     N_R   0.448511 0.574644 0.967726 -0.118570
C17   C     C_R   0.489867 0.482626 0.070210 0.399482
C18   C     C_R   0.481079 0.471419 0.931247 0.419692
H5    H     H_    0.615606 0.105583 0.518043 0.174996
H6    H     H_    0.385082 0.895448 0.537590 0.167007
C19   C     C_2   0.587632 0.864169 0.501655 -0.365121
C20   C     C_2   0.412814 0.135965 0.516295 -0.362416
C21   C     C_2   0.487930 0.934413 0.522986 -0.151751
C22   C     C_2   0.512743 0.066234 0.520788 -0.151088
H7    H     H_    0.310220 0.096017 0.518961 0.149922
H8    H     H_    0.690403 0.903757 0.486909 0.149949
H9    H     H_    0.116144 0.443272 0.446322 0.144497
H10   H     H_    0.884117 0.558080 0.553108 0.147171
N5    N     N_2   0.842710 0.448880 0.471430 0.031937
N6    N     N_2   0.157290 0.551120 0.528570 0.033468
C23   C     C_2   0.925490 0.504880 0.508031 0.058936
C24   C     C_2   0.074632 0.495756 0.491674 0.055604
N7    N     N_R   0.238719 0.504161 0.873686 0.215604
O9    O     O_R   0.203243 0.435893 0.930407 -0.375376
O10   O     O_R   0.152145 0.572810 0.853991 -0.375751
N8    N     N_R   0.719705 0.406137 0.126370 0.205309
O11   O     O_R   0.773596 0.469425 0.069844 -0.365273
O12   O     O_R   0.780415 0.314410 0.145987 -0.402680
O13   O     O_3   0.716667 0.436807 0.838830 -0.574476
C25   C     C_3   0.755791 0.316027 0.824686 0.057381
H11   H     H_    0.792516 0.304798 0.767348 0.137995
H12   H     H_    0.671436 0.244434 0.842422 0.148744
C26   C     C_3   0.869209 0.294279 0.864706 -0.612444
H13   H     H_    0.835561 0.304378 0.922325 0.288154
H14   H     H_    0.900596 0.199288 0.854389 0.188016
H15   H     H_    0.956219 0.362496 0.847181 0.284910
O14   O     O_3   0.280542 0.574897 0.162758 -0.591099
C27   C     C_3   0.155606 0.527891 0.201142 0.033430
H16   H     H_    0.128316 0.585154 0.248635 0.158960
H17   H     H_    0.155737 0.428967 0.217231 0.149999
C28   C     C_3   0.048325 0.535606 0.155107 -0.588338
H18   H     H_    0.068834 0.475508 0.108243 0.289700
H19   H     H_    0.949102 0.504300 0.186013 0.216627
H20   H     H_    0.046297 0.632762 0.137221 0.257811
O15   O     O_3   0.099616 0.593809 0.591349 -0.556338
C29   C     C_3   0.164705 0.710635 0.601595 0.209588
H21   H     H_    0.175893 0.769968 0.553309 0.118422
H22   H     H_    0.263741 0.700784 0.616801 0.184645
C30   C     C_3   0.081296 0.775407 0.661516 -0.862934
H23   H     H_    0.069617 0.719626 0.710940 0.292570
H24   H     H_    0.131597 0.868086 0.670109 0.214212
H25   H     H_    0.980819 0.787310 0.648215 0.255334
O16   O     O_3   0.900367 0.404502 0.409070 -0.571218
C31   C     C_3   0.832737 0.288907 0.398570 0.221011
H26   H     H_    0.734733 0.300830 0.382732 0.187884
H27   H     H_    0.818781 0.229330 0.446889 0.121618
C32   C     C_3   0.915444 0.222767 0.338959 -0.888810
H28   H     H_    0.015013 0.208639 0.352788 0.254407
H29   H     H_    0.863332 0.131080 0.330024 0.229516
H30   H     H_    0.929370 0.278858 0.289535 0.274087

loop_
_geom_bond_atom_site_label_1
_geom_bond_atom_site_label_2
_geom_bond_distance
_ccdc_geom_bond_type
C27   H17   1.115972 S    
C26   H15   1.110610 S    
O15   C29   1.404604 S    
O16   C31   1.405289 S    
N5    C23   1.293081 D    
C9    C18   1.445108 S    
C32   H28   1.110830 S    
C5    C7    1.391646 A    
C10   C17   1.452744 S    
H10   C23   1.084710 S    
C29   H22   1.107101 S    
O1    C1    1.289339 A    
C7    C9    1.410915 A    
C12   C14   1.397770 A    
C28   H18   1.110813 S    
C30   H25   1.110868 S    
C27   C28   1.519755 S    
C6    C16   1.397509 A    
H5    C22   1.087987 S    
C11   O13   1.384967 S    
C21   C22   1.427288 S    
O4    Zn1   1.962594 S    
C28   H19   1.109885 S    
C20   H7    1.087660 S    
C29   C30   1.520493 S    
N1    N3    1.326790 A    
O6    C4    1.294517 A    
C25   C26   1.521124 S    
N6    C24   1.293073 D    
C27   H16   1.111451 S    
O2    C2    1.288370 A    
C5    C15   1.401375 A    
C30   H24   1.110631 S    
C13   C15   1.398302 A    
N8    O12   1.301447 A    
C29   H21   1.114640 S    
C32   H29   1.110557 S    
N7    O9    1.301528 A    
N2    C17   1.354220 A    
C2    C20   1.438977 S    
H6    C21   1.085974 S    
O4    C2    1.291954 A    
C25   H11   1.112828 S    
C30   H23   1.111007 S    
C31   H26   1.106280 S    
N7    O10   1.301614 A    
N2    N4    1.325675 A    
C28   H20   1.110663 S    
O5    C3    1.293249 A    
O7    Zn2   1.989742 S    
C6    C8    1.391680 A    
C26   H14   1.110465 S    
O7    C3    1.296823 A    
C3    C15   1.456006 S    
Zn2   N5    2.016204 S    
O3    Zn2   1.962593 S    
O8    C4    1.294108 A    
C12   O14   1.392593 S    
C8    N8    1.438064 S    
C8    C10   1.414161 A    
C14   C16   1.396780 A    
C31   H27   1.114656 S    
C9    C11   1.406387 A    
C10   C12   1.409610 A    
O1    Zn1   1.941889 S    
C32   H30   1.111230 S    
C5    H1    1.083397 S    
N8    O11   1.301529 A    
O6    Zn2   1.994578 S    
C4    C16   1.453444 S    
N6    O15   1.349657 S    
O3    C1    1.291305 A    
O8    Zn1   1.989742 S    
Zn1   N6    2.016203 S    
C19   H8    1.087649 S    
C13   H3    1.083160 S    
C31   C32   1.520752 S    
C14   H4    1.081653 S    
C1    C19   1.439665 S    
O14   C27   1.414707 S    
O13   C25   1.411944 S    
H9    C24   1.084703 S    
C20   C22   1.330943 D    
N3    C17   1.355336 A    
N4    C18   1.353181 A    
N5    O16   1.350037 S    
C26   H13   1.111058 S    
O2    Zn2   1.941888 S    
C7    N7    1.441279 S    
O5    Zn1   1.994576 S    
C11   C13   1.393587 A    
C19   C21   1.329966 D    
C6    H2    1.083702 S    
C23   C24   1.509421 S    
N1    C18   1.353454 A    
C25   H12   1.115544 S    
