data_mof_unit_2432.cif
_audit_creation_date              2012-12-10T19:44:56-0500
_audit_creation_method            fapswitch 2.2
_symmetry_space_group_name_H-M    P1
_symmetry_Int_Tables_number       1
_space_group_crystal_system       triclinic
_cell_length_a                    15.053821
_cell_length_b                    10.813953
_cell_length_c                    13.681489
_cell_angle_alpha                 89.967909
_cell_angle_beta                  89.425556
_cell_angle_gamma                 89.678777
_cell_volume                      2227.08033227

loop_
_atom_site_label
_atom_site_type_symbol
_atom_type_description
_atom_site_fract_x
_atom_site_fract_y
_atom_site_fract_z
_atom_type_partial_charge
C1    C     C_R   0.497721 0.262168 0.499909 0.805362
C2    C     C_R   0.502279 0.737832 0.500090 0.805362
C3    C     C_R   0.041462 0.340504 0.627498 -0.180218
C4    C     C_R   0.958538 0.659496 0.372502 -0.180218
C5    C     C_R   0.296297 0.257442 0.277820 -0.092157
C6    C     C_R   0.703703 0.742558 0.722180 -0.092157
C7    C     C_R   0.336548 0.194517 0.355086 -0.090723
C8    C     C_R   0.663452 0.805483 0.644914 -0.090723
C9    C     C_R   0.413142 0.122348 0.338284 0.118854
C10   C     C_R   0.586858 0.877652 0.661716 0.118854
C11   C     C_R   0.447381 0.111458 0.242755 -0.153557
C12   C     C_R   0.552619 0.888542 0.757245 -0.153557
C13   C     C_R   0.406734 0.174229 0.165619 -0.137051
C14   C     C_R   0.593266 0.825770 0.834381 -0.137051
C15   C     C_R   0.331589 0.247726 0.183225 -0.094498
C16   C     C_R   0.668411 0.752274 0.816775 -0.094498
C17   C     C_R   0.465030 0.933637 0.421844 -0.206777
C18   C     C_R   0.534970 0.066363 0.578156 -0.206777
C19   C     C_R   0.504320 0.871699 0.500315 -0.069476
C20   C     C_R   0.495679 0.128301 0.499685 -0.069476
C21   C     C_R   0.540693 0.938338 0.579081 0.003164
C22   C     C_R   0.459307 0.061662 0.420919 0.003164
C23   C     C_R   0.328834 0.495294 0.500524 0.835404
C24   C     C_R   0.671166 0.504706 0.499476 0.835405
C25   C     C_R   0.556338 0.422584 0.792678 0.029354
C26   C     C_R   0.443662 0.577415 0.207322 0.029354
C27   C     C_R   0.443756 0.577453 0.793828 0.056661
C28   C     C_R   0.556244 0.422547 0.206172 0.056661
C29   C     C_R   0.442511 0.579477 0.896939 -0.014542
C30   C     C_R   0.557489 0.420523 0.103061 -0.014542
C31   C     C_R   0.500031 0.500031 0.948161 0.083994
C32   C     C_R   0.499969 0.499969 0.051839 0.083994
C33   C     C_R   0.557602 0.420630 0.895760 -0.015203
C34   C     C_R   0.442398 0.579370 0.104240 -0.015202
C35   C     C_R   0.385424 0.658742 0.949806 -0.197254
C36   C     C_R   0.614576 0.341258 0.050194 -0.197254
C37   C     C_R   0.385309 0.658619 0.052544 -0.190612
C38   C     C_R   0.614691 0.341381 0.947456 -0.190612
C39   C     C_R   0.814850 0.588256 0.435790 0.090332
C40   C     C_R   0.185150 0.411744 0.564210 0.090332
C41   C     C_R   0.767626 0.508421 0.498602 -0.123286
C42   C     C_R   0.232374 0.491579 0.501398 -0.123286
C43   C     C_R   0.811999 0.429544 0.562471 -0.250928
C44   C     C_R   0.188001 0.570456 0.437529 -0.250928
C45   C     C_R   0.904395 0.424981 0.564077 0.072374
C46   C     C_R   0.095605 0.575019 0.435923 0.072374
C47   C     C_R   0.953176 0.502185 0.499854 0.013043
C48   C     C_R   0.046824 0.497815 0.500146 0.013043
C49   C     C_R   0.908462 0.584045 0.435562 0.046039
C50   C     C_R   0.091537 0.415955 0.564438 0.046039
C51   C     C_R   0.949149 0.344359 0.627904 0.142310
C52   C     C_R   0.050851 0.655641 0.372096 0.142310
Cu1   Cu    Cu3+1 0.500010 0.499980 0.597420 0.969516
Cu2   Cu    Cu3+1 0.499990 0.500020 0.402580 0.969516
H1    H     H_    0.435856 0.881949 0.362389 0.156279
H2    H     H_    0.564144 0.118051 0.637610 0.156279
H3    H     H_    0.600218 0.362207 0.751230 0.130894
H4    H     H_    0.399782 0.637793 0.248770 0.130894
H5    H     H_    0.400073 0.638048 0.753263 0.133174
H6    H     H_    0.599927 0.361952 0.246737 0.133174
H7    H     H_    0.340850 0.720786 0.911720 0.153393
H8    H     H_    0.659150 0.279214 0.088280 0.153393
H9    H     H_    0.340607 0.720522 0.091543 0.163225
H10   H     H_    0.659393 0.279477 0.908457 0.163225
H11   H     H_    0.773006 0.370238 0.609711 0.181182
H12   H     H_    0.226994 0.629761 0.390289 0.181182
H13   H     H_    0.072871 0.277858 0.678062 0.205195
H14   H     H_    0.927129 0.722142 0.321938 0.205195
H15   H     H_    0.300786 0.297211 0.123585 0.143301
H16   H     H_    0.699214 0.702789 0.876415 0.143301
H17   H     H_    0.238104 0.314373 0.291440 0.143335
H18   H     H_    0.761896 0.685627 0.708560 0.143335
H19   H     H_    0.309051 0.203572 0.428147 0.131889
H20   H     H_    0.690949 0.796428 0.571853 0.131889
H21   H     H_    0.506474 0.056524 0.228462 0.137721
H22   H     H_    0.493526 0.943476 0.771538 0.137721
H23   H     H_    0.434062 0.166972 0.092348 0.143873
H24   H     H_    0.565938 0.833027 0.907652 0.143873
N1    N     N_R   0.499960 0.499900 0.743810 -0.181251
N2    N     N_R   0.500040 0.500100 0.256190 -0.181251
O1    O     O_R   0.500000 0.319630 0.582270 -0.576767
O2    O     O_R   0.500000 0.680370 0.417730 -0.576767
O3    O     O_R   0.499990 0.319660 0.417730 -0.583225
O4    O     O_R   0.500010 0.680340 0.582270 -0.583225
O5    O     O_R   0.370260 0.499960 0.582280 -0.555396
O6    O     O_R   0.629740 0.500040 0.417720 -0.555396
O7    O     O_R   0.370250 0.499990 0.417740 -0.594995
O8    O     O_R   0.629750 0.500010 0.582260 -0.594995
I1    I     I_    0.743989 0.720909 0.348198 -0.387532
I2    I     I_    0.256011 0.279091 0.651802 -0.387532
I3    I     I_    0.883512 0.224158 0.728427 -0.394422
I4    I     I_    0.116488 0.775842 0.271573 -0.394422

loop_
_geom_bond_atom_site_label_1
_geom_bond_atom_site_label_2
_ccdc_geom_bond_type
C5    H17   S    
C27   C29   A    
C18   C21   A    
C44   H12   S    
C7    H19   S    
Cu1   Cu2   S    
C6    H18   S    
C23   C42   S    
C25   H3    S    
C4    C52   A    
Cu1   O4    S    
Cu1   N1    S    
C27   N1    A    
Cu2   O7    S    
C9    C22   S    
C45   C51   A    
C1    O1    A    
C34   C37   A    
C46   C52   A    
Cu1   O1    S    
C51   I3    S    
C2    O4    A    
C26   C34   A    
C31   C32   A    
C31   C33   A    
C17   H1    S    
C38   H10   S    
C18   H2    S    
C40   C42   A    
C23   O7    A    
C29   C31   A    
C24   C41   S    
C41   C43   A    
C42   C44   A    
C36   H8    S    
Cu2   O3    S    
C37   H9    S    
C3    C50   A    
C44   C46   A    
Cu2   N2    S    
C45   C47   A    
C10   C21   S    
C15   H15   S    
C13   H23   S    
C16   H16   S    
C47   C49   A    
C4    H14   S    
C3    C51   A    
C6    C8    A    
C26   N2    A    
C32   C34   A    
C26   H4    S    
C47   C48   A    
C43   H11   S    
C8    H20   S    
C35   H7    S    
C48   C50   A    
C9    C11   A    
C28   H6    S    
C10   C12   A    
C39   C49   A    
C12   C14   A    
C13   C15   A    
C12   H22   S    
C14   C16   A    
C2    O2    A    
Cu2   O2    S    
Cu2   O6    S    
C7    C9    A    
C1    C20   S    
C35   C37   A    
C2    C19   S    
C25   N1    A    
C24   O8    A    
C3    H13   S    
C17   C22   A    
C20   C22   A    
Cu1   O5    S    
C1    O3    A    
C29   C35   A    
C33   C38   A    
C30   C36   A    
C4    C49   A    
C36   C38   A    
C5    C7    A    
C43   C45   A    
C11   H21   S    
C30   C32   A    
C11   C13   A    
C40   C50   A    
C28   C30   A    
C17   C19   A    
Cu1   O8    S    
C18   C20   A    
C14   H24   S    
C28   N2    A    
C5    C15   A    
C52   I4    S    
C6    C16   A    
C46   C48   A    
C39   C41   A    
C8    C10   A    
C23   O5    A    
C27   H5    S    
C40   I2    S    
C24   O6    A    
C39   I1    S    
C25   C33   A    
C19   C21   A    
