data_mof_unit_960.cif
_audit_creation_date              2012-10-26T20:06:25-0400
_audit_creation_method            fapswitch 2.2
_symmetry_space_group_name_H-M    P1
_symmetry_Int_Tables_number       1
_space_group_crystal_system       triclinic
_cell_length_a                    10.831588
_cell_length_b                    9.687498
_cell_length_c                    14.332933
_cell_angle_alpha                 90.302728
_cell_angle_beta                  99.59753
_cell_angle_gamma                 89.775939
_cell_volume                      1482.89039589

loop_
_atom_site_label
_atom_site_type_symbol
_atom_type_description
_atom_site_fract_x
_atom_site_fract_y
_atom_site_fract_z
_atom_type_partial_charge
C1    C     C_R   0.262601 0.500134 0.501052 0.572639
C2    C     C_1   0.499743 0.500249 0.957231 0.048065
C3    C     C_R   0.060333 0.377642 0.481323 -0.100671
C4    C     C_R   0.939666 0.622358 0.518677 -0.100674
C5    C     C_R   0.932252 0.377761 0.480072 -0.104145
C6    C     C_R   0.067748 0.622239 0.519928 -0.104144
C7    C     C_R   0.871438 0.499968 0.499075 0.006787
C8    C     C_R   0.128562 0.500032 0.500925 0.006789
C9    C     C_R   0.414515 0.075471 0.433874 0.280186
C10   C     C_R   0.585485 0.924529 0.566126 0.280186
C11   C     C_R   0.586051 0.075647 0.565578 0.283261
C12   C     C_R   0.737399 0.499866 0.498948 0.572637
C13   C     C_R   0.413949 0.924353 0.434422 0.283261
C14   C     C_R   0.501669 0.499685 0.331500 0.578532
C15   C     C_R   0.498331 0.500315 0.668500 0.578536
C16   C     C_1   0.501360 0.499171 0.229077 0.023491
C17   C     C_1   0.498640 0.500829 0.770922 0.023496
C18   C     C_1   0.500867 0.499270 0.143558 0.012897
C19   C     C_1   0.499133 0.500730 0.856442 0.012898
C20   C     C_1   0.500257 0.499751 0.042769 0.048065
Cu1   Cu    Cu3+1 0.500000 0.640660 0.500000 1.139598
Cu2   Cu    Cu3+1 0.500000 0.359340 0.500000 1.139598
H1    H     H_    0.105471 0.282095 0.466204 0.196306
H2    H     H_    0.894528 0.717905 0.533796 0.196305
H3    H     H_    0.880923 0.282656 0.463443 0.182432
H4    H     H_    0.119077 0.717344 0.536556 0.182432
H5    H     H_    0.234017 0.352473 0.269848 0.352697
H6    H     H_    0.765995 0.647529 0.730148 0.352698
H7    H     H_    0.801598 0.351805 0.705235 0.353338
H8    H     H_    0.198404 0.648195 0.294762 0.353339
N1    N     N_R   0.500000 0.852070 0.500000 -0.318596
N2    N     N_R   0.500000 0.147930 0.500000 -0.318596
O1    O     O_R   0.319640 0.618740 0.499990 -0.453321
O2    O     O_2   0.182082 0.105348 0.322589 -0.212126
O3    O     O_3   0.280869 0.333685 0.334028 -0.507372
O4    O     O_2   0.817919 0.894652 0.677410 -0.212133
O5    O     O_2   0.631866 0.863393 0.751088 -0.248381
O6    O     O_3   0.719131 0.666315 0.665972 -0.507373
O7    O     O_2   0.718224 0.107979 0.744786 -0.187918
O8    O     O_2   0.831057 0.131441 0.610912 -0.278893
O9    O     O_3   0.717846 0.334608 0.667285 -0.496502
O10   O     O_2   0.168943 0.868560 0.389087 -0.278891
O11   O     O_2   0.281777 0.892020 0.255214 -0.187921
O12   O     O_R   0.680360 0.381260 0.500010 -0.453321
O13   O     O_3   0.282154 0.665392 0.332715 -0.496503
O14   O     O_R   0.680360 0.618740 0.500010 -0.460677
O15   O     O_R   0.319640 0.381260 0.499990 -0.460678
O16   O     O_R   0.500000 0.618810 0.376050 -0.434755
O17   O     O_R   0.500000 0.381190 0.623950 -0.434756
O18   O     O_R   0.500000 0.618810 0.623950 -0.430055
O19   O     O_R   0.500000 0.381190 0.376050 -0.430056
O20   O     O_2   0.368135 0.136607 0.248912 -0.248386
S1    S     S_3+6 0.311677 0.164217 0.336226 0.097333
S2    S     S_3+6 0.688323 0.835783 0.663774 0.097333
S3    S     S_3+6 0.711439 0.164345 0.646749 0.105857
S4    S     S_3+6 0.288561 0.835655 0.353251 0.105856

loop_
_geom_bond_atom_site_label_1
_geom_bond_atom_site_label_2
_ccdc_geom_bond_type
C6    C8    A    
Cu1   O1    S    
O3    S1    S    
C1    C8    S    
C5    C7    A    
H8    O13   S    
C3    H1    S    
C14   O19   A    
O6    S2    S    
H6    O6    S    
Cu1   O16   S    
H7    O9    S    
C13   S4    S    
O9    S3    S    
Cu2   O15   S    
C1    O1    A    
C12   O12   A    
Cu1   Cu2   S    
O10   S4    D    
Cu1   N1    S    
C6    H4    S    
Cu2   N2    S    
C4    C7    A    
C5    H3    S    
O5    S2    D    
C16   C18   T    
Cu1   O18   S    
C17   C19   T    
C11   N2    A    
C3    C8    A    
C18   C20   S    
C15   O17   A    
C7    C12   S    
C4    H2    S    
C14   C16   S    
C9    S1    S    
C10   C11   A    
C10   S2    S    
C2    C20   T    
C3    C5    A    
O11   S4    D    
C11   S3    S    
O4    S2    D    
O20   S1    D    
O2    S1    D    
C4    C6    A    
Cu1   O14   S    
C15   O18   A    
Cu2   O17   S    
C15   C17   S    
C9    C13   A    
C1    O15   A    
C14   O16   A    
C9    N2    A    
H5    O3    S    
C2    C19   S    
C10   N1    A    
C13   N1    A    
Cu2   O12   S    
O13   S4    S    
Cu2   O19   S    
O7    S3    D    
C12   O14   A    
O8    S3    D    
