data_mof_unit_1161.cif
_audit_creation_date              2012-12-10T18:35:43-0500
_audit_creation_method            fapswitch 2.2
_symmetry_space_group_name_H-M    P1
_symmetry_Int_Tables_number       1
_space_group_crystal_system       triclinic
_cell_length_a                    13.526243
_cell_length_b                    13.896424
_cell_length_c                    15.074108
_cell_angle_alpha                 89.521276
_cell_angle_beta                  90.870816
_cell_angle_gamma                 72.495967
_cell_volume                      2701.66600898

loop_
_atom_site_label
_atom_site_type_symbol
_atom_type_description
_atom_site_fract_x
_atom_site_fract_y
_atom_site_fract_z
_atom_type_partial_charge
C1    C     C_R   0.500348 0.499522 0.669989 0.848126
C2    C     C_R   0.957048 0.483326 0.548871 0.076930
C3    C     C_R   0.870579 0.476054 0.497955 0.088063
C4    C     C_R   0.023733 0.535401 0.512147 0.034927
C5    C     C_R   0.984013 0.602057 0.438904 0.148301
C6    C     C_R   0.894301 0.599888 0.393370 -0.235049
C7    C     C_R   0.843163 0.532009 0.418409 -0.224813
C8    C     C_R   0.130311 0.518062 0.538446 0.035386
C9    C     C_R   0.135876 0.657110 0.438679 -0.257030
C10   C     C_R   0.807813 0.419404 0.530977 -0.104086
C11   C     C_R   0.552475 0.425426 0.910145 -0.296925
C12   C     C_R   0.699214 0.446404 0.503250 0.796680
C13   C     C_R   0.558304 0.419547 0.817436 0.502182
C14   C     C_R   0.495092 0.500287 0.766323 -0.134157
C15   C     C_R   0.422982 0.581457 0.806585 -0.313244
C16   C     C_R   0.413009 0.584720 0.898720 0.123061
C17   C     C_R   0.480709 0.506657 0.950727 -0.000790
C18   C     C_R   0.511838 0.582217 0.092965 -0.164346
C19   C     C_R   0.517096 0.580295 0.185196 -0.205178
C20   C     C_R   0.493765 0.502888 0.232778 -0.026503
C21   C     C_R   0.464362 0.427970 0.187047 -0.184728
C22   C     C_R   0.458091 0.430634 0.094916 -0.196754
C23   C     C_R   0.498871 0.500667 0.329715 0.775267
C24   C     C_R   0.481066 0.508130 0.047710 0.140203
C25   C     C_R   0.415369 0.922592 0.513414 -0.026400
C26   C     C_R   0.412396 0.824648 0.488238 0.256559
C27   C     C_R   0.592871 0.760363 0.514509 -0.009080
C28   C     C_R   0.602063 0.859466 0.513456 -0.030979
C29   C     C_R   0.511128 0.943465 0.512762 0.040851
C30   C     C_R   0.555363 0.096208 0.574906 -0.309042
C31   C     C_R   0.549134 0.198919 0.569659 0.070937
C32   C     C_R   0.458157 0.217728 0.432632 0.070176
C33   C     C_R   0.464301 0.114562 0.434590 -0.303636
C34   C     C_R   0.300058 0.552978 0.503138 0.777795
C35   C     C_R   0.512771 0.051954 0.506799 0.160573
C36   C     C_R   0.037298 0.666204 0.407319 -0.212512
C37   C     C_R   0.186010 0.580242 0.498783 -0.059370
C38   C     C_R   0.833879 0.366782 0.611802 -0.170716
C39   C     C_R   0.910630 0.383639 0.666168 -0.146784
C40   C     C_R   0.966415 0.447012 0.637321 -0.216391
Cu1   Cu    Cu3+1 0.500000 0.403570 0.500010 0.942662
Cu2   Cu    Cu3+1 0.500000 0.596430 0.499990 0.925373
H1    H     H_    0.177088 0.702242 0.406298 0.157689
H2    H     H_    0.372231 0.640952 0.765462 0.153855
H3    H     H_    0.532913 0.640618 0.056807 0.123480
H4    H     H_    0.541002 0.638241 0.219102 0.141495
H5    H     H_    0.445632 0.367731 0.222395 0.140394
H6    H     H_    0.435595 0.372285 0.060237 0.127195
H7    H     H_    0.663123 0.698954 0.522987 0.163222
H8    H     H_    0.866810 0.646969 0.334947 0.140274
H9    H     H_    0.590709 0.052580 0.633158 0.116104
H10   H     H_    0.583915 0.230953 0.621965 0.152287
H11   H     H_    0.419921 0.264710 0.377087 0.112135
H12   H     H_    0.429948 0.083953 0.380584 0.128326
H13   H     H_    0.005279 0.719494 0.353672 0.143031
H14   H     H_    0.785254 0.324620 0.638584 0.177558
H15   H     H_    0.016364 0.467560 0.685093 0.149140
H16   H     H_    0.922820 0.352238 0.732839 0.150088
H17   H     H_    0.778737 0.527195 0.376997 0.148398
H18   H     H_    0.605527 0.368148 0.951487 0.151132
N1    N     N_R   0.500000 0.741310 0.499980 -0.190886
N2    N     N_R   0.500060 0.258650 0.499980 -0.171436
O1    O     O_R   0.499990 0.418570 0.628550 -0.568197
O2    O     O_R   0.499990 0.581440 0.628540 -0.580289
O3    O     O_R   0.650980 0.378820 0.499990 -0.574855
O4    O     O_R   0.650980 0.541690 0.499970 -0.592228
O5    O     O_R   0.500010 0.418560 0.371460 -0.584495
O6    O     O_R   0.500010 0.581430 0.371450 -0.601564
O7    O     O_R   0.349020 0.458310 0.500030 -0.584008
O8    O     O_R   0.349020 0.621180 0.500010 -0.597096
O9    O     O_3   0.632636 0.342739 0.775499 -0.591829
C41   C     C_3   0.633594 0.247001 0.808422 -0.379497
H19   H     H_    0.675525 0.188919 0.761057 0.175550
H20   H     H_    0.553878 0.240386 0.814615 0.159894
H21   H     H_    0.677075 0.229316 0.872530 0.170438
C42   C     C_3   0.327904 0.669654 0.938729 -0.400041
C43   C     C_3   0.238741 0.631932 0.970547 -0.333353
C44   C     C_3   0.152838 0.717222 0.010784 -0.857518
H22   H     H_    0.183313 0.748636 0.068987 0.255596
H23   H     H_    0.120672 0.778250 0.960786 0.250696
H24   H     H_    0.089437 0.687771 0.033028 0.240875
H25   H     H_    0.206014 0.600442 0.913543 0.214666
H26   H     H_    0.267331 0.571282 0.021430 0.227712
H27   H     H_    0.359199 0.704349 0.994171 0.193668
H28   H     H_    0.296354 0.730900 0.888632 0.188947
C45   C     C_3   0.317684 0.002669 0.544415 -0.425623
C46   C     C_3   0.327404 0.029510 0.642215 -0.320678
C47   C     C_3   0.231532 0.112592 0.671192 -0.866100
H29   H     H_    0.221976 0.182262 0.631007 0.257312
H30   H     H_    0.161039 0.087987 0.663234 0.254558
H31   H     H_    0.240422 0.129885 0.742108 0.236989
H32   H     H_    0.336822 0.961276 0.684510 0.212247
H33   H     H_    0.395941 0.055862 0.653718 0.227405
H34   H     H_    0.300672 0.071162 0.501522 0.209218
H35   H     H_    0.248601 0.975549 0.541111 0.188482
C48   C     C_3   0.317210 0.821354 0.434237 -0.403367
C49   C     C_3   0.342786 0.772656 0.342436 -0.269176
C50   C     C_3   0.269026 0.830158 0.268747 -0.943407
H36   H     H_    0.187623 0.835532 0.284654 0.257098
H37   H     H_    0.276225 0.907253 0.260372 0.258919
H38   H     H_    0.289025 0.789626 0.205179 0.252400
H39   H     H_    0.422998 0.768824 0.323559 0.224691
H40   H     H_    0.334850 0.695858 0.344321 0.240927
H41   H     H_    0.267144 0.789353 0.474378 0.189109
H42   H     H_    0.267166 0.899174 0.419691 0.180838
C51   C     C_3   0.709611 0.871858 0.514126 -0.402903
C52   C     C_3   0.737490 0.902747 0.422173 -0.318782
C53   C     C_3   0.840375 0.926765 0.425576 -0.860540
H43   H     H_    0.833343 0.994101 0.467087 0.257761
H44   H     H_    0.902723 0.861887 0.453913 0.259762
H45   H     H_    0.861920 0.942911 0.357505 0.237265
H46   H     H_    0.743632 0.839990 0.375244 0.207963
H47   H     H_    0.676435 0.970391 0.396487 0.229424
H48   H     H_    0.715618 0.927457 0.564492 0.202905
H49   H     H_    0.768598 0.799765 0.534146 0.190906
C54   C     C_3   0.189055 0.426197 0.596590 -0.396453
C55   C     C_3   0.229349 0.457664 0.684413 -0.328691
C56   C     C_3   0.288362 0.365879 0.740556 -0.848060
H50   H     H_    0.236182 0.320884 0.758764 0.245829
H51   H     H_    0.355186 0.317735 0.703482 0.267752
H52   H     H_    0.318170 0.391181 0.802373 0.238736
H53   H     H_    0.282022 0.503518 0.671416 0.209976
H54   H     H_    0.163840 0.505066 0.723185 0.199694
H55   H     H_    0.145402 0.372698 0.609634 0.186013
H56   H     H_    0.252518 0.373529 0.560337 0.227509

loop_
_geom_bond_atom_site_label_1
_geom_bond_atom_site_label_2
_ccdc_geom_bond_type
C22   H6    S    
C30   H9    S    
C1    O2    A    
C34   C37   S    
Cu1   Cu2   S    
C19   C20   A    
C31   H10   S    
C4    C8    A    
C42   H27   S    
C49   C50   S    
C19   H4    S    
Cu1   O5    S    
C43   C44   S    
C54   C55   S    
C30   C35   A    
C51   H48   S    
C18   C24   A    
C28   C29   A    
C26   N1    A    
C15   H2    S    
C3    C7    A    
C30   C31   A    
C44   H23   S    
C51   C52   S    
C43   H26   S    
C15   C16   A    
C5    C36   A    
Cu2   O8    S    
C53   H43   S    
C18   C19   A    
C52   H46   S    
C23   O5    A    
C56   H50   S    
C52   H47   S    
C27   N1    A    
C28   C51   S    
C16   C17   A    
C9    C36   A    
C52   C53   S    
C47   H31   S    
C45   H34   S    
C34   O8    A    
C49   H39   S    
C16   C42   S    
C13   C14   A    
C26   C48   S    
C31   N2    A    
Cu1   N2    S    
C41   H21   S    
C1    O1    A    
C7    H17   S    
C25   C29   A    
C38   C39   A    
C9    H1    S    
C17   C24   S    
C42   C43   S    
C41   H20   S    
C39   C40   A    
C45   C46   S    
C41   H19   S    
Cu1   O3    S    
C13   O9    S    
C25   C26   A    
C39   H16   S    
C12   O4    A    
C56   H52   S    
C23   O6    A    
C2    C4    A    
C55   H53   S    
Cu2   N1    S    
C20   C23   S    
C48   C49   S    
C20   C21   A    
C9    C37   A    
C6    H8    S    
C34   O7    A    
C49   H40   S    
C10   C12   S    
C47   H30   S    
C50   H37   S    
C54   H56   S    
C48   H41   S    
C22   C24   A    
C8    C37   A    
Cu1   O1    S    
C11   H18   S    
C18   H3    S    
Cu2   O2    S    
C32   H11   S    
C46   H32   S    
C48   H42   S    
Cu1   O7    S    
C33   H12   S    
C11   C17   A    
C40   H15   S    
C54   H55   S    
C44   H22   S    
C4    C5    A    
C6    C7    A    
C50   H38   S    
C12   O3    A    
C29   C35   S    
C53   H45   S    
C51   H49   S    
C10   C38   A    
C32   C33   A    
C2    C3    A    
C55   H54   S    
C32   N2    A    
O9    C41   S    
C36   H13   S    
C55   C56   S    
C11   C13   A    
C44   H24   S    
C5    C6    A    
C43   H25   S    
C3    C10   A    
C46   H33   S    
C25   C45   S    
C33   C35   A    
C53   H44   S    
Cu2   O6    S    
C56   H51   S    
C45   H35   S    
C8    C54   S    
C2    C40   A    
C38   H14   S    
C47   H29   S    
C46   C47   S    
C50   H36   S    
C27   C28   A    
Cu2   O4    S    
C14   C15   A    
C1    C14   S    
C21   C22   A    
C42   H28   S    
C27   H7    S    
C21   H5    S    
