data_mof_unit_1401.cif
_audit_creation_date              2013-03-05T15:52:32-0500
_audit_creation_method            fapswitch 2.2
_symmetry_space_group_name_H-M    P1
_symmetry_Int_Tables_number       1
_space_group_crystal_system       triclinic
_cell_length_a                    7.097014
_cell_length_b                    20.469827
_cell_length_c                    24.357798
_cell_angle_alpha                 90.002221
_cell_angle_beta                  89.959648
_cell_angle_gamma                 89.68876
_cell_volume                      3538.5174605

loop_
_atom_site_label
_atom_site_type_symbol
_atom_site_description
_atom_site_fract_x
_atom_site_fract_y
_atom_site_fract_z
_atom_type_partial_charge
O1    O     O_R   0.507310 0.423620 0.460450 -0.582717
O2    O     O_R   0.170760 0.556060 0.437190 -0.566602
O3    O     O_R   0.004040 0.576380 0.539550 -0.583516
C1    C     C_R   0.339866 0.575715 0.421559 0.971670
O4    O     O_R   0.177350 0.422870 0.454070 -0.592785
O5    O     O_R   0.010680 0.442240 0.556560 -0.570185
C2    C     C_R   0.346670 0.399326 0.443283 1.176908
O6    O     O_R   0.500670 0.557760 0.443440 -0.571265
O7    O     O_3   0.340380 0.506510 0.533610 -0.267170
V1    V     V_3+5 0.064130 0.498790 0.493770 1.339299
O8    O     O_R   0.681170 0.443940 0.562810 -0.557393
C3    C     C_R   0.850004 0.424308 0.578482 0.986083
O9    O     O_R   0.674570 0.577130 0.545930 -0.586618
C4    C     C_R   0.842456 0.600525 0.556640 1.156605
V2    V     V_3+5 0.564560 0.501210 0.506230 1.351022
O10   O     O_3   0.838170 0.493490 0.466390 -0.276061
C5    C     C_R   0.976707 0.838338 0.911529 -0.698294
C6    C     C_R   0.847268 0.661194 0.589466 -0.561463
C7    C     C_R   0.001772 0.720641 0.908257 0.855310
C8    C     C_R   0.014113 0.778900 0.937480 0.541280
C9    C     C_R   0.938995 0.839804 0.854894 0.819678
C10   C     C_R   0.950549 0.781622 0.822730 -0.160350
C11   C     C_R   0.964260 0.721250 0.851397 -0.641119
C12   C     C_R   0.938947 0.780546 0.763776 -0.153272
C13   C     C_R   0.912586 0.719803 0.735738 -0.242224
C14   C     C_R   0.888795 0.662858 0.767703 0.679599
C15   C     C_R   0.928358 0.662735 0.823547 0.849635
C16   C     C_R   0.960954 0.837340 0.731461 0.803821
C17   C     C_R   0.911683 0.837745 0.675860 0.193155
C18   C     C_R   0.864980 0.778715 0.649405 -0.408579
C19   C     C_R   0.897518 0.718827 0.676947 -0.018946
C20   C     C_R   0.791064 0.777983 0.595721 0.847872
C21   C     C_R   0.774321 0.719337 0.566678 0.117965
C22   C     C_R   0.916456 0.661167 0.644126 0.382621
C23   C     C_3   0.783841 0.269411 0.812864 0.754790
C24   C     C_3   0.118846 0.242996 0.779417 1.116054
C25   C     C_3   0.099620 0.289171 0.727182 0.628070
C26   C     C_1   0.860887 0.379658 0.624645 -0.090171
C27   C     C_3   0.923639 0.211867 0.795619 -0.828722
C28   C     C_3   0.774279 0.322767 0.763968 0.150023
C29   C     C_3   0.885746 0.294864 0.710422 -0.747005
C30   C     C_3   0.825876 0.222047 0.692689 0.623024
C31   C     C_3   0.833177 0.175388 0.744534 0.665877
C32   C     C_1   0.871941 0.341842 0.663086 0.566702
C33   C     C_1   0.947104 0.163175 0.840987 0.532696
C34   C     C_1   0.962643 0.123217 0.877598 -0.128452
C35   C     C_3   0.613913 0.696144 0.261767 0.212776
C36   C     C_3   0.258657 0.693556 0.244487 0.748248
C37   C     C_3   0.260644 0.755548 0.204938 0.477682
H1    H     H_    0.237319 0.741638 0.161429 0.190971
C38   C     C_1   0.471928 0.879031 0.124118 -0.107452
C39   C     C_3   0.412987 0.704101 0.290311 -0.571686
C40   C     C_3   0.606443 0.738449 0.205521 0.645347
C41   C     C_3   0.449153 0.794578 0.209975 -0.570120
C42   C     C_3   0.439449 0.831879 0.268460 0.357560
C43   C     C_3   0.382343 0.776922 0.312265 -0.063269
C44   C     C_1   0.459111 0.841158 0.162459 0.417666
C45   C     C_1   0.379926 0.657682 0.337166 0.462761
C46   C     C_1   0.355230 0.620400 0.375431 -0.100625
H2    H     H_    0.226510 0.779839 0.315448 0.254086
C47   C     C_R   0.473873 0.163104 0.087809 -0.559444
C48   C     C_R   0.359503 0.337111 0.412245 -0.610662
C49   C     C_R   0.521380 0.280642 0.091715 0.299141
C50   C     C_R   0.510891 0.222367 0.061171 0.149018
C51   C     C_R   0.436620 0.162832 0.144465 0.820607
C52   C     C_R   0.470784 0.219220 0.177567 -0.042989
C53   C     C_R   0.515670 0.278826 0.150276 -0.326977
C54   C     C_R   0.459090 0.218794 0.236674 -0.273173
C55   C     C_R   0.457418 0.279142 0.266349 -0.173892
C56   C     C_R   0.525532 0.334886 0.238930 0.818294
C57   C     C_R   0.558680 0.334707 0.182309 0.183231
C58   C     C_R   0.469181 0.160547 0.267832 0.718036
C59   C     C_R   0.443719 0.161036 0.324469 0.793130
C60   C     C_R   0.411670 0.219626 0.353043 -0.576023
C61   C     C_R   0.415160 0.279858 0.324227 -0.155767
C62   C     C_R   0.383492 0.218764 0.410427 0.900367
C63   C     C_R   0.362728 0.276951 0.440307 0.027995
C64   C     C_R   0.374440 0.338052 0.354525 0.860984
O11   O     O_R   0.323590 0.942280 0.056590 -0.576184
O12   O     O_R   0.647030 0.077140 0.045940 -0.581294
O13   O     O_R   0.813570 0.057750 0.943430 -0.561111
C65   C     C_R   0.478241 0.101076 0.056293 1.140492
O14   O     O_R   0.653510 0.943950 0.062820 -0.570187
O15   O     O_R   0.820100 0.923600 0.960440 -0.590559
C66   C     C_R   0.484570 0.924202 0.078339 0.972785
O16   O     O_R   0.317060 0.076430 0.039590 -0.579071
O17   O     O_3   0.483830 0.993520 0.966410 -0.277219
V3    V     V_3+5 0.760140 0.001200 0.006230 1.330947
O18   O     O_R   0.149560 0.922820 0.954030 -0.592955
C67   C     C_R   0.981763 0.899087 0.943827 1.208919
O19   O     O_R   0.143080 0.056020 0.937150 -0.580904
C68   C     C_R   0.974275 0.076213 0.921957 0.987116
V4    V     V_3+5 0.259690 0.998730 0.993720 1.326290
O20   O     O_3   0.986120 0.006480 0.033580 -0.275093
F1    F     F_    0.915998 0.605198 0.851093 -0.500625
F2    F     F_    0.729645 0.834048 0.571619 -0.551544
N1    N     N_R   0.855510 0.387210 0.779754 0.296714
O21   O     O_R   0.813870 0.438688 0.750667 -0.196054
O22   O     O_R   0.975648 0.394466 0.819652 -0.148261
N2    N     N_R   0.823496 0.298921 0.867177 0.290219
O23   O     O_R   0.703754 0.341118 0.887111 -0.150596
O24   O     O_R   0.952249 0.276103 0.900121 -0.245792
F3    F     F_    0.253274 0.194529 0.773010 -0.545623
F4    F     F_    0.184582 0.279949 0.822737 -0.517791
F5    F     F_    0.164614 0.350608 0.740431 -0.545897
N3    N     N_R   0.216709 0.268879 0.680169 0.296911
O25   O     O_R   0.276490 0.209380 0.674755 -0.153467
O26   O     O_R   0.241411 0.308944 0.639319 -0.246918
F6    F     F_    0.649017 0.158829 0.757981 -0.521490
N4    N     N_R   0.928162 0.112349 0.732668 0.277299
O27   O     O_R   0.840590 0.057935 0.742778 -0.182963
O28   O     O_R   0.099164 0.108779 0.713897 -0.166964
N5    N     N_R   0.645201 0.216664 0.664391 0.316833
O29   O     O_R   0.590803 0.157375 0.653206 -0.118900
O30   O     O_R   0.598556 0.261220 0.628866 -0.263277
N6    N     N_R   0.028734 0.606836 0.663078 0.272779
O31   O     O_R   0.188513 0.617317 0.687656 -0.323994
O32   O     O_R   0.972741 0.546971 0.656121 -0.329105
F7    F     F_    0.606155 0.242635 0.820002 -0.515187
N7    N     N_R   0.574378 0.336580 0.752554 0.303996
O33   O     O_R   0.522818 0.355913 0.704037 -0.277359
O34   O     O_R   0.472380 0.356648 0.793725 -0.106135
F8    F     F_    0.948199 0.198717 0.653181 -0.582621
F9    F     F_    0.545957 0.698231 0.163078 -0.630167
N8    N     N_R   0.656806 0.625905 0.250107 0.297057
O35   O     O_R   0.720790 0.606418 0.202762 -0.127634
O36   O     O_R   0.658391 0.583233 0.289749 -0.274488
F10   F     F_    0.087488 0.689332 0.269689 -0.603630
N9    N     N_R   0.280511 0.630738 0.215136 0.267566
O37   O     O_R   0.244958 0.626444 0.162834 -0.189720
O38   O     O_R   0.279868 0.576794 0.243428 -0.240285
F11   F     F_    0.114976 0.796994 0.218297 -0.577435
N10   N     N_R   0.443379 0.789323 0.369264 0.288757
O39   O     O_R   0.618302 0.785401 0.384507 -0.185091
O40   O     O_R   0.317473 0.804356 0.406127 -0.210611
N11   N     N_R   0.692029 0.720260 0.512755 0.272696
O41   O     O_R   0.775929 0.691522 0.471753 -0.328389
O42   O     O_R   0.537943 0.753280 0.503837 -0.234716
N12   N     N_R   0.616018 0.865640 0.282574 0.282025
O43   O     O_R   0.723786 0.887593 0.243665 -0.233741
O44   O     O_R   0.626524 0.895690 0.329563 -0.162129
N13   N     N_R   0.758057 0.718879 0.300816 0.291276
O45   O     O_R   0.850584 0.772724 0.293633 -0.237084
O46   O     O_R   0.799874 0.683320 0.343537 -0.238938
N14   N     N_R   0.792931 0.757791 0.185701 0.327810
O47   O     O_R   0.821207 0.814369 0.162960 -0.285707
O48   O     O_R   0.903764 0.710440 0.170372 -0.217345
N15   N     N_R   0.293653 0.884445 0.267604 0.310066
O49   O     O_R   0.311225 0.933273 0.233778 -0.250160
O50   O     O_R   0.173472 0.891163 0.307690 -0.183417
N16   N     N_R   0.656682 0.389477 0.159283 0.289889
O51   O     O_R   0.599973 0.448748 0.169788 -0.147737
O52   O     O_R   0.819370 0.380528 0.135694 -0.267808
F12   F     F_    0.333151 0.395111 0.328636 -0.618879
N17   N     N_R   0.342126 0.274149 0.499090 0.279998
O53   O     O_R   0.431091 0.315082 0.530472 -0.321770
O54   O     O_R   0.242927 0.228166 0.521776 -0.169891
F13   F     F_    0.456489 0.103074 0.351444 -0.500671
N18   N     N_R   0.528255 0.341626 0.062618 0.284277
O55   O     O_R   0.656104 0.351504 0.025238 -0.184025
O56   O     O_R   0.395831 0.384984 0.069913 -0.217796
N19   N     N_R   0.931431 0.897392 0.645428 0.315803
O57   O     O_R   0.039344 0.899120 0.602235 -0.195456
O58   O     O_R   0.862738 0.951709 0.664835 -0.159604
N20   N     N_R   0.522747 0.224299 0.002333 0.267202
O59   O     O_R   0.657192 0.193295 0.976842 -0.347698
O60   O     O_R   0.399064 0.257247 0.974093 -0.211505
F14   F     F_    0.351886 0.108882 0.165122 -0.620134
F15   F     F_    0.595709 0.385905 0.267961 -0.586098
F16   F     F_    0.533148 0.103739 0.245837 -0.555649
F17   F     F_    0.384575 0.161219 0.438269 -0.513409
F18   F     F_    0.026556 0.663646 0.935946 -0.502259
F19   F     F_    0.052838 0.777121 0.992072 -0.599220
F20   F     F_    0.872658 0.896744 0.833659 -0.620010
F21   F     F_    0.811694 0.607894 0.746487 -0.573558
F22   F     F_    0.049773 0.890861 0.751446 -0.579394

loop_
_geom_bond_atom_site_label_1
_geom_bond_atom_site_label_2
_geom_bond_distance
_ccdc_geom_bond_type
C13   C19   1.436235 A    
C52   C54   1.442073 A    
C42   C43   1.603964 S    
N20   O59   1.300487 A    
C62   F17   1.359213 S    
C29   C30   1.611196 S    
C4    C6    1.477538 S    
C48   C63   1.408544 A    
C15   F1    1.358719 S    
C7    C8    1.391996 A    
O11   V4    1.970135 S    
C49   N18   1.436543 S    
O17   V3    2.194749 S    
C38   C66   1.451634 S    
C43   N10   1.477045 S    
C42   N15   1.488899 S    
C33   C34   1.214744 T    
C25   F5    1.380203 S    
C35   N13   1.474531 S    
C16   C17   1.398980 A    
C14   C15   1.389088 A    
V4    O20   2.175166 S    
C60   C62   1.411978 A    
C24   F3    1.381424 S    
C24   C25   1.590515 S    
C56   F15   1.358253 S    
N15   O50   1.302803 A    
N19   O57   1.301483 A    
C47   C65   1.483874 S    
C25   C29   1.575793 S    
O5    C3    1.312973 A    
C18   C19   1.415404 A    
O19   V4    1.987463 S    
N3    O25   1.294244 A    
C22   N6    1.440785 S    
C37   C41   1.566854 S    
N1    O21   1.302565 A    
C5    C8    1.395411 A    
C42   N12   1.475159 S    
N6    O31   1.301484 A    
C59   C60   1.404024 A    
N4    O27   1.301869 A    
N1    O22   1.302310 A    
N5    O29   1.304376 A    
O13   C68   1.311890 A    
O8    V2    1.987391 S    
C57   N16   1.436387 S    
C8    F19   1.358486 S    
C54   C55   1.431209 A    
N16   O51   1.301533 A    
N18   O56   1.301245 A    
C35   N8    1.495199 S    
C56   C57   1.398932 A    
C38   C44   1.217439 T    
C31   N4    1.480980 S    
C11   C15   1.401201 A    
C17   C18   1.410608 A    
O7    V1    2.194644 S    
C53   C57   1.419332 A    
C1    O6    1.310669 A    
C27   C33   1.496974 S    
O14   V3    1.963243 S    
N20   O60   1.301143 A    
O9    C4    1.312892 A    
O18   V4    1.993525 S    
O15   C67   1.313379 A    
C9    F20   1.357236 S    
C40   N14   1.465036 S    
N14   O48   1.299569 A    
N7    O34   1.301593 A    
C30   F8    1.379161 S    
N14   O47   1.300297 A    
N19   O58   1.300419 A    
C62   C63   1.402852 A    
C37   F11   1.372722 S    
C49   C53   1.427443 A    
N13   O45   1.297827 A    
C60   C61   1.419062 A    
O8    C3    1.318466 A    
O15   V3    1.984975 S    
C12   C13   1.431807 A    
O12   C65   1.315981 A    
O19   C68   1.318447 A    
O4    C2    1.318540 A    
C16   F22   1.357363 S    
C27   C31   1.588830 S    
C45   C46   1.217828 T    
C65   O16   1.317377 A    
C59   F13   1.358898 S    
V2    O10   2.175159 S    
C5    C9    1.405689 A    
C43   H2    1.109897 S    
C58   F16   1.356180 S    
C47   C50   1.401749 A    
C7    C11   1.410547 A    
C2    C48   1.483338 S    
C26   C32   1.217201 T    
C50   N20   1.436136 S    
O16   V4    1.987805 S    
C36   F10   1.363865 S    
C30   N5    1.460887 S    
O2    C1    1.323558 A    
N18   O55   1.301545 A    
C51   F14   1.356921 S    
C36   C39   1.579978 S    
C54   C58   1.414904 A    
N2    O24   1.301325 A    
C19   C22   1.431199 A    
C7    F18   1.358296 S    
N17   O54   1.301397 A    
C6    C22   1.419369 A    
O3    C4    1.313696 A    
C39   C45   1.504195 S    
O1    V2    1.984587 S    
N11   O42   1.300851 A    
C28   C29   1.626874 S    
C28   N7    1.471788 S    
C51   C52   1.429845 A    
O6    V2    1.969801 S    
O9    V2    1.993469 S    
N10   O39   1.298076 A    
C29   C32   1.504319 S    
C10   C12   1.438591 A    
C36   N9    1.478611 S    
C6    C21   1.409407 A    
C55   C61   1.441176 A    
C23   N2    1.482093 S    
O2    V1    1.963317 S    
C28   N1    1.492924 S    
N7    O33   1.298524 A    
N10   O40   1.302009 A    
N9    O37   1.301918 A    
C41   C42   1.617494 S    
C36   C37   1.593341 S    
O14   C66   1.322300 A    
O1    C2    1.314806 A    
C17   N19   1.435837 S    
C48   C64   1.409989 A    
C24   C27   1.577941 S    
C64   F12   1.358056 S    
C5    C67   1.472071 S    
C12   C16   1.413286 A    
C58   C59   1.391230 A    
C40   F9    1.391121 S    
O5    V1    1.956296 S    
N12   O43   1.299167 A    
C40   C41   1.601201 S    
C35   C39   1.593546 S    
C35   C40   1.621545 S    
C24   F4    1.381181 S    
C20   C21   1.399055 A    
C23   C28   1.617210 S    
C13   C14   1.412629 A    
C25   N3    1.472846 S    
C20   F2    1.358927 S    
O3    V1    1.984865 S    
V1    O10   1.741152 S    
C63   N17   1.440333 S    
C18   C20   1.409361 A    
N12   O44   1.301717 A    
C21   N11   1.437888 S    
C23   F7    1.388549 S    
N8    O35   1.300963 A    
N3    O26   1.301835 A    
C14   F21   1.356235 S    
C23   C27   1.592150 S    
O17   V4    1.726542 S    
C1    C46   1.453267 S    
N2    O23   1.302085 A    
O11   C66   1.311153 A    
N6    O32   1.301412 A    
C52   C53   1.426903 A    
N13   O46   1.303413 A    
N15   O49   1.301802 A    
N16   O52   1.301370 A    
C3    C26   1.450906 S    
C55   C56   1.409746 A    
C61   C64   1.429364 A    
N4    O28   1.298260 A    
O13   V3    1.956461 S    
C49   C50   1.408187 A    
C47   C51   1.404944 A    
O4    V1    1.995271 S    
C34   C68   1.448926 S    
O12   V3    1.995394 S    
C37   H1    1.110120 S    
C30   C31   1.584083 S    
N17   O53   1.300547 A    
N8    O36   1.302110 A    
V3    O20   1.740974 S    
C10   C11   1.422361 A    
N11   O41   1.301288 A    
C31   F6    1.390901 S    
N9    O38   1.301678 A    
O18   C67   1.312482 A    
C9    C10   1.427492 A    
C39   C43   1.597355 S    
O7    V2    1.727567 S    
N5    O30   1.298991 A    
C41   C44   1.501456 S    
