data_mof_unit_3944.cif
_audit_creation_date              2012-10-26T20:42:27-0400
_audit_creation_method            fapswitch 2.2
_symmetry_space_group_name_H-M    P1
_symmetry_Int_Tables_number       1
_space_group_crystal_system       triclinic
_cell_length_a                    10.77884
_cell_length_b                    9.529818
_cell_length_c                    10.935295
_cell_angle_alpha                 90.03323
_cell_angle_beta                  90.178483
_cell_angle_gamma                 89.899272
_cell_volume                      1123.27032423

loop_
_atom_site_label
_atom_site_type_symbol
_atom_type_description
_atom_site_fract_x
_atom_site_fract_y
_atom_site_fract_z
_atom_type_partial_charge
C1    C     C_R   0.262395 0.500060 0.503253 0.525730
C2    C     C_R   0.935079 0.425653 0.605327 0.013750
C3    C     C_R   0.871425 0.499394 0.511846 -0.023719
C4    C     C_R   0.128569 0.500541 0.511701 -0.026098
C5    C     C_R   0.935454 0.578416 0.425340 -0.133134
C6    C     C_R   0.063280 0.580871 0.426562 -0.136248
C7    C     C_R   0.423788 0.074494 0.423070 0.027241
C8    C     C_R   0.576022 0.074226 0.577070 0.025148
C9    C     C_R   0.423744 0.925735 0.423110 0.025489
C10   C     C_R   0.576116 0.925509 0.576996 0.026437
C11   C     C_2   0.139092 0.335339 0.690369 0.305883
C12   C     C_R   0.737553 0.499807 0.504463 0.531358
C13   C     C_2   0.864576 0.366939 0.710846 0.265207
C14   C     C_R   0.498382 0.500009 0.265267 0.560192
C15   C     C_R   0.501742 0.500053 0.734718 0.537739
C16   C     C_2   0.497424 0.384743 0.932901 -0.144273
C17   C     C_2   0.502805 0.384687 0.066871 -0.141243
C18   C     C_2   0.508228 0.502308 0.866658 -0.108410
C19   C     C_2   0.492069 0.502268 0.133282 -0.110108
C20   C     C_R   0.066212 0.421179 0.601815 0.014959
Cu1   Cu    Cu3+1 0.500000 0.640660 0.500000 0.956561
Cu2   Cu    Cu3+1 0.500000 0.359340 0.500000 0.949452
H1    H     H_    0.486014 0.283794 0.888065 0.154672
H2    H     H_    0.637157 0.869454 0.638707 0.121325
H3    H     H_    0.227841 0.372782 0.724122 0.109735
H4    H     H_    0.771280 0.327495 0.699175 0.115465
H5    H     H_    0.514039 0.283649 0.111565 0.153187
H6    H     H_    0.524669 0.603875 0.907763 0.109244
H7    H     H_    0.475787 0.603935 0.092274 0.102217
H8    H     H_    0.886032 0.637499 0.355833 0.138594
H9    H     H_    0.111695 0.641820 0.358020 0.130049
H10   H     H_    0.362708 0.130563 0.361406 0.118586
H11   H     H_    0.636827 0.129946 0.638987 0.106260
H12   H     H_    0.362585 0.869834 0.361513 0.112731
N1    N     N_R   0.500000 0.852070 0.500000 -0.227804
N2    N     N_R   0.500000 0.147940 0.500000 -0.227006
O1    O     O_R   0.319640 0.618740 0.499990 -0.496739
O2    O     O_2   0.907858 0.368669 0.814148 -0.469352
O3    O     O_R   0.680360 0.618740 0.500010 -0.496782
O4    O     O_R   0.319620 0.381170 0.499990 -0.504324
O5    O     O_R   0.680380 0.381170 0.500010 -0.513716
O6    O     O_R   0.500000 0.618750 0.321940 -0.503404
O7    O     O_R   0.500000 0.618750 0.678060 -0.499504
O8    O     O_R   0.499970 0.381180 0.321940 -0.496587
O9    O     O_R   0.500030 0.381180 0.678060 -0.516677
O10   O     O_2   0.103115 0.219695 0.722468 -0.462082

loop_
_geom_bond_atom_site_label_1
_geom_bond_atom_site_label_2
_ccdc_geom_bond_type
C15   C18   S    
C12   O5    A    
Cu1   N1    S    
C4    C20   A    
Cu2   N2    S    
C7    N2    A    
Cu1   O3    S    
C1    O1    A    
C14   O6    A    
C1    C4    S    
Cu2   O4    S    
C16   C18   D    
C12   O3    A    
C2    C3    A    
C15   O7    A    
C7    H10   S    
Cu1   Cu2   S    
C13   O2    D    
C9    H12   S    
C4    C6    A    
C17   C19   D    
C6    H9    S    
C16   H1    S    
C8    H11   S    
C5    C6    A    
C13   H4    S    
C10   N1    A    
C11   C20   S    
Cu2   O5    S    
C15   O9    A    
C2    C20   A    
Cu1   O6    S    
C19   H7    S    
C7    C9    A    
Cu2   O9    S    
C18   H6    S    
Cu1   O1    S    
C14   O8    A    
C5    H8    S    
C8    N2    A    
C9    N1    A    
C2    C13   S    
C11   H3    S    
C11   O10   D    
C3    C12   S    
C1    O4    A    
C10   H2    S    
Cu1   O7    S    
C14   C19   S    
C8    C10   A    
Cu2   O8    S    
C16   C17   S    
C3    C5    A    
C17   H5    S    
