data_mof_unit_2084.cif
_audit_creation_date              2012-12-10T18:45:10-0500
_audit_creation_method            fapswitch 2.2
_symmetry_space_group_name_H-M    P1
_symmetry_Int_Tables_number       1
_space_group_crystal_system       triclinic
_cell_length_a                    10.685699
_cell_length_b                    9.859861
_cell_length_c                    10.673016
_cell_angle_alpha                 93.200666
_cell_angle_beta                  91.693525
_cell_angle_gamma                 90.495643
_cell_volume                      1122.19941949

loop_
_atom_site_label
_atom_site_type_symbol
_atom_type_description
_atom_site_fract_x
_atom_site_fract_y
_atom_site_fract_z
_atom_type_partial_charge
C1    C     C_R   0.260411 0.499596 0.505107 0.979359
C2    C     C_R   0.506758 0.504975 0.741389 0.922714
C3    C     C_R   0.311781 0.666093 0.117229 0.016109
C4    C     C_R   0.439896 0.758658 0.913323 0.062060
C5    C     C_R   0.279638 0.789656 0.067591 -0.203289
C6    C     C_R   0.347136 0.838414 0.970114 -0.201598
C7    C     C_R   0.457409 0.622831 0.948955 0.114446
C8    C     C_R   0.411980 0.589895 0.064928 0.060806
C9    C     C_R   0.474552 0.486377 0.126492 -0.053164
C10   C     C_R   0.515953 0.516115 0.876990 -0.075218
C11   C     C_R   0.546173 0.390601 0.060945 -0.205458
C12   C     C_R   0.739857 0.500595 0.503242 0.842449
C13   C     C_R   0.560731 0.401572 0.934810 -0.214525
C14   C     C_R   0.060932 0.403639 0.438418 -0.145701
C15   C     C_R   0.933324 0.405812 0.436031 -0.165571
C16   C     C_R   0.872596 0.501376 0.512503 -0.090217
C17   C     C_R   0.128147 0.498421 0.515517 -0.081462
C18   C     C_2   0.228577 0.611987 0.210946 0.386744
C19   C     C_2   0.535082 0.833108 0.846779 0.415266
C20   C     C_2   0.868367 0.677324 0.691401 0.435470
C21   C     C_2   0.143265 0.674876 0.695194 0.436806
C22   C     C_1   0.681002 0.150384 0.645723 0.249999
C23   C     C_R   0.938014 0.593394 0.597284 -0.108216
C24   C     C_1   0.335924 0.129256 0.336202 0.197117
C25   C     C_R   0.069002 0.591563 0.599035 -0.039168
C26   C     C_R   0.586995 0.076111 0.570362 0.019180
C27   C     C_R   0.416891 0.065997 0.425003 0.033066
C28   C     C_R   0.588510 0.932479 0.567465 -0.118335
C29   C     C_R   0.415249 0.922417 0.427392 -0.096642
C30   C     C_R   0.490471 0.495984 0.259978 0.924879
H1    H     H_    0.592304 0.308926 0.107478 0.169535
H2    H     H_    0.511135 0.928166 0.806038 0.041145
H3    H     H_    0.785537 0.634925 0.731158 0.112537
H4    H     H_    0.126163 0.782493 0.711175 0.122231
H5    H     H_    0.608679 0.321415 0.882757 0.176847
H6    H     H_    0.204723 0.850336 0.106829 0.148165
H7    H     H_    0.330088 0.940787 0.942146 0.144816
H8    H     H_    0.107147 0.330529 0.376893 0.199415
H9    H     H_    0.881694 0.334388 0.372604 0.160208
H10   H     H_    0.660209 0.880939 0.619621 0.194715
H11   H     H_    0.348398 0.862815 0.368784 0.118768
H12   H     H_    0.173406 0.680567 0.269639 0.054108
N1    N     N_R   0.500000 0.857200 0.500000 -0.097729
N2    N     N_R   0.500000 0.142810 0.500000 -0.123430
N3    N     N_1   0.757528 0.209001 0.706303 -0.201076
N4    N     N_1   0.271464 0.178720 0.263064 -0.172045
O1    O     O_R   0.316770 0.614620 0.499990 -0.640191
O2    O     O_2   0.643256 0.794948 0.845629 -0.580977
O3    O     O_2   0.899756 0.794022 0.722177 -0.568214
O4    O     O_2   0.223677 0.622037 0.759033 -0.593014
O5    O     O_R   0.683230 0.614620 0.500010 -0.619385
O6    O     O_R   0.316800 0.385290 0.500000 -0.611658
O7    O     O_R   0.683200 0.385290 0.500000 -0.622567
O8    O     O_R   0.500010 0.614690 0.316770 -0.627765
O9    O     O_R   0.499990 0.614690 0.683230 -0.602481
O10   O     O_R   0.500040 0.385360 0.316770 -0.614016
O11   O     O_R   0.499960 0.385360 0.683230 -0.625852
O12   O     O_2   0.215353 0.489714 0.218273 -0.593807
Zn1   Zn    Zn3+2 0.500000 0.653120 0.500000 0.973150
Zn2   Zn    Zn3+2 0.500000 0.346880 0.500000 0.980657

loop_
_geom_bond_atom_site_label_1
_geom_bond_atom_site_label_2
_ccdc_geom_bond_type
C8    C9    A    
C7    C10   A    
C20   C23   S    
C20   O3    D    
O9    Zn1   S    
C14   H8    S    
C9    C11   A    
C28   N1    A    
C26   C28   A    
C12   O7    A    
C24   C27   S    
N1    Zn1   S    
C2    O9    A    
C17   C25   A    
C30   O8    A    
C23   C25   A    
C6    H7    S    
C11   H1    S    
C7    C8    A    
C29   N1    A    
C11   C13   A    
C14   C17   A    
C15   H9    S    
C1    C17   S    
C30   O10   A    
C9    C30   S    
N2    Zn2   S    
C4    C7    A    
C20   H3    S    
C27   N2    A    
C21   O4    D    
O7    Zn2   S    
C13   H5    S    
C16   C23   A    
O8    Zn1   S    
C18   H12   S    
C3    C8    A    
C5    C6    A    
C1    O6    A    
C2    O11   A    
O5    Zn1   S    
C28   H10   S    
C26   N2    A    
C15   C16   A    
C2    C10   S    
C5    H6    S    
O10   Zn2   S    
C12   O5    A    
C27   C29   A    
C3    C18   S    
C4    C6    A    
C22   N3    T    
C22   C26   S    
C21   C25   S    
C14   C15   A    
C1    O1    A    
O11   Zn2   S    
C21   H4    S    
O6    Zn2   S    
C29   H11   S    
C19   O2    D    
C4    C19   S    
O1    Zn1   S    
C19   H2    S    
C18   O12   D    
C12   C16   S    
C24   N4    T    
C3    C5    A    
C10   C13   A    
