data_mof_unit_2055.cif
_audit_creation_date              2012-12-10T16:43:22-0500
_audit_creation_method            fapswitch 2.2
_symmetry_space_group_name_H-M    P1
_symmetry_Int_Tables_number       1
_space_group_crystal_system       triclinic
_cell_length_a                    10.799607
_cell_length_b                    8.719089
_cell_length_c                    7.569409
_cell_angle_alpha                 102.570076
_cell_angle_beta                  95.838728
_cell_angle_gamma                 94.490034
_cell_volume                      688.351278243

loop_
_atom_site_label
_atom_site_type_symbol
_atom_type_description
_atom_site_fract_x
_atom_site_fract_y
_atom_site_fract_z
_atom_type_partial_charge
C1    C     C_R   0.488885 0.200069 0.453749 0.759352
C2    C     C_R   0.082783 0.632895 0.630683 0.099952
C3    C     C_R   0.130697 0.516705 0.502099 -0.110079
C4    C     C_R   0.051057 0.405176 0.371728 -0.188458
C5    C     C_R   0.922434 0.399501 0.370420 0.011248
C6    C     C_R   0.872202 0.510912 0.501527 -0.153055
C7    C     C_2   0.461199 0.032316 0.430212 -0.170918
C8    C     C_2   0.502727 0.967026 0.567330 -0.391518
C9    C     C_R   0.263592 0.505982 0.500861 0.796518
C10   C     C_R   0.500228 0.799208 0.545655 0.885328
C11   C     C_R   0.737308 0.503603 0.500629 0.760777
C12   C     C_R   0.161818 0.753665 0.756974 -0.136117
C13   C     C_R   0.112194 0.864664 0.884368 -0.121764
C14   C     C_R   0.983746 0.863876 0.882453 -0.089767
C15   C     C_R   0.903886 0.751983 0.753321 -0.116523
C16   C     C_R   0.951635 0.631010 0.629427 0.087878
Cu1   Cu    Cu3+1 0.513920 0.517380 0.684380 0.955573
Cu2   Cu    Cu3+1 0.486080 0.482620 0.315620 0.979856
H1    H     H_    0.089980 0.316510 0.275289 0.170076
H2    H     H_    0.262134 0.765861 0.758441 0.159296
H3    H     H_    0.173482 0.953357 0.983299 0.147035
H4    H     H_    0.945685 0.951477 0.980124 0.194313
H5    H     H_    0.805159 0.764081 0.751960 0.154997
H6    H     H_    0.551700 0.038973 0.694551 0.158555
N1    N     N_2   0.465100 0.456430 0.038520 -0.098563
N2    N     N_2   0.534900 0.543570 0.961480 -0.170795
O1    O     O_R   0.509050 0.286130 0.619770 -0.604021
O2    O     O_R   0.485540 0.256780 0.308360 -0.610647
O3    O     O_R   0.331410 0.514680 0.655740 -0.625163
O4    O     O_R   0.307900 0.485330 0.344330 -0.554834
O5    O     O_R   0.514460 0.743220 0.691640 -0.632834
O6    O     O_R   0.490950 0.713870 0.380230 -0.569086
O7    O     O_R   0.692100 0.514670 0.655670 -0.558079
O8    O     O_R   0.668590 0.485320 0.344260 -0.569350
C17   C     C_2   0.617895 0.668789 0.072388 0.727276
H7    H     H_    0.583921 0.780281 0.129277 -0.027803
O9    O     O_2   0.730123 0.657338 0.089101 -0.572729
C18   C     C_2   0.842891 0.271556 0.234986 0.410822
H8    H     H_    0.754234 0.223120 0.266150 0.066804
O10   O     O_2   0.875275 0.220276 0.085389 -0.571398
C19   C     C_2   0.378833 0.946287 0.262238 0.362359
H9    H     H_    0.388960 0.978093 0.133225 0.049693
O11   O     O_2   0.294988 0.845886 0.268735 -0.527941
C20   C     C_3   0.390557 0.313848 0.930438 -0.051308
C21   C     C_3   0.265049 0.284095 0.998490 -0.822665
H10   H     H_    0.276077 0.235570 0.121973 0.247462
H11   H     H_    0.217179 0.393670 0.022015 0.285170
H12   H     H_    0.203461 0.194719 0.892266 0.203734
H13   H     H_    0.361288 0.321416 0.792895 0.221776
H14   H     H_    0.444172 0.210186 0.929636 0.149564

loop_
_geom_bond_atom_site_label_1
_geom_bond_atom_site_label_2
_ccdc_geom_bond_type
C20   H13   S    
C1    O2    A    
Cu2   O2    S    
Cu2   O4    S    
C10   O6    A    
Cu1   O3    S    
C19   O11   D    
C19   H9    S    
C17   H7    S    
C9    O3    A    
C5    C18   S    
C2    C12   A    
C12   H2    S    
C15   H5    S    
Cu1   Cu2   S    
C13   H3    S    
C7    C8    D    
C13   C14   A    
C20   C21   S    
C18   O10   D    
Cu2   O8    S    
C14   H4    S    
C5    C6    A    
Cu2   N1    S    
Cu1   O7    S    
C9    O4    A    
C3    C9    S    
Cu1   N2    S    
N1    C20   S    
C17   O9    D    
C2    C3    A    
C7    C19   S    
C18   H8    S    
Cu1   O5    S    
C21   H12   S    
Cu2   O6    S    
C6    C16   A    
C3    C4    A    
Cu1   O1    S    
C21   H10   S    
N2    C17   S    
C11   O7    A    
C2    C16   A    
C12   C13   A    
C8    C10   S    
C21   H11   S    
C20   H14   S    
C6    C11   S    
C1    O1    A    
C14   C15   A    
C8    H6    S    
N1    N2    D    
C1    C7    S    
C4    H1    S    
C10   O5    A    
C11   O8    A    
C15   C16   A    
C4    C5    A    
