data_mof_unit_1610.cif
_audit_creation_date              2012-12-10T17:38:17-0500
_audit_creation_method            fapswitch 2.2
_symmetry_space_group_name_H-M    P1
_symmetry_Int_Tables_number       1
_space_group_crystal_system       triclinic
_cell_length_a                    12.333138
_cell_length_b                    13.17676
_cell_length_c                    19.336785
_cell_angle_alpha                 77.586607
_cell_angle_beta                  101.336011
_cell_angle_gamma                 116.553478
_cell_volume                      2727.03569167

loop_
_atom_site_label
_atom_site_type_symbol
_atom_type_description
_atom_site_fract_x
_atom_site_fract_y
_atom_site_fract_z
_atom_type_partial_charge
C1    C     C_R   0.854821 0.286592 0.505323 0.782361
C2    C     C_R   0.000553 0.502847 0.707848 -0.025642
C3    C     C_R   0.001492 0.503548 0.069618 0.410327
C4    C     C_R   0.001392 0.504904 0.929142 0.409897
C5    C     C_R   0.097071 0.493203 0.195940 -0.159522
C6    C     C_R   0.096623 0.492017 0.268130 -0.187007
C7    C     C_R   0.000821 0.500866 0.291528 -0.026925
C8    C     C_R   0.905401 0.510696 0.241545 -0.193662
C9    C     C_R   0.905535 0.511288 0.169462 -0.157823
C10   C     C_R   0.001415 0.502680 0.145921 0.058660
C11   C     C_R   0.272810 0.023809 0.408324 -0.188611
C12   C     C_R   0.000117 0.500625 0.632260 0.788439
C13   C     C_R   0.227734 0.834838 0.475026 -0.050939
C14   C     C_R   0.815973 0.083219 0.544946 -0.180138
C15   C     C_R   0.737782 0.967805 0.556621 -0.141609
C16   C     C_R   0.613965 0.931110 0.533668 -0.183115
C17   C     C_R   0.566125 0.009603 0.495511 0.079435
C18   C     C_R   0.648793 0.125071 0.476123 0.082990
C19   C     C_R   0.439114 0.976823 0.474978 0.072824
C20   C     C_R   0.397918 0.055498 0.429261 0.165026
C21   C     C_R   0.482095 0.163887 0.403569 -0.238735
C22   C     C_R   0.605667 0.197682 0.425744 -0.195873
C23   C     C_R   0.145046 0.713486 0.489579 0.797211
C24   C     C_R   0.351436 0.868325 0.499230 -0.253725
C25   C     C_R   0.188030 0.913552 0.430649 -0.192674
C26   C     C_R   0.772625 0.163604 0.506781 -0.108149
C27   C     C_R   0.346032 0.324945 0.610533 -0.348274
C28   C     C_R   0.760506 0.646340 0.404359 0.041238
C29   C     C_R   0.663922 0.678791 0.382498 0.219005
C30   C     C_R   0.560546 0.623808 0.419277 -0.280733
C31   C     C_R   0.551710 0.535031 0.476628 -0.026464
C32   C     C_R   0.652806 0.504997 0.496114 0.267244
C33   C     C_R   0.446916 0.475012 0.515483 -0.012933
C34   C     C_R   0.000358 0.500315 0.367577 0.774465
C35   C     C_R   0.445999 0.386059 0.571823 0.136662
C36   C     C_R   0.545291 0.358593 0.590001 -0.272152
C37   C     C_R   0.646714 0.417497 0.553535 -0.169747
C38   C     C_R   0.342230 0.498500 0.501263 -0.052183
C39   C     C_R   0.246935 0.353242 0.595210 0.455784
C40   C     C_R   0.107797 0.522904 0.754895 -0.192303
C41   C     C_R   0.108063 0.523446 0.826860 -0.158909
C42   C     C_R   0.001212 0.505124 0.852904 0.056407
C43   C     C_R   0.894319 0.487015 0.805431 -0.155817
C44   C     C_R   0.894045 0.485964 0.733480 -0.192857
Cu1   Cu    Cu3+1 0.098280 0.475420 0.516260 0.953690
Cu2   Cu    Cu3+1 0.901720 0.524580 0.483740 0.921526
H1    H     H_    0.192038 0.540065 0.735880 0.143015
H2    H     H_    0.452341 0.223023 0.366092 0.145984
H3    H     H_    0.240894 0.083388 0.373185 0.137404
H4    H     H_    0.376877 0.807321 0.536915 0.148731
H5    H     H_    0.910393 0.109577 0.567037 0.147300
H6    H     H_    0.558929 0.840257 0.544914 0.129997
H7    H     H_    0.772818 0.906597 0.585539 0.144170
H8    H     H_    0.666543 0.280172 0.400797 0.177069
H9    H     H_    0.545284 0.291237 0.633602 0.151210
H10   H     H_    0.345168 0.255823 0.652937 0.148307
H11   H     H_    0.192283 0.539064 0.861896 0.152458
H12   H     H_    0.334857 0.564144 0.459090 0.138639
H13   H     H_    0.842102 0.690061 0.377658 0.138038
H14   H     H_    0.488188 0.651390 0.401576 0.134353
H15   H     H_    0.718712 0.391522 0.572782 0.203054
H16   H     H_    0.810528 0.472754 0.823851 0.151541
H17   H     H_    0.810185 0.470722 0.698121 0.146483
H18   H     H_    0.172180 0.486250 0.179462 0.150215
H19   H     H_    0.171595 0.484693 0.305488 0.148832
H20   H     H_    0.830252 0.517610 0.258049 0.148869
H21   H     H_    0.830660 0.518992 0.132226 0.151969
H22   H     H_    0.092384 0.888731 0.411217 0.154284
N1    N     N_R   0.902967 0.500195 0.953393 -0.243285
N2    N     N_R   0.903081 0.499667 0.022254 -0.242891
N3    N     N_R   0.099880 0.508163 0.045372 -0.243773
N4    N     N_R   0.099864 0.508932 0.976490 -0.243181
N5    N     N_R   0.246290 0.438200 0.540910 -0.193509
N6    N     N_R   0.754310 0.561190 0.459520 -0.232932
O1    O     O_R   0.972510 0.318130 0.520450 -0.557697
O2    O     O_R   0.806530 0.359650 0.492990 -0.605140
O3    O     O_R   0.083010 0.479220 0.613590 -0.545087
O4    O     O_R   0.917030 0.520740 0.586130 -0.599355
O5    O     O_R   0.193470 0.640350 0.507010 -0.589541
O6    O     O_R   0.027490 0.681870 0.479550 -0.584658
O7    O     O_R   0.082970 0.479260 0.413870 -0.585420
O8    O     O_R   0.916990 0.520780 0.386410 -0.596246
N7    N     N_2   0.145251 0.291097 0.634588 -0.379260
H23   H     H_    0.099655 0.206901 0.625883 0.222113
C45   C     C_3   0.171401 0.299654 0.709970 -0.685055
H24   H     H_    0.218784 0.245223 0.738157 0.203769
H25   H     H_    0.084537 0.269814 0.732826 0.235501
H26   H     H_    0.229694 0.389738 0.718806 0.231145
N8    N     N_2   0.672227 0.769269 0.325082 -0.430235
H27   H     H_    0.608164 0.801052 0.321275 0.258633
C46   C     C_3   0.684697 0.749346 0.256900 -0.698087
H28   H     H_    0.690823 0.824741 0.216153 0.235051
H29   H     H_    0.604091 0.672453 0.240017 0.227075
H30   H     H_    0.769072 0.737360 0.259663 0.223472

loop_
_geom_bond_atom_site_label_1
_geom_bond_atom_site_label_2
_ccdc_geom_bond_type
C40   H1    S    
C8    H20   S    
C41   C42   A    
C19   C20   A    
C18   C26   A    
Cu2   N6    S    
C2    C12   S    
Cu2   O2    S    
C7    C8    A    
C22   H8    S    
C45   H24   S    
N7    H23   S    
C15   H7    S    
C36   C37   A    
C32   N6    A    
C30   C31   A    
C45   H26   S    
C11   C25   A    
C15   C16   A    
C13   C23   S    
Cu1   N5    S    
C17   C19   A    
C38   H12   S    
C6    H19   S    
C14   H5    S    
C2    C44   A    
C8    C9    A    
C12   O4    A    
C31   C33   A    
C34   O7    A    
C23   O6    A    
N8    C46   S    
C9    C10   A    
C21   H2    S    
C28   N6    A    
Cu2   O8    S    
C21   C22   A    
C13   C25   A    
C25   H22   S    
C29   N8    S    
C4    N1    A    
C45   H25   S    
C44   H17   S    
C24   H4    S    
C11   C20   A    
C1    O1    A    
C3    N2    A    
C27   C39   A    
C46   H28   S    
Cu2   O4    S    
C27   H10   S    
C16   C17   A    
C27   C35   A    
Cu1   Cu2   S    
C5    H18   S    
C30   H14   S    
C35   C36   A    
C3    N3    A    
C43   C44   A    
C9    H21   S    
C29   C30   A    
C11   H3    S    
C46   H29   S    
C31   C32   A    
C12   O3    A    
C17   C18   A    
Cu1   O5    S    
C32   C37   A    
C14   C26   A    
C40   C41   A    
N7    C45   S    
C1    C26   S    
C7    C34   S    
C42   C43   A    
C4    N4    A    
C28   H13   S    
C28   C29   A    
C18   C22   A    
C1    O2    A    
Cu1   O7    S    
C16   H6    S    
C37   H15   S    
C6    C7    A    
C33   C38   A    
Cu1   O1    S    
C19   C24   A    
C41   H11   S    
C5    C10   A    
C36   H9    S    
C46   H30   S    
Cu2   O6    S    
C5    C6    A    
C4    C42   S    
C33   C35   A    
C39   N5    A    
N1    N2    A    
C39   N7    S    
C2    C40   A    
N3    N4    A    
C20   C21   A    
C13   C24   A    
C3    C10   S    
C14   C15   A    
Cu1   O3    S    
C34   O8    A    
C23   O5    A    
N8    H27   S    
C43   H16   S    
C38   N5    A    
