data_mof_unit_778.cif
_audit_creation_date              2012-12-10T18:44:22-0500
_audit_creation_method            fapswitch 2.2
_symmetry_space_group_name_H-M    P1
_symmetry_Int_Tables_number       1
_space_group_crystal_system       triclinic
_cell_length_a                    12.923794
_cell_length_b                    10.633246
_cell_length_c                    9.869634
_cell_angle_alpha                 89.107842
_cell_angle_beta                  97.854736
_cell_angle_gamma                 91.218618
_cell_volume                      1343.16476572

loop_
_atom_site_label
_atom_site_type_symbol
_atom_type_description
_atom_site_fract_x
_atom_site_fract_y
_atom_site_fract_z
_atom_type_partial_charge
C1    C     C_R   0.499165 0.260432 0.500672 0.935230
C2    C     C_R   0.500835 0.739568 0.499328 0.935231
C3    C     C_R   0.499986 0.872015 0.497773 -0.146754
C4    C     C_R   0.500014 0.127985 0.502227 -0.146758
C5    C     C_R   0.560445 0.585068 0.079238 0.220296
C6    C     C_R   0.439554 0.414932 0.920762 0.220294
C7    C     C_R   0.559560 0.584860 0.935990 -0.101719
C8    C     C_R   0.440440 0.415140 0.064010 -0.101721
C9    C     C_R   0.297774 0.500984 0.471776 0.913196
C10   C     C_R   0.702226 0.499017 0.528223 0.913193
C11   C     C_R   0.815136 0.497446 0.547250 -0.116504
C12   C     C_R   0.184864 0.502557 0.452750 -0.116503
C13   C     C_R   0.015200 0.503605 0.315765 -0.189271
C14   C     C_R   0.984800 0.496398 0.684234 -0.189268
C15   C     C_R   0.122995 0.504760 0.322443 0.187846
C16   C     C_R   0.877005 0.495244 0.677557 0.187844
C17   C     C_R   0.137481 0.500945 0.572021 -0.243684
C18   C     C_R   0.862519 0.499058 0.427979 -0.243680
C19   C     C_R   0.030686 0.499436 0.564367 0.127000
C20   C     C_R   0.969314 0.500567 0.435633 0.127000
C21   C     C_R   0.409151 0.064339 0.443242 0.109496
C22   C     C_R   0.590849 0.935661 0.556757 0.109500
C23   C     C_R   0.408539 0.933660 0.440525 0.078778
C24   C     C_R   0.591460 0.066339 0.559479 0.078775
H1    H     H_    0.816595 0.499641 0.327429 0.199233
H2    H     H_    0.183406 0.500361 0.672571 0.199234
H3    H     H_    0.967117 0.505030 0.216713 0.188184
H4    H     H_    0.032883 0.494975 0.783287 0.188184
H5    H     H_    0.607089 0.652419 0.887772 0.194464
H6    H     H_    0.392911 0.347582 0.112228 0.194465
N1    N     N_R   0.499970 0.499970 0.857200 -0.118018
N2    N     N_R   0.500030 0.500030 0.142800 -0.118021
O1    O     O_R   0.499990 0.316750 0.614620 -0.594087
O2    O     O_R   0.500010 0.683250 0.385380 -0.594088
O3    O     O_R   0.499990 0.316780 0.385290 -0.613953
O4    O     O_R   0.500010 0.683220 0.614710 -0.613955
O5    O     O_R   0.346360 0.499970 0.595710 -0.608776
O6    O     O_R   0.653640 0.500030 0.404290 -0.608774
O7    O     O_R   0.346360 0.499990 0.366380 -0.588068
O8    O     O_R   0.653640 0.500010 0.633620 -0.588067
Zn1   Zn    Zn3+2 0.500000 0.499980 0.653120 1.002717
Zn2   Zn    Zn3+2 0.500000 0.500020 0.346880 1.002716
I1    I     I_    0.821939 0.489901 0.871543 -0.352291
I2    I     I_    0.178062 0.510106 0.128458 -0.352294
I3    I     I_    0.271979 0.167580 0.363577 -0.324397
I4    I     I_    0.728021 0.832421 0.636417 -0.324400
C25   C     C_3   0.310692 0.860937 0.379489 -0.378377
C26   C     C_3   0.304171 0.852273 0.224188 -0.712839
H7    H     H_    0.369925 0.797099 0.196330 0.272675
H8    H     H_    0.229620 0.804786 0.182283 0.260776
H9    H     H_    0.306718 0.947260 0.176469 0.272048
H10   H     H_    0.307768 0.764491 0.423067 0.182280
H11   H     H_    0.239420 0.905060 0.406563 0.236776
C27   C     C_3   0.689303 0.139063 0.620530 -0.378372
C28   C     C_3   0.695810 0.147715 0.775831 -0.712842
H12   H     H_    0.770343 0.195237 0.817745 0.260777
H13   H     H_    0.630035 0.202851 0.803684 0.272673
H14   H     H_    0.693292 0.052723 0.823547 0.272046
H15   H     H_    0.760579 0.094944 0.593464 0.236775
H16   H     H_    0.692229 0.235512 0.576961 0.182285
I5    I     I_    0.660971 0.721232 0.185498 -0.292251
I6    I     I_    0.339029 0.278768 0.814502 -0.292256

loop_
_geom_bond_atom_site_label_1
_geom_bond_atom_site_label_2
_ccdc_geom_bond_type
C12   C17   A    
C6    C8    A    
C28   H12   S    
C11   C18   A    
C14   H4    S    
C25   H10   S    
C7    H5    S    
C14   C16   A    
C11   C16   A    
C18   C20   A    
C19   C20   A    
O2    Zn2   S    
C12   C15   A    
C25   H11   S    
C6    I6    S    
C10   O6    A    
C5    N2    A    
C8    H6    S    
C1    C4    S    
C26   H8    S    
C2    C3    S    
O1    Zn1   S    
C27   H16   S    
C4    C21   A    
C16   I1    S    
C2    O2    A    
O4    Zn1   S    
C18   H1    S    
C17   H2    S    
C14   C19   A    
C9    O5    A    
O8    Zn1   S    
C17   C19   A    
C15   I2    S    
O6    Zn2   S    
O7    Zn2   S    
C21   I3    S    
C27   H15   S    
C28   H13   S    
C13   C15   A    
O5    Zn1   S    
C4    C24   A    
C9    C12   S    
C22   C24   A    
C7    N1    A    
C10   C11   S    
C1    O1    A    
C5    I5    S    
C8    N2    A    
C9    O7    A    
C23   C25   S    
C1    O3    A    
C10   O8    A    
C28   H14   S    
C2    O4    A    
C5    C7    A    
O3    Zn2   S    
N2    Zn2   S    
C27   C28   S    
C26   H7    S    
C3    C22   A    
C6    N1    A    
N1    Zn1   S    
C13   C20   A    
C22   I4    S    
C3    C23   A    
C24   C27   S    
C21   C23   A    
C26   H9    S    
C13   H3    S    
C25   C26   S    
