data_mof_unit_2966.cif
_audit_creation_date              2012-12-10T19:10:29-0500
_audit_creation_method            fapswitch 2.2
_symmetry_space_group_name_H-M    P1
_symmetry_Int_Tables_number       1
_space_group_crystal_system       triclinic
_cell_length_a                    10.654485
_cell_length_b                    9.7132
_cell_length_c                    15.739495
_cell_angle_alpha                 90.010502
_cell_angle_beta                  90.101824
_cell_angle_gamma                 90.042725
_cell_volume                      1628.86380699

loop_
_atom_site_label
_atom_site_type_symbol
_atom_type_description
_atom_site_fract_x
_atom_site_fract_y
_atom_site_fract_z
_atom_type_partial_charge
C1    C     C_R   0.257901 0.500144 0.501435 1.016010
C2    C     C_3   0.617421 0.568146 0.950759 -0.599995
C3    C     C_3   0.616444 0.571026 0.048841 -0.401129
C4    C     C_1   0.497380 0.499507 0.825855 0.034439
C5    C     C_1   0.498027 0.499285 0.174074 -0.052477
C6    C     C_1   0.498950 0.499798 0.249360 -0.162813
C7    C     C_3   0.071185 0.649994 0.519556 0.281506
C8    C     C_3   0.070742 0.399394 0.570758 0.171301
C9    C     C_3   0.927717 0.650590 0.514061 -0.518072
C10   C     C_3   0.927482 0.411984 0.574889 -0.468702
C11   C     C_3   0.074727 0.456297 0.409532 0.624409
C12   C     C_3   0.121591 0.500458 0.501051 -0.171106
C13   C     C_3   0.878737 0.501092 0.499612 -0.184919
C14   C     C_R   0.499851 0.499973 0.338195 0.927508
C15   C     C_3   0.927027 0.447521 0.410668 0.718184
C16   C     C_3   0.372323 0.081291 0.481097 -0.366611
C17   C     C_3   0.372247 0.918565 0.481391 -0.364671
C18   C     C_3   0.582493 0.081042 0.430709 -0.285550
C19   C     C_3   0.582226 0.918984 0.430561 -0.299313
C20   C     C_3   0.539692 0.081659 0.582221 0.348367
C21   C     C_3   0.540125 0.918436 0.582128 0.349850
C22   C     C_R   0.742436 0.500270 0.501040 0.950488
C23   C     C_R   0.500023 0.500002 0.661764 0.915912
C24   C     C_3   0.379121 0.574768 0.049519 -0.460617
C25   C     C_3   0.494298 0.348203 0.049983 -0.478011
C26   C     C_3   0.493557 0.347708 0.951329 0.314396
C27   C     C_3   0.382383 0.583486 0.951267 0.281121
C28   C     C_1   0.498738 0.499913 0.750582 -0.121622
C29   C     C_3   0.497045 0.498441 0.082693 0.245572
C30   C     C_3   0.495813 0.498731 0.917359 0.226695
H1    H     H_    0.619098 0.679702 0.071289 0.193372
H2    H     H_    0.702086 0.518869 0.073529 0.200627
N1    N     N_3   0.499750 0.138610 0.498180 -0.083222
N2    N     N_3   0.499750 0.861390 0.498180 -0.082069
O1    O     O_R   0.314910 0.616040 0.499980 -0.600585
O2    O     O_R   0.314910 0.383960 0.499980 -0.651310
O3    O     O_R   0.500120 0.616090 0.377110 -0.628559
O4    O     O_R   0.500120 0.383910 0.377110 -0.608464
O5    O     O_R   0.685320 0.616040 0.499960 -0.609810
O6    O     O_R   0.685320 0.383960 0.499960 -0.592866
O7    O     O_R   0.500110 0.615990 0.622830 -0.582662
O8    O     O_R   0.500110 0.384010 0.622830 -0.595934
Zn1   Zn    Zn3+2 0.500150 0.654960 0.499960 0.974502
Zn2   Zn    Zn3+2 0.500150 0.345040 0.499960 0.966715
O9    O     O_3   0.268759 0.536672 0.916053 -0.741733
H3    H     H_    0.204651 0.607848 0.928771 0.341219
O10   O     O_3   0.392619 0.271022 0.917773 -0.725362
H4    H     H_    0.315065 0.296567 0.948645 0.385593
H5    H     H_    0.897947 0.718901 0.460891 0.209198
H6    H     H_    0.884862 0.307552 0.575760 0.179190
O11   O     O_3   0.113446 0.559206 0.351760 -0.765033
H7    H     H_    0.102412 0.522462 0.293300 0.392278
O12   O     O_3   0.129630 0.331108 0.381900 -0.754710
H8    H     H_    0.113392 0.257115 0.423371 0.301244
O13   O     O_3   0.878869 0.533899 0.346139 -0.750698
H9    H     H_    0.790131 0.507747 0.335448 0.338524
O14   O     O_3   0.885415 0.311826 0.393364 -0.767671
H10   H     H_    0.908202 0.250884 0.441257 0.292027
H11   H     H_    0.337214 0.119519 0.418807 0.215952
H12   H     H_    0.336403 0.879571 0.419445 0.198947
H13   H     H_    0.304862 0.119313 0.529579 0.157241
H14   H     H_    0.305285 0.881215 0.530363 0.201343
H15   H     H_    0.550208 0.118115 0.367483 0.186969
H16   H     H_    0.549331 0.882279 0.367374 0.183285
O15   O     O_3   0.653411 0.139970 0.610542 -0.716423
H17   H     H_    0.721255 0.114436 0.570886 0.317814
O16   O     O_3   0.654430 0.860949 0.609830 -0.722101
H18   H     H_    0.721948 0.888461 0.570393 0.320161
H19   H     H_    0.468874 0.113931 0.630222 0.111525
H20   H     H_    0.469933 0.885471 0.630384 0.115777
H21   H     H_    0.679637 0.120713 0.436860 0.176780
H22   H     H_    0.679279 0.878922 0.436341 0.157177
H23   H     H_    0.293004 0.519867 0.070954 0.203559
H24   H     H_    0.410971 0.293380 0.075926 0.190065
H25   H     H_    0.578564 0.291878 0.073358 0.166268
H26   H     H_    0.375283 0.680715 0.076417 0.156677
H27   H     H_    0.581017 0.295590 0.929851 0.135154
H28   H     H_    0.396123 0.693383 0.932488 0.106090
H29   H     H_    0.625260 0.675205 0.926011 0.209446
H30   H     H_    0.701530 0.510881 0.928221 0.205223
H31   H     H_    0.105823 0.721820 0.469718 0.187485
H32   H     H_    0.093071 0.290643 0.554751 0.085655
O17   O     O_3   0.115425 0.703087 0.597624 -0.740830
H33   H     H_    0.062620 0.667431 0.644498 0.394118
O18   O     O_3   0.122440 0.427802 0.651304 -0.713288
H34   H     H_    0.203773 0.378374 0.655214 0.345544
H35   H     H_    0.886179 0.695207 0.572791 0.219687
H36   H     H_    0.898900 0.460863 0.635917 0.240756

loop_
_geom_bond_atom_site_label_1
_geom_bond_atom_site_label_2
_ccdc_geom_bond_type
C7    O17   S    
O13   H9    S    
O7    Zn1   S    
C24   C27   S    
C27   H28   S    
O18   H34   S    
C10   H36   S    
C23   O8    A    
C8    H32   S    
C8    O18   S    
C5    C6    T    
C16   N1    S    
C18   H15   S    
C6    C14   S    
C18   C19   S    
C25   H24   S    
C3    C29   S    
C9    C13   S    
C24   C29   S    
C2    H29   S    
C11   C15   S    
O17   H33   S    
C16   C17   S    
O1    Zn1   S    
C11   O12   S    
C27   O9    S    
C21   O16   S    
C27   C30   S    
C15   O14   S    
C19   H22   S    
C1    C12   S    
O8    Zn2   S    
C4    C28   T    
C5    C29   S    
C25   C29   S    
C7    C12   S    
C26   H27   S    
O16   H18   S    
C20   O15   S    
C9    H5    S    
C24   H26   S    
O5    Zn1   S    
C21   N2    S    
C25   C26   S    
O12   H8    S    
C10   C13   S    
O11   H7    S    
C25   H25   S    
C16   H11   S    
C15   O13   S    
O3    Zn1   S    
O4    Zn2   S    
C17   H14   S    
C14   O4    A    
O10   H4    S    
C19   H16   S    
C8    C12   S    
C22   O6    A    
C23   C28   S    
C3    H1    S    
C26   O10   S    
C20   N1    S    
C7    H31   S    
C26   C30   S    
C13   C15   S    
C20   H19   S    
O2    Zn2   S    
C17   N2    S    
C10   H6    S    
C1    O1    A    
C18   H21   S    
C7    C9    S    
N1    Zn2   S    
N2    Zn1   S    
C19   N2    S    
C11   C12   S    
C23   O7    A    
C21   H20   S    
C2    C30   S    
C2    C3    S    
C9    H35   S    
C14   O3    A    
O14   H10   S    
C22   O5    A    
C13   C22   S    
C11   O11   S    
C3    H2    S    
C24   H23   S    
C18   N1    S    
C2    H30   S    
C17   H12   S    
O9    H3    S    
O6    Zn2   S    
C20   C21   S    
C8    C10   S    
O15   H17   S    
C16   H13   S    
C4    C30   S    
C1    O2    A    
