data_mof_unit_3606.cif
_audit_creation_date              2012-10-26T19:00:10-0400
_audit_creation_method            fapswitch 2.2
_symmetry_space_group_name_H-M    P1
_symmetry_Int_Tables_number       1
_space_group_crystal_system       triclinic
_cell_length_a                    10.880062
_cell_length_b                    10.751525
_cell_length_c                    9.640915
_cell_angle_alpha                 89.683243
_cell_angle_beta                  91.049557
_cell_angle_gamma                 88.414475
_cell_volume                      1127.12633848

loop_
_atom_site_label
_atom_site_type_symbol
_atom_type_description
_atom_site_fract_x
_atom_site_fract_y
_atom_site_fract_z
_atom_type_partial_charge
Br1   Br    Br    0.765291 0.837847 0.550829 -0.469240
Br2   Br    Br    0.231524 0.773651 0.008085 -0.497287
Br3   Br    Br    0.113473 0.677603 0.708561 -0.469674
C1    C     C_R   0.505081 0.263109 0.500370 0.535603
C2    C     C_R   0.840205 0.500262 0.002509 -0.118677
C3    C     C_R   0.808266 0.376004 0.018517 -0.103777
C4    C     C_R   0.261785 0.502101 0.498186 0.571548
C5    C     C_R   0.820930 0.293545 0.908326 -0.103169
C6    C     C_R   0.864933 0.335317 0.781810 -0.081496
C7    C     C_R   0.895600 0.460645 0.763957 0.060366
C8    C     C_R   0.398243 0.070880 0.469284 -0.009519
C9    C     C_R   0.506727 0.130125 0.499217 -0.019218
C10   C     C_R   0.616522 0.060632 0.517434 -0.127283
C11   C     C_R   0.614145 0.930537 0.517664 0.124872
C12   C     C_R   0.211438 0.503900 0.975423 -0.067771
C13   C     C_R   0.501087 0.871197 0.497971 0.002585
C14   C     C_R   0.394566 0.942556 0.465804 0.006606
C15   C     C_3   0.272671 0.945670 0.536823 -0.002725
C16   C     C_R   0.496660 0.737430 0.499593 0.600247
C17   C     C_3   0.280076 0.086010 0.542764 -0.243637
C18   C     C_R   0.491336 0.608597 0.072222 0.195239
C19   C     C_R   0.500215 0.391955 0.074480 -0.021979
C20   C     C_R   0.500524 0.391918 0.926704 -0.027710
C21   C     C_R   0.491605 0.608623 0.926072 0.193376
C22   C     C_3   0.575118 0.716174 0.921708 -0.251966
C23   C     C_R   0.931896 0.457818 0.381110 -0.152251
C24   C     C_3   0.574019 0.716674 0.079566 -0.259723
C25   C     C_R   0.737213 0.490653 0.501622 0.571130
C26   C     C_R   0.187262 0.608211 0.058278 0.192995
C27   C     C_R   0.133396 0.592211 0.185693 -0.028897
C28   C     C_R   0.109333 0.473570 0.235684 0.017811
C29   C     C_R   0.131320 0.369164 0.152701 -0.091504
C30   C     C_R   0.181921 0.384811 0.021647 -0.140535
C31   C     C_R   0.871316 0.478756 0.505012 -0.010431
C32   C     C_R   0.939792 0.501331 0.626953 0.025159
C33   C     C_R   0.062550 0.531852 0.614505 0.135506
C34   C     C_R   0.126293 0.499370 0.494675 0.013355
C35   C     C_R   0.058644 0.464480 0.374883 -0.054523
C36   C     C_R   0.882863 0.542968 0.875524 -0.052745
Cu1   Cu    Cu3+1 0.499990 0.499980 0.640670 0.979534
Cu2   Cu    Cu3+1 0.500010 0.500020 0.359330 0.973017
H1    H     H_    0.254520 0.513995 0.876583 0.190685
H2    H     H_    0.502496 0.303705 0.873757 0.128650
H3    H     H_    0.666179 0.691374 0.878134 0.163332
H4    H     H_    0.529115 0.800280 0.874679 0.167491
H5    H     H_    0.664396 0.693154 0.129454 0.149399
H6    H     H_    0.526636 0.800669 0.122139 0.172116
H7    H     H_    0.113022 0.672160 0.248492 0.181881
H8    H     H_    0.110651 0.276924 0.189688 0.134646
H9    H     H_    0.200493 0.304722 0.957025 0.125038
H10   H     H_    0.879997 0.440987 0.287306 0.134027
H11   H     H_    0.902889 0.640343 0.864255 0.183023
H12   H     H_    0.772587 0.343325 0.115687 0.116604
H13   H     H_    0.831456 0.563954 0.088178 0.118146
H14   H     H_    0.796205 0.197357 0.920750 0.125337
H15   H     H_    0.874348 0.270127 0.697110 0.105649
H16   H     H_    0.702511 0.107033 0.535186 0.138085
H17   H     H_    0.276469 0.900138 0.640706 0.188943
H18   H     H_    0.209795 0.138150 0.478714 0.160884
H19   H     H_    0.292322 0.121784 0.650060 0.127604
H20   H     H_    0.501986 0.303679 0.128397 0.132543
I1    I     I_    0.124152 0.894711 0.402937 -0.278071
N1    N     N_R   0.500790 0.500930 0.147930 -0.240967
N2    N     N_R   0.500790 0.500890 0.852020 -0.244826
O1    O     O_R   0.500000 0.319640 0.618810 -0.524900
O2    O     O_R   0.500010 0.319680 0.381230 -0.514531
O3    O     O_R   0.319640 0.499990 0.618790 -0.487240
O4    O     O_R   0.319650 0.500030 0.381210 -0.489937
O5    O     O_R   0.499990 0.680320 0.618770 -0.480972
O6    O     O_R   0.500000 0.680360 0.381190 -0.483607
O7    O     O_R   0.680350 0.499970 0.618790 -0.481358
O8    O     O_R   0.680360 0.500010 0.381210 -0.510890

loop_
_geom_bond_atom_site_label_1
_geom_bond_atom_site_label_2
_ccdc_geom_bond_type
C3    C5    A    
C8    C9    A    
C26   C27   A    
C12   C30   A    
Cu1   O7    S    
C17   H19   S    
Cu1   O3    S    
C6    C7    A    
C23   H10   S    
C32   C33   A    
Cu1   N2    S    
C28   C35   S    
C19   N1    A    
C23   C35   A    
C29   C30   A    
C4    O4    A    
C14   C15   S    
C18   C24   S    
C20   N2    A    
C25   C31   S    
C17   H18   S    
C21   N2    A    
C6    H15   S    
C10   C11   A    
C21   C22   S    
C19   H20   S    
C1    O2    A    
C25   O8    A    
Br3   C33   S    
Cu2   O8    S    
C2    C3    A    
C24   H5    S    
C27   H7    S    
Cu1   Cu2   S    
C34   C35   A    
C15   H17   S    
C12   C26   A    
Cu2   O4    S    
C15   C17   S    
Cu1   O1    S    
C2    C36   A    
C13   C16   S    
C27   C28   A    
C29   H8    S    
C7    C32   S    
C11   C13   A    
C8    C17   S    
C18   N1    A    
C25   O7    A    
C16   O5    A    
Cu1   O5    S    
Cu2   N1    S    
Cu2   O2    S    
C4    O3    A    
C13   C14   A    
C22   H4    S    
C2    H13   S    
C10   H16   S    
Br2   C26   S    
C9    C10   A    
C5    H14   S    
C33   C34   A    
C31   C32   A    
C18   C21   A    
C24   H6    S    
C1    O1    A    
Cu2   O6    S    
C16   O6    A    
C15   I1    S    
Br1   C11   S    
C3    H12   S    
C23   C31   A    
C30   H9    S    
C1    C9    S    
C20   H2    S    
C7    C36   A    
C19   C20   A    
C22   H3    S    
C28   C29   A    
C12   H1    S    
C36   H11   S    
C5    C6    A    
C4    C34   S    
C22   C24   S    
C8    C14   A    
