data_mof_unit_526.cif
_audit_creation_date              2012-12-11T15:08:36-0500
_audit_creation_method            fapswitch 2.2
_symmetry_space_group_name_H-M    P1
_symmetry_Int_Tables_number       1
_space_group_crystal_system       triclinic
_cell_length_a                    19.446145
_cell_length_b                    11.330349
_cell_length_c                    18.705171
_cell_angle_alpha                 89.387633
_cell_angle_beta                  90.073547
_cell_angle_gamma                 90.111423
_cell_volume                      4121.09396708

loop_
_atom_site_label
_atom_site_type_symbol
_atom_type_description
_atom_site_fract_x
_atom_site_fract_y
_atom_site_fract_z
_atom_type_partial_charge
C1    C     C_R   0.274250 0.039122 0.855408 0.531554
C2    C     C_R   0.727048 0.043463 0.146077 0.533095
C3    C     C_R   0.774249 0.539123 0.855407 0.530787
C4    C     C_R   0.227050 0.543467 0.146079 0.538310
C5    C     C_3   0.520866 0.730043 0.964055 0.265741
C6    C     C_3   0.482312 0.721637 0.033627 0.252655
C7    C     C_3   0.020865 0.230042 0.964056 0.265842
C8    C     C_3   0.982312 0.221638 0.033628 0.252513
C9    C     C_3   0.310019 0.530596 0.044663 -0.201989
C10   C     C_3   0.690826 0.526321 0.957252 -0.182816
C11   C     C_3   0.810018 0.030595 0.044663 -0.202022
C12   C     C_3   0.190826 0.026321 0.957253 -0.182884
C13   C     C_3   0.319402 0.550956 0.964012 -0.235368
C14   C     C_3   0.677019 0.565931 0.034188 -0.221874
C15   C     C_3   0.819402 0.050957 0.964012 -0.235121
C16   C     C_3   0.177019 0.065931 0.034188 -0.221855
C17   C     C_3   0.177497 0.527948 0.027090 -0.255259
C18   C     C_3   0.820547 0.533241 0.977472 -0.258453
C19   C     C_3   0.677497 0.027949 0.027088 -0.254555
C20   C     C_3   0.320547 0.033241 0.977472 -0.258503
C21   C     C_3   0.237429 0.709527 0.057444 0.087359
C22   C     C_3   0.757732 0.709475 0.934483 0.095502
C23   C     C_3   0.737429 0.209526 0.057446 0.087100
C24   C     C_3   0.257732 0.209474 0.934483 0.095465
C25   C     C_3   0.239336 0.576523 0.070835 0.079526
C26   C     C_3   0.759909 0.575411 0.929252 0.083384
C27   C     C_3   0.739336 0.076521 0.070834 0.080912
C28   C     C_3   0.259909 0.075410 0.929252 0.083113
C29   C     C_3   0.254703 0.611600 0.932882 0.013451
C30   C     C_3   0.740998 0.630318 0.063762 0.013588
C31   C     C_3   0.754704 0.111603 0.932883 0.015049
C32   C     C_3   0.240998 0.130319 0.063761 0.013509
C33   C     C_3   0.192706 0.530490 0.946291 -0.279752
C34   C     C_3   0.803418 0.547742 0.057223 -0.251574
C35   C     C_3   0.692706 0.030492 0.946289 -0.280390
C36   C     C_3   0.303419 0.047746 0.057223 -0.251495
C37   C     C_3   0.240545 0.727397 0.974754 -0.156973
C38   C     C_3   0.757191 0.739153 0.015231 -0.176996
C39   C     C_3   0.740546 0.227398 0.974756 -0.156354
C40   C     C_3   0.257191 0.239154 0.015230 -0.177101
C41   C     C_3   0.504370 0.698523 0.461480 -0.228770
C42   C     C_3   0.501858 0.699560 0.541431 -0.229559
C43   C     C_3   0.004423 0.199904 0.461272 -0.225704
C44   C     C_3   0.003648 0.200912 0.541317 -0.232538
C45   C     C_R   0.443303 0.816674 0.862019 0.546284
C46   C     C_R   0.554283 0.817788 0.137672 0.535179
C47   C     C_R   0.943303 0.316674 0.862019 0.545643
C48   C     C_R   0.054283 0.317788 0.137672 0.535612
C49   C     C_3   0.559917 0.907606 0.471928 -0.217982
C50   C     C_3   0.429184 0.888917 0.525441 -0.216893
C51   C     C_3   0.059217 0.409805 0.468709 -0.211208
C52   C     C_3   0.930677 0.384055 0.526815 -0.222833
C53   C     C_3   0.437452 0.877889 0.443022 -0.261908
C54   C     C_3   0.552763 0.897595 0.553899 -0.261214
C55   C     C_3   0.937894 0.381173 0.444141 -0.263286
C56   C     C_3   0.055008 0.400487 0.551363 -0.257052
C57   C     C_3   0.508628 0.826318 0.430349 0.062060
C58   C     C_3   0.487851 0.826968 0.568685 0.062739
C59   C     C_3   0.007705 0.327769 0.429474 0.065146
C60   C     C_3   0.991036 0.328248 0.568934 0.057411
C61   C     C_3   0.179315 0.644615 0.459429 -0.233572
C62   C     C_3   0.815423 0.662740 0.542976 -0.236011
C63   C     C_3   0.676177 0.139217 0.461061 -0.227430
C64   C     C_3   0.321199 0.152768 0.540915 -0.224928
C65   C     C_3   0.185422 0.661537 0.538245 -0.233009
C66   C     C_3   0.813522 0.666279 0.463023 -0.226786
C67   C     C_3   0.678732 0.144850 0.541170 -0.234374
C68   C     C_3   0.319124 0.154913 0.460841 -0.227256
C69   C     C_3   0.240161 0.450025 0.490158 -0.267246
C70   C     C_3   0.758564 0.462383 0.528949 -0.222730
C71   C     C_3   0.754571 0.953982 0.474426 -0.216140
C72   C     C_3   0.244748 0.963191 0.531553 -0.213991
C73   C     C_3   0.304307 0.613323 0.434432 -0.225341
C74   C     C_3   0.689727 0.637316 0.557689 -0.256803
C75   C     C_3   0.800673 0.147595 0.441482 -0.261080
C76   C     C_3   0.196917 0.157870 0.558321 -0.265067
C77   C     C_3   0.233740 0.553155 0.434416 0.064353
C78   C     C_3   0.758433 0.578593 0.571513 0.062171
C79   C     C_3   0.738643 0.069298 0.430890 0.065815
C80   C     C_3   0.259195 0.080594 0.571780 0.068819
C81   C     C_3   0.259204 0.627223 0.563376 0.063895
C82   C     C_3   0.746270 0.608916 0.433407 0.065414
C83   C     C_3   0.750553 0.104501 0.568371 0.060684
C84   C     C_3   0.248148 0.108730 0.433272 0.064946
C85   C     C_3   0.265316 0.492488 0.563191 -0.224465
C86   C     C_3   0.753804 0.477543 0.447025 -0.265028
C87   C     C_3   0.756249 0.973042 0.555971 -0.254741
C88   C     C_3   0.247739 0.976337 0.449289 -0.266338
C89   C     C_R   0.262272 0.642699 0.855359 0.536754
C90   C     C_R   0.730736 0.669132 0.139286 0.526695
C91   C     C_R   0.762273 0.142702 0.855360 0.531352
C92   C     C_R   0.230735 0.169135 0.139286 0.527062
C93   C     C_3   0.312881 0.672262 0.507369 -0.272057
C94   C     C_3   0.680263 0.645268 0.475707 -0.216058
C95   C     C_3   0.806860 0.165674 0.522821 -0.229998
C96   C     C_3   0.186613 0.162314 0.475875 -0.214950
C97   C     C_R   0.272051 0.047782 0.647496 0.534925
C98   C     C_R   0.725860 0.040795 0.355063 0.540782
C99   C     C_R   0.772151 0.546644 0.647145 0.536944
C100  C     C_R   0.214994 0.513043 0.361815 0.539018
C101  C     C_R   0.468208 0.822830 0.645246 0.545256
C102  C     C_R   0.530544 0.822350 0.354192 0.545869
C103  C     C_R   0.970420 0.323336 0.646109 0.543721
C104  C     C_R   0.028943 0.322685 0.353120 0.541625
C105  C     C_R   0.270490 0.674010 0.636301 0.538447
C106  C     C_R   0.738615 0.641374 0.356973 0.545523
C107  C     C_R   0.760399 0.139651 0.644060 0.539425
C108  C     C_R   0.239335 0.140018 0.356527 0.542767
C109  C     C_3   0.473589 0.912514 0.036743 -0.144730
C110  C     C_3   0.514510 0.921027 0.965278 -0.153518
C111  C     C_3   0.973590 0.412515 0.036744 -0.144899
C112  C     C_3   0.014511 0.421026 0.965278 -0.153383
C113  C     C_3   0.429435 0.810238 0.005853 -0.154410
C114  C     C_3   0.566490 0.827756 0.993481 -0.165072
C115  C     C_3   0.929435 0.310240 0.005854 -0.154473
C116  C     C_3   0.066490 0.327754 0.993482 -0.164952
C117  C     C_3   0.470167 0.820514 0.935480 0.020764
C118  C     C_3   0.525901 0.821167 0.064409 0.022145
C119  C     C_3   0.970167 0.320514 0.935481 0.021021
C120  C     C_3   0.025901 0.321167 0.064410 0.022048
Cr1   Cr    Cr6+3 0.229620 0.836040 0.749110 1.000041
Cr2   Cr    Cr6+3 0.770380 0.836040 0.250890 1.004391
Cr3   Cr    Cr6+3 0.729620 0.336040 0.749110 1.001814
Cr4   Cr    Cr6+3 0.270380 0.336040 0.250890 1.003937
Cr5   Cr    Cr6+3 0.387630 0.990680 0.750730 0.994506
Cr6   Cr    Cr6+3 0.612370 0.990680 0.249270 0.996793
Cr7   Cr    Cr6+3 0.887630 0.490680 0.750730 0.997733
Cr8   Cr    Cr6+3 0.112370 0.490680 0.249270 0.994695
Cr9   Cr    Cr6+3 0.386020 0.676590 0.749210 1.005249
Cr10  Cr    Cr6+3 0.613980 0.676590 0.250790 1.008718
Cr11  Cr    Cr6+3 0.886020 0.176590 0.749210 1.005969
Cr12  Cr    Cr6+3 0.113980 0.176590 0.250790 1.006806
H1    H     H_    0.375447 0.789100 0.010507 0.182278
H2    H     H_    0.620733 0.819845 0.981459 0.183853
H3    H     H_    0.875447 0.289105 0.010511 0.182276
H4    H     H_    0.120734 0.319844 0.981461 0.183876
H5    H     H_    0.188167 0.748464 0.076876 0.122126
H6    H     H_    0.804704 0.750736 0.910472 0.117763
H7    H     H_    0.688167 0.248462 0.076877 0.121945
H8    H     H_    0.304703 0.250736 0.910471 0.118053
H9    H     H_    0.276669 0.795417 0.958021 0.112718
H10   H     H_    0.723181 0.810713 0.026665 0.109786
H11   H     H_    0.776670 0.295418 0.958024 0.112926
H12   H     H_    0.223181 0.310714 0.026664 0.109742
H13   H     H_    0.188054 0.754004 0.957998 0.101930
H14   H     H_    0.810210 0.766815 0.028567 0.090560
H15   H     H_    0.688055 0.254005 0.958000 0.102056
H16   H     H_    0.310210 0.266817 0.028566 0.090570
H17   H     H_    0.631119 0.083826 0.035554 0.129638
H18   H     H_    0.367590 0.086069 0.965304 0.127470
H19   H     H_    0.131119 0.583826 0.035556 0.129616
H20   H     H_    0.867590 0.586070 0.965305 0.127468
H21   H     H_    0.146586 0.561669 0.916426 0.137683
H22   H     H_    0.849206 0.583968 0.085091 0.140576
H23   H     H_    0.646586 0.061672 0.916424 0.137256
H24   H     H_    0.349207 0.083974 0.085090 0.140596
H25   H     H_    0.546113 0.641447 0.444993 0.136371
H26   H     H_    0.465147 0.630751 0.559223 0.135806
H27   H     H_    0.044912 0.140784 0.443754 0.138049
H28   H     H_    0.965215 0.134684 0.558670 0.137217
H29   H     H_    0.457930 0.653002 0.440419 0.116168
H30   H     H_    0.551255 0.668622 0.563524 0.117599
H31   H     H_    0.957301 0.155341 0.441619 0.111845
H32   H     H_    0.052385 0.167484 0.562761 0.115621
H33   H     H_    0.613118 0.897287 0.454683 0.113012
H34   H     H_    0.380129 0.858618 0.545349 0.103647
H35   H     H_    0.109275 0.396417 0.445325 0.104982
H36   H     H_    0.889674 0.327663 0.542532 0.110776
H37   H     H_    0.598483 0.855048 0.578216 0.107262
H38   H     H_    0.396799 0.821530 0.419653 0.109620
H39   H     H_    0.101402 0.357931 0.574301 0.108146
H40   H     H_    0.896862 0.327557 0.419414 0.108032
H41   H     H_    0.454975 0.988882 0.067682 0.133146
H42   H     H_    0.527297 0.004599 0.936818 0.131708
H43   H     H_    0.954977 0.488884 0.067682 0.133149
H44   H     H_    0.027298 0.504598 0.936818 0.131869
H45   H     H_    0.434009 0.964971 0.415886 0.109954
H46   H     H_    0.547075 0.986213 0.577869 0.113380
H47   H     H_    0.934238 0.471345 0.420678 0.112056
H48   H     H_    0.050406 0.489796 0.574853 0.115712
H49   H     H_    0.432599 0.983021 0.537415 0.123545
H50   H     H_    0.544359 0.998639 0.457643 0.120698
H51   H     H_    0.922324 0.475551 0.544285 0.129360
H52   H     H_    0.045375 0.501778 0.454259 0.121936
H53   H     H_    0.126051 0.620312 0.447125 0.123897
H54   H     H_    0.868344 0.637841 0.558664 0.136710
H55   H     H_    0.626591 0.104635 0.444912 0.135889
H56   H     H_    0.372083 0.122748 0.558083 0.136351
H57   H     H_    0.188057 0.730327 0.431352 0.133931
H58   H     H_    0.807688 0.751516 0.564991 0.116080
H59   H     H_    0.676331 0.230476 0.438489 0.115835
H60   H     H_    0.319442 0.244755 0.561041 0.111642
H61   H     H_    0.171502 0.753324 0.550029 0.123269
H62   H     H_    0.822101 0.756488 0.445160 0.137507
H63   H     H_    0.664939 0.236067 0.555924 0.134310
H64   H     H_    0.334740 0.243515 0.442041 0.134913
H65   H     H_    0.146973 0.605359 0.566399 0.136400
H66   H     H_    0.858952 0.618846 0.441831 0.114485
H67   H     H_    0.638795 0.088331 0.565358 0.118855
H68   H     H_    0.360556 0.098746 0.439955 0.111800
H69   H     H_    0.721072 0.881001 0.460064 0.110525
H70   H     H_    0.277258 0.895440 0.554398 0.106925
H71   H     H_    0.191668 0.411351 0.503555 0.103935
H72   H     H_    0.807651 0.428698 0.541930 0.112405
H73   H     H_    0.713626 0.925035 0.582821 0.103803
H74   H     H_    0.293977 0.933193 0.427063 0.109348
H75   H     H_    0.234255 0.452550 0.607330 0.120157
H76   H     H_    0.800177 0.443039 0.420119 0.107236
H77   H     H_    0.346101 0.547765 0.426323 0.130492
H78   H     H_    0.648651 0.582247 0.582395 0.118114
H79   H     H_    0.847686 0.105730 0.419783 0.114891
H80   H     H_    0.152606 0.117120 0.586129 0.111045
H81   H     H_    0.307967 0.679506 0.390047 0.121669
H82   H     H_    0.688235 0.725807 0.582104 0.103430
H83   H     H_    0.793664 0.232801 0.412500 0.105424
H84   H     H_    0.204085 0.247198 0.580724 0.106470
H85   H     H_    0.304166 0.763206 0.493661 0.106491
H86   H     H_    0.659490 0.730047 0.458482 0.110474
H87   H     H_    0.796692 0.256008 0.531425 0.112139
H88   H     H_    0.173694 0.249435 0.455251 0.107467
H89   H     H_    0.364880 0.659123 0.527536 0.122924
H90   H     H_    0.641160 0.578229 0.462509 0.119732
H91   H     H_    0.858114 0.138313 0.541405 0.128695
H92   H     H_    0.142960 0.104150 0.464925 0.122732
H93   H     H_    0.274266 0.382427 0.469725 0.122750
H94   H     H_    0.717114 0.403052 0.547791 0.132150
H95   H     H_    0.807434 0.929417 0.459423 0.121337
H96   H     H_    0.191594 0.935389 0.545085 0.121308
H97   H     H_    0.319670 0.464827 0.571692 0.128871
H98   H     H_    0.709024 0.428075 0.425591 0.111193
H99   H     H_    0.805680 0.941392 0.578974 0.116756
H100  H     H_    0.202055 0.933974 0.424546 0.111716
H101  H     H_    0.318059 0.438157 0.058841 0.116401
H102  H     H_    0.690874 0.431567 0.955965 0.091866
H103  H     H_    0.818058 0.938156 0.058840 0.116656
H104  H     H_    0.190874 0.931566 0.955965 0.091895
H105  H     H_    0.350597 0.577056 0.074351 0.243733
H106  H     H_    0.649407 0.552296 0.920503 0.241048
H107  H     H_    0.850596 0.077054 0.074352 0.243480
H108  H     H_    0.149407 0.052296 0.920503 0.241074
H109  H     H_    0.365756 0.605897 0.954137 0.147958
H110  H     H_    0.632036 0.625290 0.035613 0.150279
H111  H     H_    0.865757 0.105898 0.954138 0.148222
H112  H     H_    0.132035 0.125288 0.035614 0.150298
H113  H     H_    0.328184 0.465048 0.937342 0.116101
H114  H     H_    0.664490 0.487231 0.067889 0.123375
H115  H     H_    0.828184 0.965050 0.937341 0.115819
H116  H     H_    0.164491 0.987231 0.067890 0.123551
H117  H     H_    0.660578 0.944354 0.050032 0.096003
H118  H     H_    0.334639 0.944067 0.964447 0.106815
H119  H     H_    0.160579 0.444354 0.050035 0.095703
H120  H     H_    0.834641 0.444068 0.964445 0.106758
H121  H     H_    0.705139 0.942958 0.927070 0.194050
H122  H     H_    0.291177 0.963167 0.082832 0.201531
H123  H     H_    0.205139 0.442955 0.927072 0.194438
H124  H     H_    0.791175 0.463162 0.082829 0.201442
O1    O     O_R   0.214130 0.708570 0.829890 -0.521487
O2    O     O_R   0.785870 0.708570 0.170110 -0.519469
O3    O     O_R   0.714130 0.208570 0.829890 -0.524891
O4    O     O_R   0.285870 0.208570 0.170110 -0.519649
O5    O     O_R   0.446360 0.919990 0.675230 -0.507099
O6    O     O_R   0.553640 0.919990 0.324770 -0.507455
O7    O     O_R   0.946360 0.419990 0.675230 -0.505142
O8    O     O_R   0.053640 0.419990 0.324770 -0.515930
O9    O     O_R   0.457170 0.717300 0.668380 -0.530355
O10   O     O_R   0.542830 0.717300 0.331620 -0.526600
O11   O     O_R   0.957170 0.217300 0.668380 -0.526675
O12   O     O_R   0.042830 0.217300 0.331620 -0.526243
O13   O     O_R   0.320870 0.624890 0.673130 -0.508780
O14   O     O_R   0.679130 0.624890 0.326870 -0.508999
O15   O     O_R   0.820870 0.124890 0.673130 -0.512102
O16   O     O_R   0.179130 0.124890 0.326870 -0.508463
O17   O     O_3   0.334430 0.834430 0.749680 -0.304006
O18   O     O_3   0.665570 0.834430 0.250320 -0.300258
O19   O     O_3   0.834430 0.334430 0.749680 -0.292388
O20   O     O_3   0.165570 0.334430 0.250320 -0.308609
O21   O     O_R   0.236050 0.959150 0.825270 -0.510390
O22   O     O_R   0.763950 0.959150 0.174730 -0.514321
O23   O     O_R   0.736050 0.459150 0.825270 -0.510763
O24   O     O_R   0.263950 0.459150 0.174730 -0.511587
O25   O     O_R   0.332100 0.076650 0.832310 -0.546382
O26   O     O_R   0.667900 0.076650 0.167690 -0.542850
O27   O     O_R   0.832100 0.576650 0.832310 -0.547072
O28   O     O_R   0.167900 0.576650 0.167690 -0.540222
O29   O     O_R   0.446500 0.918620 0.826240 -0.501073
O30   O     O_R   0.553500 0.918620 0.173760 -0.501775
O31   O     O_R   0.946500 0.418620 0.826240 -0.501963
O32   O     O_R   0.053500 0.418620 0.173760 -0.501881
O33   O     O_R   0.457310 0.715830 0.831280 -0.472393
O34   O     O_R   0.542690 0.715830 0.168720 -0.475389
O35   O     O_R   0.957310 0.215830 0.831280 -0.472682
O36   O     O_R   0.042690 0.215830 0.168720 -0.475380
O37   O     O_R   0.321000 0.623520 0.824130 -0.519777
O38   O     O_R   0.679000 0.623520 0.175870 -0.518307
O39   O     O_R   0.821000 0.123520 0.824130 -0.523331
O40   O     O_R   0.179000 0.123520 0.175870 -0.517398
O41   O     O_R   0.213990 0.710040 0.667000 -0.526332
O42   O     O_R   0.786010 0.710040 0.333000 -0.530278
O43   O     O_R   0.713990 0.210040 0.667000 -0.531774
O44   O     O_R   0.286010 0.210040 0.333000 -0.532193
O45   O     O_R   0.235920 0.960520 0.674260 -0.517630
O46   O     O_R   0.764080 0.960520 0.325740 -0.509675
O47   O     O_R   0.735920 0.460520 0.674260 -0.509230
O48   O     O_R   0.264080 0.460520 0.325740 -0.505802
O49   O     O_R   0.331960 0.078120 0.669410 -0.532792
O50   O     O_R   0.668040 0.078120 0.330590 -0.534080
O51   O     O_R   0.831960 0.578120 0.669410 -0.533811
O52   O     O_R   0.168040 0.578120 0.330590 -0.529361
O53   O     O_3   0.291877 0.763794 0.093436 -0.763973
H125  H     H_    0.278380 0.769799 0.144455 0.331985
O54   O     O_3   0.699341 0.751368 0.898175 -0.739697
H126  H     H_    0.711634 0.758686 0.846807 0.330753
O55   O     O_3   0.791876 0.263790 0.093440 -0.764342
H127  H     H_    0.778378 0.269790 0.144460 0.330640
O56   O     O_3   0.199341 0.251366 0.898174 -0.739432
H128  H     H_    0.211630 0.258670 0.846805 0.331423
O57   O     O_3   0.543121 0.632234 0.925979 -0.698436
H129  H     H_    0.505517 0.573163 0.929054 0.326838
O58   O     O_3   0.467631 0.614420 0.068036 -0.714454
H130  H     H_    0.510675 0.567765 0.066868 0.327347
O59   O     O_3   0.043119 0.132230 0.925981 -0.698418
H131  H     H_    0.005511 0.073166 0.929050 0.326850
O60   O     O_3   0.967630 0.114422 0.068038 -0.714715
H132  H     H_    0.010673 0.067765 0.066869 0.327426

loop_
_geom_bond_atom_site_label_1
_geom_bond_atom_site_label_2
_ccdc_geom_bond_type
C82   C94   S    
C55   C59   S    
C83   C87   S    
C73   C93   S    
C47   O35   A    
C42   C58   S    
C29   C89   S    
C75   C95   S    
C48   C120  S    
Cr5   O17   S    
C24   H8    S    
C57   C102  S    
C59   C104  S    
C63   H55   S    
Cr1   O21   S    
Cr9   O37   S    
Cr2   O18   S    
C5    C6    S    
Cr10  O14   S    
C109  H41   S    
Cr11  O11   S    
C22   C38   S    
C29   C33   S    
C30   C38   S    
C77   C100  S    
C23   O55   S    
C9    C13   S    
C87   H73   S    
C92   O4    A    
C11   C15   S    
C12   C16   S    
C95   H87   S    
C102  O6    A    
C99   O51   A    
C103  O11   A    
C60   C103  S    
C83   C107  S    
C113  H1    S    
C74   H82   S    
C61   H57   S    
C54   H37   S    
C17   H19   S    
C18   H20   S    
C64   H60   S    
C109  C118  S    
C15   H111  S    
C16   H116  S    
C11   H103  S    
Cr5   O29   S    
C50   C53   S    
C9    H101  S    
O60   H132  S    
C46   O30   A    
Cr7   O31   S    
C33   H123  S    
C85   H97   S    
Cr8   O32   S    
C62   H58   S    
C62   C66   S    
C20   C28   S    
Cr3   O3    S    
C96   H88   S    
C90   O38   A    
C54   H46   S    
C100  O48   A    
C43   C44   S    
C1    O21   A    
C66   C82   S    
C3    O23   A    
C11   C27   S    
C58   C101  S    
C106  O42   A    
C53   H38   S    
C88   H100  S    
C56   H39   S    
C10   C14   S    
C4    O24   A    
C90   O2    A    
C55   H40   S    
C22   H6    S    
Cr2   O46   S    
C3    C26   S    
Cr3   O43   S    
C84   C88   S    
C31   C91   S    
Cr7   O19   S    
C53   H45   S    
Cr12  O16   S    
Cr10  O38   S    
Cr11  O35   S    
C17   C25   S    
C19   C35   S    
C76   C96   S    
C1    O25   A    
C32   C92   S    
C75   H83   S    
Cr3   O23   S    
C98   O46   A    
C36   H122  S    
C61   C65   S    
C12   H108  S    
O59   H131  S    
C78   C99   S    
C73   C77   S    
C104  O8    A    
C75   C79   S    
Cr12  O20   S    
C67   C83   S    
Cr8   O52   S    
C80   C97   S    
C7    O59   S    
C69   C77   S    
C111  C112  S    
C71   C79   S    
C4    C25   S    
Cr4   O24   S    
C7    C8    S    
C64   C68   S    
C73   H77   S    
C35   H23   S    
C43   H27   S    
C33   H21   S    
C49   C57   S    
C93   H85   S    
C38   H14   S    
C52   C60   S    
C14   H110  S    
C61   C77   S    
C22   O54   S    
C110  C114  S    
C43   C59   S    
C62   H54   S    
C76   H80   S    
C10   H106  S    
Cr6   O18   S    
Cr2   O22   S    
Cr3   O19   S    
C110  H42   S    
C81   C105  S    
C30   C34   S    
C5    O57   S    
C95   H91   S    
C116  C120  S    
C20   C36   S    
C7    C116  S    
C61   H53   S    
C114  H2    S    
C50   C58   S    
Cr11  O15   S    
C66   H66   S    
C64   H56   S    
C113  C117  S    
C16   H112  S    
C112  H44   S    
Cr5   O25   S    
C115  C119  S    
Cr6   O30   S    
C9    H105  S    
Cr8   O28   S    
C112  C116  S    
C69   C85   S    
C85   H75   S    
C72   H70   S    
C56   H48   S    
C45   C117  S    
C21   C25   S    
C45   O33   A    
C55   H47   S    
C62   C78   S    
C24   C28   S    
C2    O22   A    
C42   H30   S    
C15   C31   S    
C16   C32   S    
C97   O49   A    
C72   C80   S    
C107  O43   A    
C115  H3    S    
C4    O28   A    
C20   H18   S    
C82   C106  S    
Cr5   O49   S    
C91   O3    A    
C51   C59   S    
C69   H71   S    
Cr5   O5    S    
C94   H90   S    
C81   C85   S    
Cr1   O1    S    
C13   H113  S    
C41   H29   S    
C41   C42   S    
C74   C94   S    
Cr9   O17   S    
C18   C26   S    
C30   C90   S    
C9    C25   S    
C2    O26   A    
C75   H79   S    
C37   H9    S    
C12   C28   S    
C13   C29   S    
C67   H67   S    
C98   O50   A    
C45   O29   A    
C46   C118  S    
C71   H69   S    
C66   H62   S    
C51   H35   S    
C50   H34   S    
C1    C28   S    
Cr1   O41   S    
C2    C27   S    
Cr10  O18   S    
Cr4   O44   S    
C52   C55   S    
O56   H128  S    
C70   H72   S    
C64   C80   S    
C73   H81   S    
C42   H26   S    
C17   C33   S    
C110  C117  S    
C65   H61   S    
C34   H22   S    
C105  O13   A    
C10   H102  S    
C40   H16   S    
C107  O15   A    
C68   C84   S    
C76   C80   S    
C108  O16   A    
C51   H52   S    
C86   H76   S    
C53   C57   S    
C19   H117  S    
C82   C86   S    
C17   H119  S    
C56   C60   S    
C86   H98   S    
C49   H33   S    
C48   O36   A    
C7    C119  S    
C76   H84   S    
C65   C81   S    
Cr7   O51   S    
C68   H64   S    
C71   C87   S    
C15   H115  S    
C44   H28   S    
C31   C35   S    
C32   C36   S    
Cr9   O9    S    
C36   H24   S    
C23   H7    S    
C101  O9    A    
C69   H93   S    
C112  C119  S    
C116  H4    S    
C92   O40   A    
C41   C57   S    
C47   O31   A    
C109  C110  S    
C48   O32   A    
C89   O37   A    
O55   H127  S    
C44   C60   S    
C63   H59   S    
Cr6   O26   S    
C91   O39   A    
C84   C108  S    
Cr7   O7    S    
Cr8   O8    S    
Cr1   O17   S    
O58   H130  S    
Cr10  O10   S    
Cr12  O40   S    
C21   C37   S    
Cr4   O4    S    
C22   C26   S    
C29   C37   S    
C44   H32   S    
C6    C118  S    
C43   H31   S    
C6    O58   S    
O54   H126  S    
C101  O5    A    
C5    C114  S    
C70   C78   S    
C79   C98   S    
C52   H51   S    
C63   C79   S    
O53   H125  S    
C74   H78   S    
C111  H43   S    
C34   H124  S    
Cr6   O50   S    
C46   O34   A    
C23   C39   S    
C11   H107  S    
C49   C54   S    
C94   H86   S    
Cr6   O6    S    
C51   C56   S    
C84   C96   S    
Cr7   O27   S    
Cr8   O20   S    
C8    C115  S    
C19   H17   S    
C20   H118  S    
Cr2   O2    S    
C13   H109  S    
C18   H120  S    
C96   H92   S    
Cr12  O36   S    
C23   C27   S    
C19   C27   S    
C74   C78   S    
C109  C113  S    
C10   C26   S    
C47   C119  S    
Cr9   O33   S    
C38   H10   S    
C105  O41   A    
C14   C30   S    
C24   O56   S    
C67   H63   S    
C72   C88   S    
C108  O44   A    
C63   C67   S    
C70   H94   S    
C89   O1    A    
C8    O60   S    
Cr1   O45   S    
C21   H5    S    
C5    C117  S    
C111  C120  S    
Cr2   O42   S    
Cr3   O47   S    
C6    C113  S    
Cr11  O19   S    
Cr4   O48   S    
Cr12  O12   S    
C81   C93   S    
C83   C95   S    
Cr10  O34   S    
Cr11  O39   S    
C18   C34   S    
C114  C118  S    
C65   H65   S    
C39   H11   S    
C106  O14   A    
C40   H12   S    
C41   H25   S    
C50   H49   S    
C97   O45   A    
C70   C86   S    
C99   O47   A    
C8    C120  S    
C35   H121  S    
C54   C58   S    
C12   H104  S    
C71   H95   S    
C104  O12   A    
C88   H74   S    
C111  C115  S    
C72   H96   S    
C68   H68   S    
C52   H36   S    
Cr4   O20   S    
C87   H99   S    
C3    O27   A    
C24   C40   S    
C31   C39   S    
C32   C40   S    
O57   H129  S    
Cr9   O13   S    
C49   H50   S    
C100  O52   A    
C102  O10   A    
C39   H15   S    
C103  O7    A    
C93   H89   S    
C37   H13   S    
C21   O53   S    
C14   H114  S    
