data_mof_unit_1439.cif
_audit_creation_date              2012-10-26T19:02:33-0400
_audit_creation_method            fapswitch 2.2
_symmetry_space_group_name_H-M    P1
_symmetry_Int_Tables_number       1
_space_group_crystal_system       triclinic
_cell_length_a                    17.147752
_cell_length_b                    8.667185
_cell_length_c                    7.546794
_cell_angle_alpha                 102.32643
_cell_angle_beta                  91.723157
_cell_angle_gamma                 94.092639
_cell_volume                      1091.79237212

loop_
_atom_site_label
_atom_site_type_symbol
_atom_type_description
_atom_site_fract_x
_atom_site_fract_y
_atom_site_fract_z
_atom_type_partial_charge
C1    C     C_R   0.495685 0.200266 0.454968 0.538328
C2    C     C_R   0.780624 0.497009 0.622142 -0.110146
C3    C     C_R   0.142988 0.516626 0.664397 -0.080076
C4    C     C_R   0.860804 0.486932 0.612050 -0.079578
C5    C     C_R   0.111080 0.592973 0.536148 0.071108
C6    C     C_R   0.894940 0.465817 0.443472 0.075271
C7    C     C_R   0.158873 0.650955 0.414746 -0.052295
C8    C     C_R   0.848376 0.449685 0.284072 -0.055865
C9    C     C_R   0.237602 0.624020 0.413551 -0.102322
C10   C     C_R   0.767861 0.459621 0.293875 -0.098548
C11   C     C_2   0.026316 0.599617 0.516188 -0.004801
C12   C     C_R   0.504311 0.799721 0.544999 0.533992
C13   C     C_2   0.980311 0.466780 0.435563 -0.001016
C14   C     C_2   0.012222 0.315021 0.344931 0.567190
C15   C     C_2   0.995118 0.757036 0.584181 0.571392
C16   C     C_2   0.444005 0.309128 0.943402 0.780005
C17   C     C_2   0.558459 0.688520 0.057003 0.775301
C18   C     C_2   0.487219 0.032439 0.433671 -0.130539
C19   C     C_2   0.512777 0.967503 0.566162 -0.129806
C20   C     C_R   0.351636 0.509196 0.524251 0.539185
C21   C     C_R   0.648923 0.495504 0.476057 0.542331
C22   C     C_R   0.269517 0.541846 0.536405 0.026852
C23   C     C_R   0.733533 0.484980 0.463351 0.022997
C24   C     C_R   0.222551 0.492683 0.665961 -0.108682
Cu1   Cu    Cu3+1 0.508700 0.517250 0.683000 1.067419
Cu2   Cu    Cu3+1 0.491300 0.482750 0.317000 1.068197
H1    H     H_    0.246456 0.430904 0.762831 0.172353
H2    H     H_    0.542615 0.037444 0.688917 0.184181
H3    H     H_    0.100010 0.203863 0.212629 0.356389
H4    H     H_    0.911318 0.906132 0.566872 0.361608
H5    H     H_    0.349938 0.184953 0.801815 0.315589
H6    H     H_    0.655298 0.806381 0.193027 0.321843
H7    H     H_    0.755771 0.515071 0.754563 0.147165
H8    H     H_    0.732767 0.448215 0.169371 0.161265
H9    H     H_    0.273489 0.666040 0.315101 0.133408
H10   H     H_    0.134397 0.710154 0.315659 0.132579
H11   H     H_    0.874626 0.432947 0.153210 0.121196
H12   H     H_    0.896590 0.498314 0.735681 0.114475
H13   H     H_    0.105867 0.471942 0.758881 0.128624
H14   H     H_    0.457502 0.962449 0.310704 0.181632
N1    N     N_2   0.478180 0.456750 0.041980 -0.160614
N2    N     N_2   0.521820 0.543250 0.958020 -0.161804
O1    O     O_R   0.505650 0.286040 0.618880 -0.509448
O2    O     O_R   0.085983 0.314411 0.270704 -0.693206
O3    O     O_2   0.032478 0.855714 0.702129 -0.493701
O4    O     O_R   0.925229 0.795271 0.509768 -0.674828
O5    O     O_2   0.477438 0.189516 0.943735 -0.512129
O6    O     O_R   0.368693 0.297639 0.864058 -0.703699
O7    O     O_2   0.526688 0.810632 0.060324 -0.510878
O8    O     O_R   0.634602 0.694935 0.130494 -0.702214
O9    O     O_R   0.494350 0.713960 0.381120 -0.512433
O10   O     O_R   0.490960 0.256910 0.309800 -0.468892
O11   O     O_R   0.509040 0.743090 0.690200 -0.470212
O12   O     O_R   0.394600 0.516230 0.672450 -0.476156
O13   O     O_R   0.605400 0.483770 0.327550 -0.480404
O14   O     O_R   0.379910 0.487100 0.363380 -0.516508
O15   O     O_R   0.620090 0.512900 0.636620 -0.522846
O16   O     O_2   0.972317 0.189859 0.330954 -0.488230

loop_
_geom_bond_atom_site_label_1
_geom_bond_atom_site_label_2
_ccdc_geom_bond_type
C17   O8    S    
Cu1   N2    S    
C2    C4    A    
C21   O15   A    
Cu2   O10   S    
C10   C23   A    
C7    H10   S    
C12   O11   A    
C15   O4    S    
C24   H1    S    
H4    O4    S    
C20   O14   A    
Cu2   O13   S    
Cu1   O1    S    
C3    C24   A    
C3    H13   S    
C10   H8    S    
C13   C14   S    
Cu1   O12   S    
C6    C13   S    
C19   H2    S    
C11   C13   D    
C20   O12   A    
H6    O8    S    
C1    C18   S    
Cu1   O15   S    
C2    H7    S    
C4    C6    A    
C20   C22   S    
C5    C11   S    
H5    O6    S    
C21   C23   S    
H3    O2    S    
C14   O16   D    
C1    O10   A    
C22   C24   A    
C9    C22   A    
C8    H11   S    
C15   O3    D    
C9    H9    S    
C7    C9    A    
C12   O9    A    
C16   O6    S    
C16   O5    D    
C14   O2    S    
C18   C19   D    
N1    N2    D    
C17   O7    D    
C2    C23   A    
C5    C7    A    
C18   H14   S    
C17   N2    S    
C21   O13   A    
C6    C8    A    
C12   C19   S    
Cu1   Cu2   S    
Cu2   O9    S    
C11   C15   S    
C16   N1    S    
C1    O1    A    
C8    C10   A    
Cu1   O11   S    
Cu2   N1    S    
C4    H12   S    
C3    C5    A    
Cu2   O14   S    
