data_mof_unit_2909.cif
_audit_creation_date              2012-12-11T16:04:50-0500
_audit_creation_method            fapswitch 2.2
_symmetry_space_group_name_H-M    P1
_symmetry_Int_Tables_number       1
_space_group_crystal_system       triclinic
_cell_length_a                    10.581373
_cell_length_b                    10.627015
_cell_length_c                    16.812681
_cell_angle_alpha                 98.589952
_cell_angle_beta                  98.709422
_cell_angle_gamma                 61.620611
_cell_volume                      1637.64829883

loop_
_atom_site_label
_atom_site_type_symbol
_atom_type_description
_atom_site_fract_x
_atom_site_fract_y
_atom_site_fract_z
_atom_type_partial_charge
C1    C     C_R   0.350389 0.784273 0.402653 0.528983
C2    C     C_3   0.375856 0.741512 0.253185 -0.109333
C3    C     C_3   0.328433 0.847671 0.328310 0.056235
C4    C     C_R   0.366600 0.343482 0.360117 0.526334
C5    C     C_3   0.389330 0.938481 0.302022 -0.127307
C6    C     C_3   0.239386 0.028016 0.257104 -0.156854
C7    C     C_3   0.179874 0.935751 0.285170 -0.126845
C8    C     C_3   0.227126 0.829929 0.209673 -0.089374
C9    C     C_3   0.287052 0.921177 0.182321 0.047276
C10   C     C_3   0.432145 0.224351 0.763485 0.120799
C11   C     C_3   0.374662 0.372975 0.733692 0.107865
C12   C     C_3   0.676234 0.330384 0.234380 -0.126043
C13   C     C_3   0.320589 0.318279 0.653172 0.007517
C14   C     C_3   0.376968 0.169820 0.682793 -0.133877
C15   C     C_3   0.229378 0.220576 0.715348 -0.217387
C16   C     C_R   0.703996 0.416983 0.390823 0.559705
C17   C     C_3   0.172784 0.369720 0.683323 -0.144306
C18   C     C_3   0.227435 0.423783 0.764994 0.109773
C19   C     C_3   0.285283 0.275572 0.795725 0.010405
C20   C     C_1   0.849757 0.327410 0.705145 -0.008683
C21   C     C_1   0.895403 0.294054 0.772749 -0.011466
C22   C     C_1   0.320770 0.847381 0.704574 -0.007677
C23   C     C_3   0.741461 0.389670 0.308633 0.048101
C24   C     C_1   0.284507 0.892324 0.771623 -0.010242
C25   C     C_R   0.890434 0.311270 0.090327 0.554145
C26   C     C_R   0.291825 0.262275 0.122844 0.537457
C27   C     C_R   0.256440 0.959648 0.099552 0.540771
C28   C     C_R   0.352389 0.780735 0.625126 0.558114
C29   C     C_R   0.943344 0.275723 0.856037 0.523296
C30   C     C_R   0.276256 0.250852 0.877215 0.526252
C31   C     C_R   0.246806 0.942493 0.852345 0.521307
C32   C     C_R   0.363170 0.342467 0.581640 0.555279
C33   C     C_R   0.780959 0.376318 0.628101 0.567403
C34   C     C_3   0.894595 0.283028 0.288784 -0.118596
C35   C     C_1   0.325902 0.318331 0.278052 -0.066541
C36   C     C_1   0.306303 0.294202 0.207073 -0.071940
C37   C     C_3   0.831159 0.222712 0.213130 -0.111846
C38   C     C_3   0.893386 0.395520 0.240625 -0.115433
C39   C     C_3   0.739538 0.502876 0.261310 -0.121698
C40   C     C_3   0.675453 0.443480 0.185252 -0.134279
C41   C     C_3   0.828771 0.336371 0.165693 0.055711
C42   C     C_3   0.436030 0.832889 0.225307 -0.115317
Cr1   Cr    Cr6+3 0.608340 0.611040 0.520430 1.034341
Cr2   Cr    Cr6+3 0.287650 0.601120 0.489350 1.037188
Cr3   Cr    Cr6+3 0.604040 0.287870 0.490280 1.032238
Cr4   Cr    Cr6+3 0.054020 0.052700 0.970850 1.067128
Cr5   Cr    Cr6+3 0.059230 0.375120 0.993390 1.053740
Cr6   Cr    Cr6+3 0.374950 0.061200 0.992340 1.054467
H1    H     H_    0.586291 0.304555 0.234125 0.137732
H2    H     H_    0.983711 0.421559 0.242003 0.121988
H3    H     H_    0.704684 0.616507 0.284815 0.125440
H4    H     H_    0.587915 0.507245 0.140308 0.139023
H5    H     H_    0.427686 0.623372 0.254429 0.108720
H6    H     H_    0.538867 0.792729 0.197858 0.128280
H7    H     H_    0.455181 0.982484 0.342104 0.134856
H8    H     H_    0.182691 0.146029 0.255971 0.091208
H9    H     H_    0.076440 0.973920 0.311546 0.121067
H10   H     H_    0.161079 0.783744 0.171762 0.147095
H11   H     H_    0.437542 0.065564 0.647550 0.144601
H12   H     H_    0.168569 0.158204 0.708133 0.092440
H13   H     H_    0.067145 0.429138 0.648515 0.150774
H14   H     H_    0.869807 0.107582 0.191539 0.129292
H15   H     H_    0.980490 0.223627 0.335516 0.120801
I1    I     I_    0.490660 0.494682 0.759327 -0.221211
I2    I     I_    0.651370 0.097233 0.810797 -0.223669
I3    I     I_    0.093721 0.632022 0.820592 -0.204968
O1    O     O_R   0.751220 0.499230 0.435170 -0.518710
O2    O     O_R   0.412990 0.180750 0.091610 -0.495027
O3    O     O_R   0.366620 0.943130 0.065760 -0.496887
O4    O     O_R   0.477220 0.727600 0.436870 -0.527429
O5    O     O_R   0.160510 0.906330 0.879210 -0.445599
O6    O     O_R   0.930190 0.179050 0.889450 -0.464913
O7    O     O_R   0.909140 0.398170 0.896710 -0.467712
O8    O     O_R   0.186190 0.363460 0.918830 -0.469380
O9    O     O_R   0.401670 0.173200 0.913310 -0.465764
O10   O     O_R   0.356120 0.936130 0.900470 -0.476930
O11   O     O_3   0.162740 0.163010 0.985530 -0.376216
O12   O     O_R   0.297880 0.469080 0.560050 -0.483053
O13   O     O_R   0.258650 0.745120 0.411470 -0.516838
O14   O     O_R   0.297070 0.467240 0.395960 -0.498544
O15   O     O_R   0.488830 0.252610 0.387790 -0.530156
O16   O     O_R   0.724400 0.302390 0.420980 -0.504371
O17   O     O_R   0.752100 0.501210 0.612190 -0.492426
O18   O     O_R   0.478040 0.729440 0.600970 -0.483001
O19   O     O_R   0.259530 0.747110 0.588490 -0.496440
O20   O     O_R   0.489720 0.254590 0.564810 -0.502937
O21   O     O_R   0.725220 0.304230 0.585080 -0.477055
O22   O     O_3   0.500010 0.500010 0.500020 -0.271462
O23   O     O_R   0.171830 0.913880 0.057510 -0.494246
O24   O     O_R   0.940690 0.186050 0.054730 -0.511201
O25   O     O_R   0.920470 0.405720 0.075010 -0.515092
O26   O     O_R   0.196690 0.370460 0.084120 -0.478867

loop_
_geom_bond_atom_site_label_1
_geom_bond_atom_site_label_2
_ccdc_geom_bond_type
C39   H3    S    
C5    C42   S    
C11   C18   S    
C28   O18   A    
C34   C37   S    
Cr1   O17   S    
C15   H12   S    
Cr6   O10   S    
C13   C32   S    
Cr3   O16   S    
Cr6   O3    S    
C6    C9    S    
C12   H1    S    
Cr3   O20   S    
C7    C8    S    
Cr4   O23   S    
C15   C19   S    
C14   H11   S    
C12   C23   S    
C25   O24   A    
Cr1   O22   S    
Cr3   O21   S    
C4    O14   A    
C3    C7    S    
C38   C39   S    
C30   O8    A    
C29   O7    A    
C26   O26   A    
C18   C19   S    
Cr5   O26   S    
C12   C37   S    
C8    H10   S    
C4    O15   A    
C35   C36   T    
C8    C9    S    
Cr4   O6    S    
C27   O3    A    
C29   O6    A    
C17   H13   S    
C16   C23   S    
C31   O5    A    
C4    C35   S    
C22   C28   S    
C13   C14   S    
Cr1   O18   S    
Cr6   O9    S    
C37   H14   S    
C2    C8    S    
C25   O25   A    
Cr2   O14   S    
Cr3   O22   S    
Cr5   O7    S    
C38   C41   S    
C11   I1    S    
C10   C14   S    
C25   C41   S    
C39   C40   S    
C40   H4    S    
C21   C29   S    
C1    C3    S    
Cr6   O11   S    
C12   C40   S    
C10   C19   S    
C23   C34   S    
C32   O20   A    
C16   O16   A    
C17   C18   S    
C9    C42   S    
C16   O1    A    
Cr6   O2    S    
C33   O17   A    
Cr4   O5    S    
Cr4   O24   S    
C20   C33   S    
C26   C36   S    
C40   C41   S    
Cr1   O4    S    
C1    O13   A    
C22   C24   T    
Cr5   O11   S    
Cr2   O19   S    
C9    C27   S    
C10   I2    S    
C15   C17   S    
C34   C38   S    
Cr5   O25   S    
C5    H7    S    
Cr2   O13   S    
Cr3   O15   S    
Cr5   O8    S    
C6    H8    S    
C3    C5    S    
C2    H5    S    
Cr4   O11   S    
C6    C7    S    
C38   H2    S    
C18   I3    S    
C1    O4    A    
C13   C17   S    
C26   O2    A    
Cr2   O12   S    
C2    C3    S    
C33   O21   A    
C24   C31   S    
C42   H6    S    
C30   O9    A    
C11   C13   S    
C31   O10   A    
C5    C6    S    
C2    C42   S    
C23   C39   S    
C34   H15   S    
C27   O23   A    
C37   C41   S    
C10   C11   S    
C32   O12   A    
C20   C21   T    
Cr1   O1    S    
C28   O19   A    
C14   C15   S    
Cr2   O22   S    
C19   C30   S    
C7    H9    S    
