data_mof_unit_2694.cif
_audit_creation_date              2012-12-10T20:27:09-0500
_audit_creation_method            fapswitch 2.2
_symmetry_space_group_name_H-M    P1
_symmetry_Int_Tables_number       1
_space_group_crystal_system       triclinic
_cell_length_a                    10.757171
_cell_length_b                    10.664841
_cell_length_c                    9.877952
_cell_angle_alpha                 89.840271
_cell_angle_beta                  103.455601
_cell_angle_gamma                 90.174805
_cell_volume                      1102.11910297

loop_
_atom_site_label
_atom_site_type_symbol
_atom_type_description
_atom_site_fract_x
_atom_site_fract_y
_atom_site_fract_z
_atom_type_partial_charge
C1    C     C_R   0.495594 0.259966 0.499117 0.873231
C2    C     C_R   0.473845 0.128617 0.494887 -0.100933
C3    C     C_R   0.443651 0.065117 0.367143 -0.230101
C4    C     C_R   0.443054 0.935337 0.367086 -0.228789
C5    C     C_R   0.473677 0.871295 0.494608 -0.105028
C6    C     C_R   0.477826 0.935737 0.617974 0.143413
C7    C     C_3   0.571573 0.928330 0.755692 -0.497420
C8    C     C_3   0.571642 0.070536 0.755822 -0.476863
C9    C     C_R   0.431802 0.412024 0.054485 0.158906
C10   C     C_R   0.577445 0.579362 0.091435 0.236820
C11   C     C_R   0.577964 0.577976 0.946975 -0.193866
C12   C     C_R   0.258990 0.495909 0.442044 0.936119
C13   C     C_R   0.430988 0.412716 0.911911 0.213025
C14   C     C_3   0.289584 0.395642 0.872758 -0.519747
C15   C     C_3   0.291211 0.392198 0.026588 -0.494258
C16   C     C_R   0.495521 0.740023 0.498830 0.884290
C17   C     C_R   0.741066 0.495461 0.557525 0.944159
C18   C     C_2   0.122262 0.480817 0.408129 -0.373762
C19   C     C_2   0.066624 0.441390 0.507221 -0.158283
C20   C     C_2   0.877363 0.476008 0.588533 -0.379715
C21   C     C_2   0.930580 0.446522 0.483826 -0.152448
C22   C     C_R   0.477764 0.063541 0.618120 0.130328
H1    H     H_    0.874865 0.437564 0.377176 0.180406
H2    H     H_    0.664742 0.112217 0.748393 0.203870
H3    H     H_    0.639512 0.641112 0.906610 0.158950
H4    H     H_    0.239960 0.479911 0.820095 0.212567
H5    H     H_    0.261263 0.304858 0.819260 0.196431
H6    H     H_    0.240210 0.472467 0.060533 0.217508
H7    H     H_    0.266554 0.298654 0.062990 0.196630
H8    H     H_    0.121293 0.416490 0.610155 0.179682
H9    H     H_    0.933925 0.486183 0.694586 0.151110
H10   H     H_    0.067060 0.504393 0.304322 0.144362
H11   H     H_    0.429270 0.114546 0.268757 0.168557
H12   H     H_    0.427254 0.886278 0.268813 0.173454
H13   H     H_    0.528348 0.886877 0.837449 0.207717
H14   H     H_    0.664654 0.887119 0.748424 0.199582
H15   H     H_    0.528752 0.111247 0.837923 0.203346
N1    N     N_R   0.499160 0.499140 0.142600 -0.127212
N2    N     N_R   0.499160 0.499180 0.856960 -0.116561
O1    O     O_R   0.500020 0.316790 0.614700 -0.616620
O2    O     O_R   0.500000 0.316760 0.385350 -0.623867
O3    O     O_R   0.317820 0.500020 0.571850 -0.612068
O4    O     O_R   0.317800 0.499980 0.342510 -0.622661
O5    O     O_R   0.500000 0.683240 0.614650 -0.618105
O6    O     O_R   0.499980 0.683210 0.385300 -0.590433
O7    O     O_R   0.682200 0.500020 0.657490 -0.618793
O8    O     O_R   0.682180 0.499980 0.428150 -0.609861
Zn1   Zn    Zn3+2 0.500010 0.500020 0.653140 0.937410
Zn2   Zn    Zn3+2 0.499990 0.499980 0.346860 0.949461
N3    N     N_2   0.658840 0.662372 0.184151 -0.248050
H16   H     H_    0.751582 0.630466 0.214154 0.213833
C23   C     C_3   0.651176 0.793419 0.144738 -0.805131
H17   H     H_    0.703852 0.810961 0.062242 0.217751
H18   H     H_    0.695150 0.851202 0.236834 0.250336
H19   H     H_    0.549961 0.822573 0.106869 0.237320

loop_
_geom_bond_atom_site_label_1
_geom_bond_atom_site_label_2
_ccdc_geom_bond_type
C16   O6    A    
C2    C22   A    
C1    O2    A    
C8    C22   S    
C17   O7    A    
C6    C7    S    
C8    H2    S    
C14   H5    S    
C7    H14   S    
C16   O5    A    
N3    C23   S    
C23   H19   S    
O6    Zn2   S    
C10   N1    A    
C2    C3    A    
C9    C15   S    
C7    C8    S    
O8    Zn2   S    
N1    Zn2   S    
O3    Zn1   S    
C13   C14   S    
C14   H4    S    
C11   N2    A    
C15   H6    S    
O2    Zn2   S    
C9    N1    A    
C19   C21   S    
C23   H18   S    
C15   H7    S    
C12   O4    A    
O7    Zn1   S    
C21   H1    S    
C5    C6    A    
C4    H12   S    
C13   N2    A    
C18   H10   S    
C10   C11   A    
C3    H11   S    
C12   O3    A    
C3    C4    A    
C10   N3    S    
O5    Zn1   S    
C17   C20   S    
C20   C21   D    
C1    C2    S    
C8    H15   S    
C12   C18   S    
O1    Zn1   S    
C11   H3    S    
C14   C15   S    
C18   C19   D    
C5    C16   S    
C9    C13   A    
C1    O1    A    
N3    H16   S    
C19   H8    S    
C7    H13   S    
O4    Zn2   S    
C17   O8    A    
C23   H17   S    
C4    C5    A    
N2    Zn1   S    
C20   H9    S    
C6    C22   A    
