data_mof_unit_2011.cif
_audit_creation_date              2012-10-26T19:52:27-0400
_audit_creation_method            fapswitch 2.2
_symmetry_space_group_name_H-M    P1
_symmetry_Int_Tables_number       1
_space_group_crystal_system       triclinic
_cell_length_a                    9.530758
_cell_length_b                    10.857395
_cell_length_c                    13.455632
_cell_angle_alpha                 90.255679
_cell_angle_beta                  72.47407
_cell_angle_gamma                 89.966641
_cell_volume                      1327.72903732

loop_
_atom_site_label
_atom_site_type_symbol
_atom_type_description
_atom_site_fract_x
_atom_site_fract_y
_atom_site_fract_z
_atom_type_partial_charge
C1    C     C_R   0.500225 0.737346 0.499739 0.546820
C2    C     C_R   0.372225 0.510534 0.816036 0.001668
C3    C     C_R   0.375855 0.938179 0.508561 0.022937
C4    C     C_R   0.420944 0.505980 0.700475 0.546771
C5    C     C_R   0.502760 0.869927 0.497307 0.010217
C6    C     C_R   0.635352 0.935237 0.483400 -0.165936
C7    C     C_R   0.635420 0.064476 0.483277 -0.164421
C8    C     C_R   0.502882 0.130099 0.497084 0.006834
C9    C     C_R   0.375928 0.062155 0.508357 0.018575
C10   C     C_3   0.213267 0.071329 0.531374 -0.268783
C11   C     C_3   0.213196 0.929486 0.531585 -0.273748
C12   C     C_R   0.437456 0.512576 0.979164 0.021515
C13   C     C_R   0.944342 0.403840 0.456891 0.154685
C14   C     C_R   0.903624 0.588297 0.551667 -0.013756
C15   C     C_R   0.052337 0.587949 0.552125 -0.004494
C16   C     C_R   0.500341 0.262674 0.499596 0.548706
C17   C     C_R   0.092157 0.404234 0.456343 0.145410
C18   C     C_3   0.143478 0.364849 0.345046 -0.281412
C19   C     C_3   0.983951 0.361977 0.346381 -0.278679
C20   C     C_R   0.579053 0.500865 0.299904 0.546096
C21   C     C_R   0.791418 0.598577 0.028433 -0.126700
C22   C     C_R   0.625581 0.514531 0.186428 -0.004511
C23   C     C_R   0.472572 0.542103 0.871990 -0.015250
C24   C     C_R   0.227850 0.472318 0.871681 0.249950
C25   C     C_R   0.188346 0.460610 0.979808 -0.136833
C26   C     C_R   0.292081 0.475707 0.032213 -0.172507
C27   C     C_3   0.082570 0.332260 0.822015 0.000242
C28   C     C_3   0.976147 0.316057 0.758422 -0.355435
C29   C     C_R   0.547138 0.526455 0.030412 0.039257
C30   C     C_R   0.684024 0.581605 0.977549 0.053548
C31   C     C_R   0.709941 0.623254 0.875963 -0.137630
C32   C     C_R   0.604885 0.606088 0.824780 -0.125490
C33   C     C_R   0.524433 0.487630 0.133204 -0.130541
C34   C     C_R   0.761494 0.566839 0.133014 -0.149235
Cu1   Cu    Cu3+1 0.359330 0.500020 0.500010 0.951164
Cu2   Cu    Cu3+1 0.640670 0.499980 0.499990 0.922699
H1    H     H_    0.842024 0.587341 0.172864 0.121812
H2    H     H_    0.196831 0.272727 0.334095 0.118580
H3    H     H_    0.958120 0.431392 0.293937 0.148408
H4    H     H_    0.811255 0.670641 0.836146 0.111711
H5    H     H_    0.943181 0.267475 0.339165 0.118139
H6    H     H_    0.896233 0.640648 0.988472 0.130301
H7    H     H_    0.428171 0.436580 0.174199 0.104952
H8    H     H_    0.252638 0.463751 0.115265 0.101822
H9    H     H_    0.076316 0.437718 0.023751 0.117646
H10   H     H_    0.626680 0.648669 0.749417 0.135223
H11   H     H_    0.738420 0.887240 0.473279 0.130743
H12   H     H_    0.738525 0.112230 0.473082 0.130325
H13   H     H_    0.026611 0.300048 0.902605 0.119895
H14   H     H_    0.181427 0.273922 0.786317 0.128063
H15   H     H_    0.030358 0.342767 0.676350 0.171100
H16   H     H_    0.941681 0.218216 0.760222 0.081395
H17   H     H_    0.877056 0.374468 0.791128 0.170173
H18   H     H_    0.159437 0.112662 0.609270 0.130912
H19   H     H_    0.180811 0.111680 0.465823 0.132635
H20   H     H_    0.159206 0.889584 0.609687 0.125416
H21   H     H_    0.180967 0.887810 0.466078 0.138790
H22   H     H_    0.831192 0.661566 0.591266 0.102784
H23   H     H_    0.090804 0.660155 0.592941 0.118422
H24   H     H_    0.206378 0.438709 0.294592 0.144096
N1    N     N_R   0.852320 0.499070 0.499340 -0.229065
N2    N     N_R   0.148230 0.499110 0.499340 -0.233331
O1    O     O_R   0.381190 0.680360 0.500000 -0.505854
O2    O     O_R   0.618780 0.680320 0.499990 -0.520442
O3    O     O_R   0.323230 0.500000 0.650990 -0.446229
O4    O     O_R   0.560820 0.499960 0.650980 -0.516814
O5    O     O_R   0.381220 0.319680 0.500010 -0.502591
O6    O     O_R   0.618810 0.319640 0.500000 -0.504274
O7    O     O_R   0.439180 0.500040 0.349020 -0.504171
O8    O     O_R   0.676770 0.500000 0.349010 -0.505594
O9    O     O_3   0.121432 0.457811 0.821554 -0.546710

loop_
_geom_bond_atom_site_label_1
_geom_bond_atom_site_label_2
_ccdc_geom_bond_type
C2    C4    S    
C28   H17   S    
Cu2   O6    S    
C29   C30   A    
C3    C9    A    
C13   C17   A    
C12   C29   A    
Cu2   O8    S    
C34   H1    S    
C21   C30   A    
C6    C7    A    
C31   C32   A    
C24   O9    S    
C27   H14   S    
Cu1   O5    S    
C30   C31   A    
C32   H10   S    
C23   C32   A    
C21   H6    S    
C17   C18   S    
C18   H2    S    
C26   H8    S    
C7    C8    A    
C8    C16   S    
C16   O5    A    
C11   H21   S    
C7    H12   S    
C17   N2    A    
C4    O4    A    
C10   H19   S    
C28   H16   S    
C12   C23   A    
C20   O8    A    
C4    O3    A    
C19   H3    S    
C16   O6    A    
C1    O1    A    
C9    C10   S    
C18   H24   S    
C25   C26   A    
C15   N2    A    
C20   C22   S    
Cu1   N2    S    
Cu2   O4    S    
C2    C24   A    
C5    C6    A    
C22   C34   A    
C28   H15   S    
C1    C5    S    
C20   O7    A    
C3    C11   S    
C6    H11   S    
C13   C19   S    
C10   H18   S    
C27   H13   S    
Cu2   N1    S    
C33   H7    S    
C1    O2    A    
C25   H9    S    
C2    C23   A    
C13   N1    A    
C24   C25   A    
Cu1   O7    S    
C18   C19   S    
C10   C11   S    
C27   C28   S    
C22   C33   A    
Cu1   O3    S    
C14   C15   A    
Cu1   O1    S    
C21   C34   A    
C31   H4    S    
Cu2   O2    S    
C14   N1    A    
C15   H23   S    
C29   C33   A    
C11   H20   S    
C19   H5    S    
C27   O9    S    
C12   C26   A    
C8    C9    A    
C3    C5    A    
Cu1   Cu2   S    
C14   H22   S    
