data_mof_unit_1699.cif
_audit_creation_date              2013-03-05T15:39:56-0500
_audit_creation_method            fapswitch 2.2
_symmetry_space_group_name_H-M    P1
_symmetry_Int_Tables_number       1
_space_group_crystal_system       triclinic
_cell_length_a                    27.912523
_cell_length_b                    18.820898
_cell_length_c                    16.846778
_cell_angle_alpha                 89.864295
_cell_angle_beta                  62.614157
_cell_angle_gamma                 89.744795
_cell_volume                      7858.32931934

loop_
_atom_site_label
_atom_site_type_symbol
_atom_site_description
_atom_site_fract_x
_atom_site_fract_y
_atom_site_fract_z
_atom_type_partial_charge
O1    O     O_R   0.255040 0.869590 0.478480 -0.550067
O2    O     O_R   0.744960 0.130410 0.521520 -0.559269
O3    O     O_R   0.744960 0.869590 0.521520 -0.559516
O4    O     O_R   0.255040 0.130410 0.478480 -0.545077
O5    O     O_R   0.755040 0.369590 0.478480 -0.553369
O6    O     O_R   0.244960 0.630410 0.521520 -0.550626
O7    O     O_R   0.244960 0.369590 0.521520 -0.556348
O8    O     O_R   0.755040 0.630410 0.478480 -0.551147
O9    O     O_R   0.182050 0.796550 0.624440 -0.592407
O10   O     O_R   0.817950 0.203450 0.375560 -0.570291
O11   O     O_R   0.817950 0.796550 0.375560 -0.576230
O12   O     O_R   0.182050 0.203450 0.624440 -0.577664
O13   O     O_R   0.682050 0.296550 0.624440 -0.582116
O14   O     O_R   0.317950 0.703450 0.375560 -0.584961
O15   O     O_R   0.317950 0.296550 0.375560 -0.583897
O16   O     O_R   0.682050 0.703450 0.624440 -0.569875
Cu1   Cu    Cu3+1 0.209920 0.785290 0.495070 1.044686
Cu2   Cu    Cu3+1 0.790080 0.214710 0.504930 1.032561
Cu3   Cu    Cu3+1 0.790080 0.785290 0.504930 1.023626
Cu4   Cu    Cu3+1 0.209920 0.214710 0.495070 1.046169
Cu5   Cu    Cu3+1 0.709920 0.285290 0.495070 1.024572
Cu6   Cu    Cu3+1 0.290080 0.714710 0.504930 1.030267
Cu7   Cu    Cu3+1 0.290080 0.285290 0.504930 1.033546
Cu8   Cu    Cu3+1 0.709920 0.714710 0.495070 1.035646
C1    C     C_R   0.296183 0.730597 0.329002 0.828750
C2    C     C_R   0.704920 0.271650 0.670370 0.837326
C3    C     C_R   0.705164 0.727885 0.670190 0.817872
C4    C     C_R   0.294821 0.272093 0.329707 0.802351
C5    C     C_R   0.795085 0.228363 0.329621 0.819262
C6    C     C_R   0.204408 0.770604 0.670724 0.833351
C7    C     C_R   0.203876 0.230445 0.670946 0.832396
C8    C     C_R   0.795040 0.771727 0.329693 0.837826
O17   O     O_R   0.250530 0.763330 0.367210 -0.559066
O18   O     O_R   0.749470 0.236670 0.632790 -0.597416
O19   O     O_R   0.749470 0.763330 0.632790 -0.591832
O20   O     O_R   0.250530 0.236670 0.367210 -0.588852
O21   O     O_R   0.750530 0.263330 0.367210 -0.589612
O22   O     O_R   0.249470 0.736670 0.632790 -0.580353
O23   O     O_R   0.249470 0.263330 0.632790 -0.564595
O24   O     O_R   0.750530 0.736670 0.367210 -0.593496
O25   O     O_R   0.177260 0.690030 0.513710 -0.590753
O26   O     O_R   0.822740 0.309970 0.486290 -0.594141
O27   O     O_R   0.822740 0.690030 0.486290 -0.590327
O28   O     O_R   0.177260 0.309970 0.513710 -0.588674
O29   O     O_R   0.677260 0.190030 0.513710 -0.588837
O30   O     O_R   0.322740 0.809970 0.486290 -0.594895
O31   O     O_R   0.322740 0.190030 0.486290 -0.596818
O32   O     O_R   0.677260 0.809970 0.513710 -0.588649
C9    C     C_R   0.199411 0.630585 0.518046 0.810212
C10   C     C_R   0.802694 0.368341 0.475449 0.828023
C11   C     C_R   0.803104 0.631648 0.474136 0.828900
C12   C     C_R   0.195792 0.367890 0.529823 0.816261
C13   C     C_R   0.695928 0.132167 0.531345 0.817612
C14   C     C_R   0.300831 0.868714 0.482259 0.810506
C15   C     C_R   0.300774 0.131106 0.482434 0.809011
C16   C     C_R   0.695968 0.868003 0.531112 0.809285
C17   C     C_R   0.053620 0.498206 0.489706 0.036310
C18   C     C_R   0.962443 0.499090 0.457540 0.034750
C19   C     C_R   0.535582 0.000719 0.554770 0.029852
C20   C     C_R   0.440968 0.999861 0.532382 0.028453
C21   C     C_R   0.040406 0.560241 0.455401 0.033380
C22   C     C_R   0.981621 0.434698 0.475861 0.031548
C23   C     C_R   0.991912 0.562315 0.445958 0.036315
C24   C     C_R   0.023293 0.435757 0.501972 0.035276
C25   C     C_R   0.509635 0.065753 0.554994 0.037347
C26   C     C_R   0.464355 0.934911 0.539805 0.036119
C27   C     C_R   0.461052 0.065095 0.546352 0.036195
C28   C     C_R   0.510938 0.935334 0.553852 0.039493
C29   C     C_R   0.112398 0.435764 0.541558 0.000958
C30   C     C_R   0.891341 0.563556 0.438339 0.002217
C31   C     C_R   0.889621 0.434250 0.446348 0.010037
C32   C     C_R   0.132849 0.557747 0.486206 0.001547
C33   C     C_R   0.608699 0.935878 0.567186 0.004658
C34   C     C_R   0.367506 0.063056 0.519464 0.012556
C35   C     C_R   0.368895 0.935042 0.517287 0.011360
C36   C     C_R   0.608480 0.065729 0.566662 0.001719
C37   C     C_R   0.162559 0.434401 0.545923 -0.134363
C38   C     C_R   0.834860 0.564640 0.460798 -0.156643
C39   C     C_R   0.834202 0.434650 0.463565 -0.149924
C40   C     C_R   0.172398 0.562002 0.518102 -0.160781
C41   C     C_R   0.662559 0.935043 0.555699 -0.156146
C42   C     C_R   0.327560 0.064039 0.488128 -0.149998
C43   C     C_R   0.327818 0.934984 0.487955 -0.157722
C44   C     C_R   0.662348 0.065791 0.556020 -0.167347
C45   C     C_R   0.185568 0.499424 0.550758 -0.079799
C46   C     C_R   0.806122 0.499929 0.483278 -0.094053
C47   C     C_R   0.686440 0.000260 0.559746 -0.086851
C48   C     C_R   0.313303 0.999664 0.462505 -0.080657
C49   C     C_R   0.099033 0.497608 0.507439 0.042972
C50   C     C_R   0.913953 0.499183 0.449012 0.047257
C51   C     C_R   0.584965 0.000840 0.560842 0.047391
C52   C     C_R   0.394274 0.999335 0.517965 0.050482
C53   C     C_R   0.575285 0.875137 0.592909 -0.009576
C54   C     C_R   0.377595 0.120754 0.562815 -0.001190
C55   C     C_R   0.385055 0.874531 0.549384 -0.000543
C56   C     C_R   0.575220 0.127271 0.589001 -0.011327
C57   C     C_R   0.075100 0.378430 0.569465 -0.007552
C58   C     C_R   0.926589 0.623065 0.407923 -0.012919
C59   C     C_R   0.922205 0.372233 0.429484 -0.015442
C60   C     C_R   0.127011 0.609879 0.430682 0.012715
C61   C     C_R   0.530048 0.873579 0.578080 -0.262564
C62   C     C_R   0.427415 0.125429 0.563602 -0.263665
C63   C     C_R   0.436525 0.871968 0.543044 -0.271617
C64   C     C_R   0.530517 0.128558 0.572492 -0.258778
C65   C     C_R   0.033693 0.377171 0.543861 -0.260912
C66   C     C_R   0.973879 0.623497 0.418447 -0.258346
C67   C     C_R   0.962751 0.371050 0.456906 -0.267209
C68   C     C_R   0.078857 0.615007 0.424046 -0.261877
H1    H     H_    0.152198 0.745326 0.078102 0.142998
H2    H     H_    0.849958 0.259802 0.923604 0.141863
H3    H     H_    0.850241 0.741731 0.923103 0.137153
H4    H     H_    0.211196 0.135551 0.011695 0.137168
H5    H     H_    0.650293 0.240586 0.076136 0.137366
H6    H     H_    0.351960 0.761916 0.918765 0.143981
H7    H     H_    0.280602 0.380107 0.994353 0.136514
H8    H     H_    0.650295 0.757350 0.076538 0.136401
C69   C     C_R   0.222013 0.768064 0.951971 0.099565
C70   C     C_R   0.779218 0.233686 0.047080 0.104094
C71   C     C_R   0.779301 0.766938 0.046866 0.106981
C72   C     C_R   0.215321 0.241465 0.957760 0.109380
C73   C     C_R   0.721025 0.266723 0.952670 0.108023
C74   C     C_R   0.282061 0.739580 0.044975 0.100192
C75   C     C_R   0.275672 0.274409 0.048999 0.103135
C76   C     C_R   0.721230 0.732105 0.952778 0.106415
C77   C     C_R   0.278653 0.772190 0.907978 -0.159029
C78   C     C_R   0.722662 0.228927 0.089226 -0.167567
C79   C     C_R   0.722639 0.770604 0.089197 -0.167135
C80   C     C_R   0.236006 0.310130 0.952897 -0.145969
C81   C     C_R   0.777584 0.271479 0.910511 -0.163539
C82   C     C_R   0.225465 0.735412 0.088760 -0.165566
C83   C     C_R   0.255055 0.205806 0.053730 -0.160747
C84   C     C_R   0.777894 0.728438 0.910446 -0.164101
H9    H     H_    0.299898 0.787688 0.838367 0.156133
H10   H     H_    0.700782 0.211286 0.157939 0.135691
H11   H     H_    0.700557 0.788025 0.157968 0.134875
H12   H     H_    0.228593 0.351392 0.914944 0.142846
H13   H     H_    0.799459 0.289102 0.841789 0.138099
H14   H     H_    0.204174 0.719629 0.158114 0.181086
H15   H     H_    0.262636 0.164430 0.091374 0.138310
H16   H     H_    0.799976 0.711023 0.841673 0.136871
C85   C     C_R   0.308399 0.757952 0.954011 -0.164819
C86   C     C_R   0.693826 0.245370 0.042461 -0.162867
C87   C     C_R   0.693891 0.753275 0.042641 -0.162920
C88   C     C_R   0.265861 0.326449 0.998104 -0.160569
C89   C     C_R   0.806423 0.255036 0.957282 -0.162266
C90   C     C_R   0.195741 0.749619 0.042836 -0.168713
C91   C     C_R   0.225395 0.189453 0.008415 -0.161170
C92   C     C_R   0.806643 0.745778 0.957000 -0.163079
C93   C     C_R   0.144994 0.829690 0.943533 -0.192479
C94   C     C_R   0.855684 0.171335 0.056035 -0.192093
C95   C     C_R   0.855551 0.829436 0.056104 -0.195202
C96   C     C_R   0.140623 0.176641 0.946434 -0.190953
C97   C     C_R   0.644499 0.328958 0.943782 -0.196184
C98   C     C_R   0.357815 0.675398 0.054444 -0.194921
C99   C     C_R   0.353305 0.333716 0.057599 -0.188308
C100  C     C_R   0.644851 0.669867 0.943621 -0.193093
H17   H     H_    0.132349 0.849441 0.010606 0.154156
H18   H     H_    0.869098 0.152941 0.988183 0.154023
H19   H     H_    0.868962 0.847904 0.988245 0.152296
H20   H     H_    0.126398 0.159292 0.014915 0.154674
H21   H     H_    0.631131 0.347427 0.011592 0.152094
H22   H     H_    0.370512 0.656033 0.987191 0.155172
H23   H     H_    0.367114 0.351815 0.989496 0.154507
H24   H     H_    0.631359 0.651502 0.011540 0.151138
C101  C     C_R   0.117780 0.851617 0.895241 -0.059043
C102  C     C_R   0.882400 0.148571 0.104731 -0.056954
C103  C     C_R   0.882248 0.851872 0.104886 -0.062672
C104  C     C_R   0.115855 0.151064 0.896174 -0.059351
C105  C     C_R   0.617679 0.351546 0.895184 -0.062676
C106  C     C_R   0.383720 0.650934 0.103778 -0.063250
C107  C     C_R   0.381265 0.353456 0.105382 -0.059921
C108  C     C_R   0.618093 0.647569 0.894877 -0.056856
C109  C     C_R   0.135899 0.828827 0.807346 -0.217393
C110  C     C_R   0.863804 0.170553 0.193023 -0.228367
C111  C     C_R   0.863627 0.829708 0.193173 -0.198202
C112  C     C_R   0.134807 0.172844 0.807601 -0.211654
C113  C     C_R   0.636214 0.329466 0.806938 -0.175457
C114  C     C_R   0.365425 0.673393 0.191939 -0.207929
C115  C     C_R   0.363270 0.329924 0.192960 -0.210004
C116  C     C_R   0.636848 0.669486 0.806506 -0.212300
C117  C     C_R   0.181374 0.785499 0.766689 -0.030910
C118  C     C_R   0.817814 0.212954 0.234048 -0.065074
C119  C     C_R   0.817769 0.787394 0.234081 -0.043759
C120  C     C_R   0.178963 0.218357 0.768046 -0.068585
C121  C     C_R   0.682232 0.287124 0.765892 -0.035499
C122  C     C_R   0.320725 0.718263 0.232131 -0.075534
C123  C     C_R   0.316824 0.288773 0.234301 -0.056573
C124  C     C_R   0.682707 0.711771 0.765618 -0.061983
C125  C     C_R   0.207547 0.762079 0.816093 -0.127673
C126  C     C_R   0.791216 0.235709 0.185156 -0.183921
C127  C     C_R   0.791295 0.764967 0.185072 -0.192456
C128  C     C_R   0.202645 0.245451 0.819570 -0.188764
C129  C     C_R   0.708932 0.264537 0.814692 -0.186266
C130  C     C_R   0.295851 0.744096 0.181700 -0.186946
C131  C     C_R   0.289010 0.268996 0.186204 -0.187970
C132  C     C_R   0.709252 0.734080 0.814556 -0.174467
C133  C     C_R   0.190420 0.785456 0.903905 0.069878
C134  C     C_R   0.809731 0.214572 0.096186 0.070625
C135  C     C_R   0.809697 0.786289 0.096117 0.070968
C136  C     C_R   0.184781 0.222853 0.908191 0.057716
C137  C     C_R   0.690481 0.285777 0.903601 0.071255
C138  C     C_R   0.313330 0.721356 0.093392 0.058253
C139  C     C_R   0.306846 0.291764 0.097779 0.070511
C140  C     C_R   0.690827 0.712792 0.903524 0.070572
O33   O     O_R   0.051640 0.926880 0.885090 -0.585183
O34   O     O_R   0.948360 0.073120 0.114910 -0.581275
O35   O     O_R   0.948360 0.926880 0.114910 -0.586208
O36   O     O_R   0.051640 0.073120 0.885090 -0.580794
O37   O     O_R   0.551640 0.426880 0.885090 -0.585055
O38   O     O_R   0.448360 0.573120 0.114910 -0.585815
O39   O     O_R   0.448360 0.426880 0.114910 -0.585611
O40   O     O_R   0.551640 0.573120 0.885090 -0.578889
Cu9   Cu    Cu3+1 0.495240 0.500000 0.924150 0.977470
Cu10  Cu    Cu3+1 0.504760 0.500000 0.075850 0.964862
Cu11  Cu    Cu3+1 0.995240 0.000000 0.924150 0.976351
Cu12  Cu    Cu3+1 0.004760 0.000000 0.075850 0.977886
C141  C     C_R   0.926487 0.903193 0.066646 0.800839
C142  C     C_R   0.073110 0.097423 0.933596 0.805417
C143  C     C_R   0.073587 0.903221 0.933378 0.807867
C144  C     C_R   0.926561 0.096965 0.066513 0.803414
C145  C     C_R   0.426272 0.403529 0.066787 0.805009
C146  C     C_R   0.573613 0.596651 0.933278 0.808933
C147  C     C_R   0.573466 0.403072 0.933459 0.810036
C148  C     C_R   0.426765 0.597389 0.066359 0.804650
O41   O     O_R   0.940620 0.926560 0.986760 -0.591396
O42   O     O_R   0.059380 0.073440 0.013240 -0.589163
O43   O     O_R   0.059380 0.926560 0.013240 -0.590583
O44   O     O_R   0.940620 0.073440 0.986760 -0.589622
O45   O     O_R   0.440620 0.426560 0.986760 -0.590770
O46   O     O_R   0.559380 0.573440 0.013240 -0.593179
O47   O     O_R   0.559380 0.426560 0.013240 -0.591869
O48   O     O_R   0.440620 0.573440 0.986760 -0.588917
C149  C     C_2   0.220039 0.501074 0.596500 0.904529
O49   O     O_2   0.198988 0.498733 0.678103 -0.594943
O50   O     O_R   0.276251 0.502974 0.546458 -0.715702
H25   H     H_    0.295100 0.503178 0.585498 0.324241
C150  C     C_2   0.746676 0.500393 0.541936 0.890935
O51   O     O_2   0.729141 0.500717 0.623128 -0.621394
O52   O     O_R   0.711246 0.500368 0.504267 -0.709085
H26   H     H_    0.672011 0.500665 0.551197 0.326387
C151  C     C_2   0.732739 0.999931 0.580399 0.939666
O53   O     O_2   0.724273 0.999873 0.658329 -0.577961
O54   O     O_R   0.785649 0.999707 0.511006 -0.730544
H27   H     H_    0.813512 0.999488 0.533829 0.324241
C152  C     C_2   0.287509 0.999926 0.402535 0.875244
O55   O     O_2   0.238328 0.000341 0.433766 -0.548250
O56   O     O_R   0.320063 0.999565 0.310056 -0.773411
H28   H     H_    0.298235 0.999727 0.275797 0.330933
C153  C     C_2   0.578833 0.820603 0.654234 0.881170
O57   O     O_2   0.562230 0.760314 0.655661 -0.601447
O58   O     O_R   0.599487 0.839257 0.712802 -0.764929
H29   H     H_    0.597344 0.798954 0.754252 0.325938
C154  C     C_2   0.331433 0.153950 0.639437 0.875674
O59   O     O_2   0.335709 0.212567 0.666703 -0.601643
O60   O     O_R   0.284684 0.113803 0.686097 -0.772435
H30   H     H_    0.261333 0.132480 0.748332 0.331754
C155  C     C_2   0.345469 0.827575 0.619004 0.890877
O61   O     O_2   0.300893 0.850707 0.670445 -0.618188
O62   O     O_R   0.360331 0.758222 0.628638 -0.772303
H31   H     H_    0.331053 0.732034 0.680734 0.318117
C156  C     C_2   0.578106 0.184361 0.647809 0.891237
O63   O     O_2   0.596490 0.171337 0.699671 -0.605995
O64   O     O_R   0.558350 0.252432 0.645838 -0.769041
H32   H     H_    0.562121 0.286164 0.689453 0.330404
C157  C     C_2   0.072720 0.325221 0.636752 0.880452
O65   O     O_2   0.053112 0.266596 0.640093 -0.601502
O66   O     O_R   0.091685 0.342806 0.697929 -0.766513
H33   H     H_    0.087470 0.302505 0.740664 0.328894
C158  C     C_2   0.921711 0.678749 0.349260 0.885828
O67   O     O_2   0.900102 0.664960 0.302344 -0.610047
O68   O     O_R   0.943396 0.746294 0.345327 -0.769013
H34   H     H_    0.938079 0.779101 0.302183 0.330955
C159  C     C_2   0.924257 0.316865 0.365078 0.900613
O69   O     O_2   0.943451 0.258210 0.364633 -0.602241
O70   O     O_R   0.905445 0.332683 0.303081 -0.767243
H35   H     H_    0.910111 0.291509 0.261437 0.327836
C160  C     C_2   0.175350 0.641247 0.356974 0.849290
O71   O     O_2   0.172936 0.699552 0.326820 -0.623770
O72   O     O_R   0.222440 0.600255 0.316767 -0.777001
H36   H     H_    0.248951 0.618974 0.256157 0.328517
H37   H     H_    0.507333 0.825034 0.595678 0.175545
H38   H     H_    0.434139 0.172799 0.592698 0.174709
H39   H     H_    0.450062 0.820800 0.553260 0.181699
H40   H     H_    0.510598 0.178991 0.580194 0.183192
H41   H     H_    0.006400 0.332396 0.563987 0.179997
H42   H     H_    0.996959 0.671898 0.401803 0.182703
H43   H     H_    0.984466 0.321986 0.451402 0.184771
H44   H     H_    0.075889 0.657077 0.382910 0.170617
H45   H     H_    0.115878 0.847276 0.769191 0.178338
H46   H     H_    0.883877 0.152210 0.231147 0.186943
H47   H     H_    0.883588 0.847865 0.231354 0.170947
H48   H     H_    0.116763 0.151515 0.767954 0.187748
H49   H     H_    0.616103 0.347745 0.768855 0.169352
H50   H     H_    0.384293 0.652900 0.230952 0.182426
H51   H     H_    0.384306 0.346017 0.230275 0.178523
H52   H     H_    0.616811 0.651487 0.768362 0.191157
H53   H     H_    0.242151 0.727169 0.785730 0.132433
H54   H     H_    0.755461 0.268772 0.216635 0.152786
H55   H     H_    0.755734 0.731892 0.216465 0.152914
H56   H     H_    0.237727 0.279373 0.788642 0.184692
H57   H     H_    0.744710 0.231516 0.783192 0.155213
H58   H     H_    0.261174 0.779074 0.212367 0.184526
H59   H     H_    0.252187 0.238402 0.218571 0.153479
H60   H     H_    0.744829 0.767125 0.783146 0.154532

loop_
_geom_bond_atom_site_label_1
_geom_bond_atom_site_label_2
_geom_bond_distance
_ccdc_geom_bond_type
C18   C22   1.412441 A    
C82   C90   1.394966 A    
Cu2   Cu5   2.666992 S    
C33   C53   1.414169 A    
C10   C39   1.489176 S    
C35   C55   1.417669 A    
C16   C41   1.506601 S    
C93   C133  1.400349 A    
C106  C114  1.395941 A    
C45   C149  1.484271 S    
C2    C121  1.462393 S    
C29   C49   1.419365 A    
C47   C151  1.484853 S    
C131  C139  1.402574 A    
O68   H34   1.013827 S    
Cu6   O22   1.961982 S    
C129  C137  1.399953 A    
H5    C86   1.083058 S    
C96   C136  1.402541 A    
Cu11  O44   1.963706 S    
C34   C52   1.404271 A    
C21   C23   1.434089 A    
C22   C24   1.420510 A    
Cu4   O28   1.966931 S    
O70   H35   1.013555 S    
O3    Cu3   1.960107 S    
C112  H48   1.083258 S    
C132  C140  1.400476 A    
H2    C89   1.083072 S    
C81   C89   1.394523 A    
C57   C65   1.407629 A    
C43   C48   1.408125 A    
C152  O55   1.223474 D    
Cu10  O47   1.963708 S    
C73   C86   1.403365 A    
O25   C9    1.293963 A    
C14   C43   1.485841 S    
C97   C137  1.400018 A    
C126  H54   1.083339 S    
O35   C141  1.301327 A    
O38   C148  1.300123 A    
O64   H32   1.013891 S    
C28   C61   1.412265 A    
C4    C123  1.466402 S    
C53   C61   1.395786 A    
C130  H58   1.083074 S    
C3    O19   1.288397 A    
C71   C92   1.403666 A    
C31   C59   1.422917 A    
Cu12  O42   1.969741 S    
C97   H21   1.083352 S    
C69   C90   1.403082 A    
Cu11  Cu12  2.688262 S    
O12   Cu4   1.959511 S    
O13   Cu5   1.959878 S    
C79   C87   1.395688 A    
C80   C88   1.398582 A    
C106  C148  1.466964 S    
C57   C157  1.489352 S    
C158  O68   1.398708 S    
C12   C37   1.503612 S    
C82   H14   1.080598 S    
C98   H22   1.083294 S    
Cu9   O45   1.969740 S    
C111  C119  1.393746 A    
C125  C133  1.400427 A    
C112  C120  1.395719 A    
C26   C63   1.406647 A    
O2    C13   1.301082 A    
C17   C21   1.422069 A    
C58   C66   1.410431 A    
C9    C40   1.497564 S    
C75   C139  1.483516 S    
C11   C38   1.494929 S    
C73   C137  1.477517 S    
Cu3   O19   1.961960 S    
H3    C92   1.083002 S    
C36   C56   1.419923 A    
O10   Cu2   1.959878 S    
C95   C103  1.406010 A    
O35   Cu12  1.966522 S    
C128  C136  1.404462 A    
C114  C122  1.394452 A    
C81   H13   1.082993 S    
O40   Cu9   1.966523 S    
C54   C62   1.399926 A    
C118  C126  1.403957 A    
C155  O62   1.399397 S    
C142  O42   1.294801 A    
O6    Cu6   1.968101 S    
C60   C160  1.474199 S    
C29   C37   1.435547 A    
C35   C43   1.442215 A    
C110  C118  1.392723 A    
C31   C39   1.436727 A    
C132  H60   1.083261 S    
O40   C146  1.301364 A    
C6    O22   1.285952 A    
C153  O57   1.223596 D    
C13   C44   1.503825 S    
O7    C12   1.314486 A    
Cu2   O26   1.972969 S    
C156  O63   1.223540 D    
C145  O45   1.291513 A    
O39   C145  1.301698 A    
C76   C84   1.405873 A    
C151  O53   1.222308 D    
C20   C27   1.416320 A    
C77   C85   1.397135 A    
C83   C91   1.395620 A    
C149  O49   1.222272 D    
O28   C12   1.290416 A    
O16   C3    1.297511 A    
C37   C45   1.404406 A    
C160  O71   1.222680 D    
C107  C115  1.393688 A    
C99   C139  1.400829 A    
C105  C113  1.394266 A    
C107  C145  1.464685 S    
C55   C63   1.391404 A    
Cu5   O29   1.972969 S    
C20   C52   1.431491 A    
C58   C158  1.487015 S    
C60   C68   1.401948 A    
Cu7   O31   1.966932 S    
C5    C118  1.462814 S    
Cu8   O32   1.966931 S    
H6    C85   1.083038 S    
C93   C101  1.404774 A    
C99   H23   1.083235 S    
C100  C108  1.406039 A    
C65   H41   1.082682 S    
C95   H19   1.083250 S    
C67   H43   1.082771 S    
C68   H44   1.078744 S    
C149  O50   1.399031 S    
Cu4   Cu7   2.677292 S    
O50   H25   1.013789 S    
O5    Cu5   1.968103 S    
C157  O66   1.398965 S    
O33   Cu11  1.958876 S    
O9    C6    1.295777 A    
O26   C10   1.280984 A    
O11   C8    1.297394 A    
O36   Cu11  1.966523 S    
O12   C7    1.298783 A    
O13   C2    1.294553 A    
C5    O21   1.284890 A    
C70   C134  1.477565 S    
C103  C111  1.394320 A    
C104  C112  1.395460 A    
H7    C88   1.082900 S    
O33   C143  1.299876 A    
C122  C130  1.406424 A    
C70   C89   1.403468 A    
O66   H33   1.013789 S    
O1    Cu1   1.968103 S    
H4    C91   1.082814 S    
C61   H37   1.075000 S    
C111  H47   1.083235 S    
O14   Cu6   1.959878 S    
C150  O52   1.399317 S    
C32   C40   1.435413 A    
C19   C25   1.418581 A    
C31   C50   1.411578 A    
C42   C48   1.406242 A    
O8    Cu8   1.960110 S    
C83   H15   1.083064 S    
C101  C143  1.463163 S    
C36   C51   1.413818 A    
C109  C117  1.392458 A    
O39   Cu10  1.966522 S    
C146  O46   1.292197 A    
C74   C85   1.404190 A    
C69   C77   1.406287 A    
C103  C141  1.465819 S    
O62   H31   1.011325 S    
C141  O41   1.292515 A    
C71   C79   1.405830 A    
C128  H56   1.082866 S    
C113  H49   1.083342 S    
C7    C120  1.471188 S    
C34   C54   1.409816 A    
C8    C119  1.463986 S    
C115  H51   1.083413 S    
O52   H26   1.013848 S    
C36   C44   1.430016 A    
O58   H29   1.012930 S    
Cu9   Cu10  2.688262 S    
O11   Cu3   1.959511 S    
C17   C49   1.429838 A    
C71   C135  1.480797 S    
C98   C106  1.404875 A    
C79   H11   1.082923 S    
C80   H12   1.082873 S    
C115  C123  1.393320 A    
O34   Cu12  1.958873 S    
O54   H27   1.013785 S    
C130  C138  1.402807 A    
C113  C121  1.392675 A    
C144  O44   1.292854 A    
O32   C16   1.303479 A    
C33   C41   1.424775 A    
C116  C124  1.393433 A    
C96   C104  1.403568 A    
C117  C125  1.405530 A    
C147  O47   1.292905 A    
C25   C27   1.429004 A    
C75   C88   1.406817 A    
O72   H36   1.009865 S    
C120  C128  1.408331 A    
C76   C87   1.403682 A    
C108  C116  1.393788 A    
C20   C26   1.415396 A    
C158  O67   1.223430 D    
C116  H52   1.083454 S    
Cu1   O17   1.961981 S    
C34   C42   1.436485 A    
C98   C138  1.401452 A    
Cu3   O27   1.966932 S    
O36   C142  1.300330 A    
C102  C110  1.394208 A    
C54   C154  1.477618 S    
C22   C67   1.405912 A    
O34   C144  1.299480 A    
C78   C86   1.394371 A    
Cu11  O41   1.969740 S    
C40   C45   1.415667 A    
C127  H55   1.083268 S    
O30   C14   1.277798 A    
C23   C66   1.414580 A    
C18   C50   1.425259 A    
C41   C47   1.416011 A    
Cu6   O30   1.972969 S    
C152  O56   1.396653 S    
O4    C15   1.308657 A    
O37   C147  1.299410 A    
C6    C117  1.466282 S    
O5    C10   1.307543 A    
Cu10  O46   1.969741 S    
C102  C144  1.462701 S    
C126  C134  1.400110 A    
C109  H45   1.083367 S    
C94   H18   1.083359 S    
C75   C83   1.403047 A    
C66   H42   1.077638 S    
C73   C81   1.405067 A    
C72   C80   1.404569 A    
C84   H16   1.082922 S    
C59   C67   1.405525 A    
Cu1   Cu6   2.666992 S    
C74   C138  1.481792 S    
Cu3   Cu8   2.677292 S    
C64   H40   1.075378 S    
O10   C5    1.294669 A    
O27   C11   1.288161 A    
O15   C4    1.299409 A    
C154  O59   1.223247 D    
C72   C136  1.485151 S    
C3    C124  1.463489 S    
O14   C1    1.295811 A    
O37   Cu9   1.958876 S    
C1    C122  1.469136 S    
Cu4   O20   1.961959 S    
Cu5   O21   1.961981 S    
C4    O20   1.287960 A    
C72   C91   1.407091 A    
C97   C105  1.403869 A    
C143  O43   1.292576 A    
C93   H17   1.083282 S    
C94   C134  1.400046 A    
C39   C46   1.409966 A    
C94   C102  1.403885 A    
C26   C28   1.424751 A    
C96   H20   1.083163 S    
C56   C156  1.490555 S    
C30   C38   1.442229 A    
C62   H38   1.076351 S    
H1    C90   1.083080 S    
C44   C47   1.417175 A    
C59   C159  1.488011 S    
C24   C65   1.407127 A    
C76   C140  1.480835 S    
C127  C135  1.400546 A    
C155  O61   1.222157 D    
C148  O48   1.294300 A    
O7    Cu7   1.960107 S    
C125  H53   1.080589 S    
C101  C109  1.394452 A    
C46   C150  1.490379 S    
C21   C68   1.406791 A    
C129  H57   1.083353 S    
C48   C152  1.485992 S    
C2    O18   1.284906 A    
C131  H59   1.083273 S    
C114  H50   1.083265 S    
C159  O70   1.398879 S    
C157  O65   1.223463 D    
C38   C46   1.413248 A    
O15   Cu7   1.959511 S    
O16   Cu8   1.959511 S    
C30   C50   1.412490 A    
C78   H10   1.082977 S    
C63   H39   1.074998 S    
C53   C153  1.489573 S    
C153  O58   1.398550 S    
Cu12  O43   1.963708 S    
C84   C92   1.395741 A    
C95   C135  1.401753 A    
C108  C146  1.465293 S    
C33   C51   1.415070 A    
C156  O64   1.398900 S    
C19   C51   1.428345 A    
O38   Cu10  1.958873 S    
C151  O54   1.399791 S    
O1    C14   1.308689 A    
C19   C28   1.416062 A    
H8    C87   1.082993 S    
O3    C16   1.301562 A    
C154  O60   1.397831 S    
C159  O69   1.223456 D    
C15   C42   1.489464 S    
Cu2   O18   1.961982 S    
O8    C11   1.309842 A    
C124  C132  1.404066 A    
Cu9   O48   1.963706 S    
C35   C52   1.407588 A    
O9    Cu1   1.959878 S    
C160  O72   1.398601 S    
O60   H30   1.009291 S    
C100  C140  1.401774 A    
C69   C133  1.481072 S    
C17   C24   1.409782 A    
O31   C15   1.285718 A    
C32   C60   1.413753 A    
C77   H9    1.082663 S    
C18   C23   1.410898 A    
C55   C155  1.479563 S    
C123  C131  1.407321 A    
C121  C129  1.403974 A    
O2    Cu2   1.968101 S    
C119  C127  1.404163 A    
O56   H28   1.013815 S    
O4    Cu4   1.960110 S    
C56   C64   1.397787 A    
C32   C49   1.413145 A    
C105  C147  1.462682 S    
Cu7   O23   1.961960 S    
Cu8   O24   1.961959 S    
C7    O23   1.291689 A    
C8    O24   1.288906 A    
O6    C9    1.299346 A    
Cu1   O25   1.972969 S    
O29   C13   1.296765 A    
C99   C107  1.406107 A    
C100  H24   1.083232 S    
C110  H46   1.083458 S    
C1    O17   1.287634 A    
C70   C78   1.405008 A    
C25   C64   1.410582 A    
C104  C142  1.468315 S    
C150  O51   1.222563 D    
C74   C82   1.405223 A    
C30   C58   1.424178 A    
C27   C62   1.412960 A    
C29   C57   1.423583 A    
