data_mof_unit_1858.cif
_audit_creation_date              2012-12-10T17:56:45-0500
_audit_creation_method            fapswitch 2.2
_symmetry_space_group_name_H-M    P1
_symmetry_Int_Tables_number       1
_space_group_crystal_system       triclinic
_cell_length_a                    10.837008
_cell_length_b                    9.514316
_cell_length_c                    10.943523
_cell_angle_alpha                 89.957649
_cell_angle_beta                  89.679234
_cell_angle_gamma                 90.686547
_cell_volume                      1128.25169492

loop_
_atom_site_label
_atom_site_type_symbol
_atom_type_description
_atom_site_fract_x
_atom_site_fract_y
_atom_site_fract_z
_atom_type_partial_charge
C1    C     C_R   0.262136 0.499343 0.499525 0.795489
C2    C     C_R   0.738022 0.500259 0.499892 0.944164
C3    C     C_R   0.938418 0.625611 0.481480 0.016910
C4    C     C_R   0.065867 0.625159 0.481629 -0.172105
C5    C     C_R   0.443322 0.073695 0.408789 -0.022784
C6    C     C_R   0.555653 0.075209 0.591588 -0.025785
C7    C     C_R   0.443504 0.924875 0.408677 0.018965
C8    C     C_R   0.554467 0.926699 0.591969 0.039984
C9    C     C_R   0.506907 0.501018 0.262131 0.840687
C10   C     C_R   0.506943 0.500033 0.737624 0.838993
C11   C     C_R   0.620865 0.745728 0.118003 0.424443
C12   C     C_R   0.642895 0.722984 0.871555 0.388226
C13   C     C_R   0.626980 0.869145 0.048526 -0.278267
C14   C     C_R   0.643558 0.857039 0.923090 -0.308246
C15   C     C_R   0.576610 0.615404 0.933319 -0.012019
C16   C     C_R   0.571614 0.621666 0.062602 -0.025195
C17   C     C_R   0.521849 0.503627 0.128317 -0.067425
C18   C     C_R   0.522870 0.499786 0.870987 -0.060801
C19   C     C_R   0.479647 0.385312 0.063906 -0.185636
C20   C     C_R   0.478435 0.384224 0.937412 -0.182920
C21   C     C_R   0.062543 0.372535 0.514298 -0.166295
C22   C     C_R   0.934813 0.373155 0.514537 -0.153184
C23   C     C_R   0.872143 0.499918 0.498632 0.028064
C24   C     C_R   0.128466 0.498720 0.498398 -0.030773
Cu1   Cu    Cu3+1 0.500000 0.640660 0.500000 1.036774
Cu2   Cu    Cu3+1 0.500000 0.359340 0.500000 0.977107
H1    H     H_    0.441600 0.294718 0.111650 0.151140
H2    H     H_    0.438930 0.293642 0.891370 0.156095
H3    H     H_    0.653481 0.967616 0.091218 0.175850
H4    H     H_    0.684285 0.945061 0.873938 0.169627
H5    H     H_    0.109391 0.273783 0.527494 0.158267
H6    H     H_    0.885415 0.274666 0.528045 0.162835
H7    H     H_    0.892263 0.724427 0.467921 0.212127
H8    H     H_    0.115119 0.723778 0.468271 0.154756
H9    H     H_    0.397480 0.128979 0.335930 0.119173
H10   H     H_    0.600678 0.131478 0.665037 0.132366
H11   H     H_    0.398044 0.868429 0.335604 0.114473
H12   H     H_    0.596176 0.872068 0.666427 0.150082
N1    N     N_R   0.500000 0.852070 0.500000 -0.148955
N2    N     N_R   0.500000 0.147940 0.500000 -0.166500
O1    O     O_R   0.319640 0.618740 0.499990 -0.596345
O2    O     O_R   0.680360 0.618740 0.500010 -0.493874
O3    O     O_R   0.319620 0.381170 0.499990 -0.593037
O4    O     O_R   0.680380 0.381170 0.500010 -0.603909
O5    O     O_R   0.500000 0.618810 0.319650 -0.574615
O6    O     O_R   0.500000 0.618810 0.680350 -0.600046
O7    O     O_R   0.499970 0.381240 0.319640 -0.595736
O8    O     O_R   0.500030 0.381240 0.680360 -0.594376
S1    S     S_3+6 0.743296 0.734810 0.222192 0.002385
O9    O     O_2   0.711902 0.815992 0.335443 -0.326759
O10   O     O_2   0.769370 0.584143 0.251758 -0.315847
O11   O     O_3   0.871628 0.806138 0.159321 -0.495289
H13   H     H_    0.867371 0.908027 0.177131 0.343018
S2    S     S_3+6 0.781256 0.677970 0.796017 0.002240
O12   O     O_2   0.780528 0.525466 0.760968 -0.313213
O13   O     O_2   0.801224 0.768475 0.685188 -0.365005
O14   O     O_3   0.899438 0.705662 0.892352 -0.438900
H14   H     H_    0.911111 0.809036 0.894934 0.359602

loop_
_geom_bond_atom_site_label_1
_geom_bond_atom_site_label_2
_ccdc_geom_bond_type
Cu1   O2    S    
C10   O6    A    
C15   C18   A    
C6    C8    A    
C6    H10   S    
S2    O13   D    
C9    O5    A    
C11   S1    S    
C8    N1    A    
C13   C14   A    
C19   H1    S    
C11   C16   A    
C3    C23   A    
C19   C20   A    
C12   C15   A    
Cu2   O8    S    
S1    O11   S    
C7    H11   S    
Cu2   O4    S    
C21   C22   A    
Cu1   N1    S    
C21   H5    S    
Cu2   N2    S    
O14   H14   S    
C22   H6    S    
Cu2   O7    S    
C2    O2    A    
C4    C24   A    
C5    H9    S    
C1    O1    A    
C17   C19   A    
C14   H4    S    
Cu2   O3    S    
C9    O7    A    
C18   C20   A    
C8    H12   S    
C10   O8    A    
C10   C18   S    
C4    H8    S    
C21   C24   A    
C13   H3    S    
Cu1   O1    S    
C15   C16   A    
Cu1   O5    S    
C12   C14   A    
C11   C13   A    
C6    N2    A    
O11   H13   S    
C1    C24   S    
S1    O9    D    
C5    N2    A    
C9    C17   S    
C2    C23   S    
C5    C7    A    
C3    H7    S    
S2    O12   D    
C7    N1    A    
C20   H2    S    
Cu1   Cu2   S    
C22   C23   A    
Cu1   O6    S    
C1    O3    A    
C12   S2    S    
C3    C4    A    
C2    O4    A    
C16   C17   A    
S1    O10   D    
S2    O14   S    
