data_mof_unit_4680.cif
_audit_creation_date              2012-12-10T16:58:27-0500
_audit_creation_method            fapswitch 2.2
_symmetry_space_group_name_H-M    P1
_symmetry_Int_Tables_number       1
_space_group_crystal_system       triclinic
_cell_length_a                    7.765966
_cell_length_b                    8.559986
_cell_length_c                    23.41322
_cell_angle_alpha                 91.473923
_cell_angle_beta                  85.295924
_cell_angle_gamma                 93.591517
_cell_volume                      1547.80951601

loop_
_atom_site_label
_atom_site_type_symbol
_atom_type_description
_atom_site_fract_x
_atom_site_fract_y
_atom_site_fract_z
_atom_type_partial_charge
C1    C     C_R   0.545743 0.794749 0.498538 0.932064
C2    C     C_R   0.454257 0.205251 0.501462 0.932104
C3    C     C_R   0.669265 0.497130 0.756347 -0.135156
C4    C     C_R   0.330731 0.502995 0.243655 -0.135221
C5    C     C_R   0.664161 0.498814 0.697268 -0.216914
C6    C     C_R   0.335844 0.501347 0.302734 -0.216909
C7    C     C_R   0.504386 0.497773 0.673007 -0.296170
C8    C     C_R   0.495607 0.502189 0.326992 -0.296162
C9    C     C_R   0.349343 0.494546 0.708872 0.542122
C10   C     C_R   0.650630 0.505180 0.291122 0.542150
C11   C     C_R   0.355444 0.492764 0.767908 0.617265
C12   C     C_R   0.644520 0.506925 0.232086 0.617262
C13   C     C_R   0.515075 0.494021 0.791462 0.068788
C14   C     C_R   0.484901 0.505868 0.208536 0.068847
C15   C     C_2   0.569962 0.958152 0.497671 -0.328367
C16   C     C_2   0.430038 0.041848 0.502329 -0.328367
C17   C     C_R   0.501215 0.499611 0.610711 0.933774
C18   C     C_R   0.498784 0.500382 0.389288 0.933760
C19   C     C_R   0.444151 0.367282 0.119882 0.576948
C20   C     C_R   0.555814 0.632606 0.880118 0.576779
C21   C     C_R   0.520425 0.642586 0.119805 0.603255
C22   C     C_R   0.479549 0.357300 0.880194 0.603418
C23   C     C_R   0.529251 0.643274 0.060045 -0.033028
C24   C     C_R   0.470719 0.356613 0.939955 -0.033068
C25   C     C_R   0.494896 0.501309 0.030078 -0.010636
C26   C     C_R   0.505071 0.498578 0.969922 -0.010643
C27   C     C_R   0.450787 0.362000 0.060124 -0.026735
C28   C     C_R   0.549180 0.637887 0.939876 -0.026702
C29   C     C_R   0.573306 0.781350 0.029737 -0.149051
C30   C     C_R   0.426663 0.218537 0.970263 -0.149034
C31   C     C_R   0.583275 0.778663 0.970111 -0.147931
C32   C     C_R   0.416691 0.221225 0.029889 -0.147920
H1    H     H_    0.600788 0.891546 0.051934 0.196704
H2    H     H_    0.399183 0.108341 0.948066 0.196695
H3    H     H_    0.617645 0.886952 0.947852 0.194922
H4    H     H_    0.382321 0.112935 0.052148 0.194915
H5    H     H_    0.792581 0.498396 0.774924 0.237387
H6    H     H_    0.207424 0.501889 0.225081 0.237379
H7    H     H_    0.785223 0.501560 0.670707 0.262727
H8    H     H_    0.214796 0.498791 0.329298 0.262700
H9    H     H_    0.702183 0.009028 0.493207 0.209761
H10   H     H_    0.297817 0.990971 0.506793 0.209758
N1    N     N_R   0.480042 0.505779 0.148045 -0.329598
N2    N     N_R   0.519927 0.494109 0.851955 -0.329599
N3    N     N_2   0.950330 0.457950 0.484560 0.261851
N4    N     N_2   0.049670 0.542050 0.515440 0.261840
O1    O     O_R   0.389250 0.738570 0.503790 -0.615154
O2    O     O_R   0.610750 0.261430 0.496210 -0.615137
O3    O     O_R   0.678390 0.711620 0.493890 -0.583725
O4    O     O_R   0.321610 0.288380 0.506110 -0.583695
O5    O     O_R   0.355400 0.513520 0.588790 -0.545660
O6    O     O_R   0.644600 0.486480 0.411210 -0.545652
O7    O     O_R   0.644550 0.486570 0.578900 -0.600561
O8    O     O_R   0.355450 0.513430 0.421100 -0.600576
O9    O     O_2   0.404607 0.235239 0.149739 -0.504541
O10   O     O_2   0.595349 0.764652 0.850262 -0.504592
O11   O     O_2   0.552860 0.776805 0.149633 -0.500926
O12   O     O_2   0.447127 0.223079 0.850367 -0.500864
Zn1   Zn    Zn3+2 0.306930 0.518000 0.506610 1.154011
Zn2   Zn    Zn3+2 0.693070 0.482000 0.493390 1.154019
F1    F     F_    0.192147 0.492280 0.687255 -0.601699
F2    F     F_    0.807816 0.507235 0.312735 -0.601676
F3    F     F_    0.206228 0.490674 0.802498 -0.616756
F4    F     F_    0.793713 0.508791 0.197492 -0.616780
F5    F     F_    0.030560 0.357619 0.448478 -0.548968
F6    F     F_    0.969440 0.642381 0.551521 -0.549031

loop_
_geom_bond_atom_site_label_1
_geom_bond_atom_site_label_2
_ccdc_geom_bond_type
C22   O12   S    
C32   H4    S    
N3    Zn2   S    
C21   O11   S    
C1    C15   S    
C29   H1    S    
N4    Zn1   S    
C25   C27   A    
C2    C16   S    
C26   C28   A    
C3    C13   A    
C12   C14   A    
C20   O10   S    
C17   O5    A    
C5    H7    S    
C27   C32   A    
C18   O6    A    
C29   C31   A    
N3    N4    D    
C30   C32   A    
C9    C11   A    
C24   C26   A    
C15   H9    S    
C10   F2    S    
O3    Zn2   S    
C10   C12   A    
C9    F1    S    
O4    Zn1   S    
C23   C29   A    
C31   H3    S    
C8    C10   A    
C20   N2    A    
O7    Zn2   S    
C19   N1    A    
O2    Zn2   S    
C8    C18   S    
C11   F3    S    
O8    Zn1   S    
C21   C23   A    
C2    O4    A    
C4    C14   A    
C12   F4    S    
C22   C24   A    
C24   C30   A    
O5    Zn1   S    
C30   H2    S    
O1    Zn1   S    
C15   C16   D    
C20   C28   A    
C17   O7    A    
C11   C13   A    
C6    H8    S    
C19   C27   A    
C3    H5    S    
C4    C6    A    
C23   C25   A    
C19   O9    S    
C28   C31   A    
C7    C9    A    
C18   O8    A    
C5    C7    A    
C1    O1    A    
C6    C8    A    
O6    Zn2   S    
C2    O2    A    
C25   C26   A    
C21   N1    A    
N3    F5    S    
C1    O3    A    
C13   N2    S    
C22   N2    A    
C16   H10   S    
C4    H6    S    
C14   N1    S    
C3    C5    A    
N4    F6    S    
C7    C17   S    
