data_mof_unit_4754.cif
_audit_creation_date              2012-10-26T17:11:25-0400
_audit_creation_method            fapswitch 2.2
_symmetry_space_group_name_H-M    P1
_symmetry_Int_Tables_number       1
_space_group_crystal_system       triclinic
_cell_length_a                    28.008563
_cell_length_b                    18.726847
_cell_length_c                    16.863311
_cell_angle_alpha                 90.01578
_cell_angle_beta                  62.547966
_cell_angle_gamma                 90.0549
_cell_volume                      7849.03252385

loop_
_atom_site_label
_atom_site_type_symbol
_atom_type_description
_atom_site_fract_x
_atom_site_fract_y
_atom_site_fract_z
_atom_type_partial_charge
C1    C     C_R   0.294972 0.728219 0.329725 0.566732
C2    C     C_R   0.597405 0.999366 0.512869 0.026678
C3    C     C_R   0.690255 0.714250 0.903978 -0.004454
C4    C     C_R   0.926528 0.903080 0.066573 0.555144
C5    C     C_R   0.073486 0.096903 0.933417 0.554967
C6    C     C_R   0.073564 0.903205 0.933367 0.555007
C7    C     C_R   0.926455 0.096820 0.066619 0.554782
C8    C     C_R   0.426515 0.403093 0.066582 0.555075
C9    C     C_R   0.573520 0.596858 0.933392 0.554677
C10   C     C_R   0.573597 0.403243 0.933340 0.554861
C11   C     C_R   0.426444 0.596816 0.066625 0.555159
C12   C     C_R   0.027003 0.626204 0.574614 0.016671
C13   C     C_R   0.899136 0.500198 0.500383 0.029254
C14   C     C_R   0.958143 0.373690 0.478314 0.018833
C15   C     C_R   0.930133 0.624321 0.561054 0.012325
C16   C     C_R   0.042145 0.370908 0.524758 0.010877
C17   C     C_R   0.569137 0.118596 0.440874 0.025868
C18   C     C_R   0.430849 0.881406 0.559162 0.025963
C19   C     C_R   0.471520 0.120029 0.430179 0.014443
C20   C     C_R   0.528469 0.879972 0.569854 0.014404
C21   C     C_R   0.994779 0.687614 0.594575 -0.121554
C22   C     C_R   0.983958 0.309128 0.476468 -0.118836
C23   C     C_R   0.946304 0.686328 0.589296 -0.122784
C24   C     C_R   0.086620 0.499599 0.547992 0.027245
C25   C     C_R   0.024161 0.307280 0.503358 -0.121595
C26   C     C_R   0.555575 0.177278 0.403436 -0.106110
C27   C     C_R   0.444407 0.822730 0.596615 -0.106217
C28   C     C_R   0.507114 0.178102 0.398454 -0.123469
C29   C     C_R   0.492871 0.821904 0.601591 -0.123453
C30   C     C_R   0.961854 0.562731 0.541353 0.028660
C31   C     C_R   0.018393 0.435914 0.522643 0.028164
C32   C     C_R   0.009426 0.563121 0.551037 0.029883
C33   C     C_R   0.973931 0.436679 0.504998 0.031106
C34   C     C_R   0.485499 0.060139 0.465661 0.026078
C35   C     C_R   0.577730 0.878780 0.572910 -0.111603
C36   C     C_R   0.514490 0.939862 0.534371 0.026093
C37   C     C_R   0.534284 0.059596 0.471543 0.025130
C38   C     C_R   0.465705 0.940404 0.528490 0.025199
C39   C     C_R   0.451211 0.000445 0.493875 -0.002596
C40   C     C_R   0.548779 0.999555 0.506155 -0.002617
C41   C     C_R   0.945276 0.500102 0.514547 0.001160
C42   C     C_R   0.038074 0.499651 0.540900 -0.000615
C43   C     C_R   0.370289 0.938523 0.509469 -0.001385
C44   C     C_R   0.629704 0.061476 0.490553 -0.001505
C45   C     C_R   0.613976 0.936902 0.540908 0.001603
C46   C     C_R   0.422262 0.121219 0.427113 -0.111636
C47   C     C_R   0.386018 0.063096 0.459112 0.001641
C48   C     C_R   0.882804 0.436509 0.473917 0.005570
C49   C     C_R   0.109258 0.565003 0.556805 0.004094
C50   C     C_R   0.111890 0.433877 0.546515 0.000000
C51   C     C_R   0.868918 0.563517 0.514691 0.000348
C52   C     C_R   0.326016 0.936349 0.489563 -0.021616
C53   C     C_R   0.673979 0.063650 0.510450 -0.021650
C54   C     C_R   0.666242 0.935402 0.536153 -0.023263
C55   C     C_R   0.333754 0.064596 0.463859 -0.023224
C56   C     C_R   0.833047 0.435611 0.469324 -0.022541
C57   C     C_R   0.383143 0.881528 0.551548 -0.093190
C58   C     C_R   0.163212 0.565331 0.545725 -0.022034
C59   C     C_R   0.164209 0.434343 0.541884 -0.020117
C60   C     C_R   0.825879 0.564431 0.491337 -0.020324
C61   C     C_R   0.306932 0.000108 0.471821 -0.156608
C62   C     C_R   0.693064 0.999891 0.528190 -0.156723
C63   C     C_R   0.807651 0.500305 0.472423 -0.159143
C64   C     C_R   0.188739 0.499909 0.540735 -0.157902
C65   C     C_1   0.304284 0.832582 0.840851 0.186248
C66   C     C_1   0.695919 0.168525 0.159065 0.186133
C67   C     C_1   0.786674 0.635286 0.069844 0.190500
C68   C     C_R   0.616846 0.118473 0.448479 -0.093320
C69   C     C_1   0.213792 0.364269 0.929737 0.190533
C70   C     C_1   0.805212 0.330055 0.838548 0.191106
C71   C     C_1   0.195467 0.669983 0.160523 0.192620
C72   C     C_1   0.286181 0.135741 0.070296 0.190996
C73   C     C_1   0.714094 0.863681 0.929402 0.190968
C74   C     C_R   0.083664 0.370327 0.548019 -0.112309
C75   C     C_R   0.882634 0.622970 0.552838 -0.111651
C76   C     C_R   0.916059 0.375589 0.455929 -0.105892
C77   C     C_R   0.705059 0.271838 0.670250 0.565870
C78   C     C_R   0.076384 0.626901 0.577612 -0.109043
C79   C     C_R   0.222152 0.769543 0.951789 -0.001966
C80   C     C_R   0.778219 0.231125 0.047883 -0.001759
C81   C     C_R   0.780153 0.765494 0.045886 -0.002356
C82   C     C_R   0.220152 0.234043 0.953829 -0.002208
C83   C     C_R   0.722300 0.269444 0.951459 -0.002280
C84   C     C_R   0.278137 0.731305 0.048134 -0.002429
C85   C     C_R   0.279826 0.265969 0.046199 -0.002118
C86   C     C_R   0.720552 0.733460 0.953436 -0.002938
C87   C     C_R   0.276591 0.789370 0.920074 0.001793
C88   C     C_R   0.705016 0.728238 0.670322 0.546484
C89   C     C_R   0.723720 0.211567 0.079714 0.001776
C90   C     C_R   0.767832 0.693950 0.036175 -0.000255
C91   C     C_R   0.232572 0.305562 0.963445 -0.000044
C92   C     C_R   0.776927 0.288601 0.919258 0.000240
C93   C     C_R   0.223593 0.711823 0.080134 0.000105
C94   C     C_R   0.267402 0.194450 0.036588 -0.000167
C95   C     C_R   0.732909 0.805000 0.963094 -0.000699
C96   C     C_R   0.304151 0.769695 0.967961 -0.126645
C97   C     C_R   0.696198 0.231298 0.031804 -0.126751
C98   C     C_R   0.738167 0.678599 0.990419 -0.128770
C99   C     C_R   0.295011 0.271711 0.329659 0.556104
C100  C     C_R   0.262267 0.320855 0.009159 -0.127169
C101  C     C_R   0.804361 0.269184 0.967458 -0.126316
C102  C     C_R   0.196118 0.731221 0.032009 -0.125934
C103  C     C_R   0.237707 0.179157 0.990873 -0.127231
C104  C     C_R   0.762565 0.820345 0.008851 -0.128254
C105  C     C_R   0.145315 0.830571 0.943382 -0.114595
C106  C     C_R   0.854918 0.169822 0.056430 -0.115073
C107  C     C_R   0.855874 0.828617 0.055750 -0.115922
C108  C     C_R   0.144306 0.171098 0.944109 -0.115563
C109  C     C_R   0.645456 0.330683 0.943225 -0.116244
C110  C     C_R   0.794941 0.228156 0.329725 0.548387
C111  C     C_R   0.354876 0.669874 0.056486 -0.115959
C112  C     C_R   0.355683 0.328910 0.055901 -0.114866
C113  C     C_R   0.644594 0.670656 0.943882 -0.114606
C114  C     C_R   0.118145 0.852222 0.895048 -0.012189
C115  C     C_R   0.881943 0.147908 0.104893 -0.012347
C116  C     C_R   0.882309 0.851527 0.104699 -0.012014
C117  C     C_R   0.117753 0.148386 0.895262 -0.011982
C118  C     C_R   0.618211 0.352293 0.894985 -0.012278
C119  C     C_R   0.381940 0.647941 0.104896 -0.012084
C120  C     C_R   0.382249 0.351605 0.104736 -0.011878
C121  C     C_R   0.205081 0.771885 0.670262 0.546153
C122  C     C_R   0.617884 0.648198 0.895172 -0.012249
C123  C     C_R   0.136626 0.829727 0.806960 -0.137210
C124  C     C_R   0.863391 0.170272 0.193048 -0.136725
C125  C     C_R   0.863617 0.829390 0.192948 -0.134980
C126  C     C_R   0.136380 0.170630 0.807065 -0.136467
C127  C     C_R   0.636639 0.329765 0.806921 -0.135400
C128  C     C_R   0.363430 0.670331 0.193035 -0.135083
C129  C     C_R   0.363633 0.329342 0.192924 -0.137285
C130  C     C_R   0.636443 0.670555 0.807035 -0.137116
C131  C     C_R   0.182814 0.787990 0.765650 -0.011433
C132  C     C_R   0.204992 0.228281 0.670339 0.558287
C133  C     C_R   0.817284 0.212168 0.234286 -0.011581
C134  C     C_R   0.817720 0.786995 0.233939 -0.012412
C135  C     C_R   0.182333 0.212915 0.766020 -0.012096
C136  C     C_R   0.682755 0.287892 0.765634 -0.011884
C137  C     C_R   0.317382 0.712341 0.234259 -0.011870
C138  C     C_R   0.317672 0.287072 0.233978 -0.012131
C139  C     C_R   0.682470 0.712690 0.765916 -0.011796
C140  C     C_R   0.209980 0.766677 0.814013 -0.097871
C141  C     C_R   0.790282 0.233780 0.185777 -0.097895
C142  C     C_R   0.791301 0.764244 0.184841 -0.095204
C143  C     C_R   0.795019 0.771693 0.329653 0.565112
C144  C     C_R   0.208866 0.235465 0.815012 -0.095124
C145  C     C_R   0.709872 0.266421 0.813984 -0.094955
C146  C     C_R   0.290441 0.734122 0.185740 -0.094873
C147  C     C_R   0.291127 0.264539 0.184999 -0.095310
C148  C     C_R   0.709179 0.734940 0.814735 -0.099019
C149  C     C_R   0.196240 0.631803 0.528697 0.553174
C150  C     C_R   0.802971 0.368576 0.474541 0.553990
C151  C     C_R   0.799384 0.631108 0.486175 0.556538
C152  C     C_R   0.196859 0.368332 0.526546 0.555789
C153  C     C_R   0.700680 0.130948 0.513724 0.555217
C154  C     C_R   0.402586 0.000633 0.487155 0.026727
C155  C     C_R   0.299318 0.869052 0.486281 0.555057
C156  C     C_R   0.303339 0.131697 0.472543 0.551639
C157  C     C_R   0.696659 0.868302 0.527462 0.551958
C158  C     C_R   0.191675 0.788462 0.902667 -0.005042
C159  C     C_R   0.808640 0.212092 0.097067 -0.004896
C160  C     C_R   0.810337 0.784793 0.095508 -0.004398
C161  C     C_R   0.189892 0.214833 0.904299 -0.004597
C162  C     C_R   0.691758 0.288437 0.902481 -0.006240
C163  C     C_R   0.308655 0.712273 0.097146 -0.006286
C164  C     C_R   0.310095 0.285177 0.095717 -0.004560
Cu1   Cu    Cu3+1 0.209920 0.785290 0.495070 0.935908
Cu2   Cu    Cu3+1 0.504760 0.500000 0.075850 0.930654
Cu3   Cu    Cu3+1 0.995240 1.000000 0.924150 0.927771
Cu4   Cu    Cu3+1 0.004760 1.000000 0.075850 0.932490
Cu5   Cu    Cu3+1 0.790080 0.214710 0.504930 0.932409
Cu6   Cu    Cu3+1 0.790080 0.785290 0.504930 0.925816
Cu7   Cu    Cu3+1 0.209920 0.214710 0.495070 0.923059
Cu8   Cu    Cu3+1 0.709920 0.285290 0.495070 0.927919
Cu9   Cu    Cu3+1 0.290080 0.714710 0.504930 0.927395
Cu10  Cu    Cu3+1 0.290080 0.285290 0.504930 0.934666
Cu11  Cu    Cu3+1 0.709920 0.714710 0.495070 0.933751
Cu12  Cu    Cu3+1 0.495240 0.500000 0.924150 0.930549
H1    H     H_    0.502665 0.775573 0.629741 0.106718
H2    H     H_    0.730200 0.000151 0.533396 0.161601
H3    H     H_    0.772100 0.500458 0.462460 0.160679
H4    H     H_    0.229515 0.500061 0.532181 0.161167
H5    H     H_    0.586245 0.833315 0.603820 0.138755
H6    H     H_    0.413751 0.166681 0.396196 0.138393
H7    H     H_    0.355608 0.837790 0.582249 0.156233
H8    H     H_    0.644379 0.162211 0.417777 0.156399
H9    H     H_    0.091382 0.319268 0.568632 0.152563
H10   H     H_    0.856312 0.668206 0.579933 0.148210
H11   H     H_    0.910896 0.329037 0.423058 0.143533
H12   H     H_    0.497318 0.224435 0.370310 0.106676
H13   H     H_    0.087263 0.675493 0.599714 0.141901
H14   H     H_    0.154382 0.715635 0.056443 0.124106
H15   H     H_    0.846157 0.284518 0.942897 0.122964
H16   H     H_    0.771295 0.875516 0.017038 0.123623
H17   H     H_    0.228913 0.124003 0.982741 0.123776
H18   H     H_    0.654444 0.215783 0.056267 0.122357
H19   H     H_    0.345857 0.785408 0.943608 0.122458
H20   H     H_    0.271063 0.376009 0.017291 0.123307
H21   H     H_    0.729424 0.623433 0.982236 0.122675
H22   H     H_    0.131845 0.848531 0.011465 0.136466
H23   H     H_    0.417817 0.776983 0.621035 0.113543
H24   H     H_    0.868426 0.151930 0.988311 0.135677
H25   H     H_    0.869826 0.845929 0.987299 0.133822
H26   H     H_    0.130400 0.153711 0.012521 0.134713
H27   H     H_    0.632070 0.348730 0.011253 0.134440
H28   H     H_    0.368312 0.651922 0.988408 0.134461
H29   H     H_    0.369580 0.346308 0.987496 0.135576
H30   H     H_    0.630730 0.653215 0.012262 0.135756
H31   H     H_    0.116190 0.847085 0.769250 0.153320
H32   H     H_    0.883704 0.152688 0.230862 0.154088
H33   H     H_    0.883529 0.847742 0.231110 0.156211
H34   H     H_    0.582161 0.223030 0.379029 0.113829
H35   H     H_    0.116376 0.152441 0.768980 0.154271
H36   H     H_    0.616215 0.347179 0.769216 0.156007
H37   H     H_    0.383718 0.652671 0.230858 0.156045
H38   H     H_    0.383650 0.347510 0.230998 0.153490
H39   H     H_    0.616309 0.652592 0.769060 0.153648
H40   H     H_    0.246096 0.734493 0.782479 0.137442
H41   H     H_    0.754232 0.266095 0.217254 0.137489
H42   H     H_    0.754805 0.732752 0.216687 0.142072
H43   H     H_    0.245401 0.266874 0.783114 0.142103
H44   H     H_    0.745849 0.233972 0.782512 0.142557
H45   H     H_    0.042591 0.256596 0.504101 0.105743
H46   H     H_    0.254493 0.766631 0.217171 0.142794
H47   H     H_    0.254586 0.233141 0.216905 0.141338
H48   H     H_    0.745779 0.766217 0.782760 0.137120
H49   H     H_    0.922111 0.734374 0.605233 0.106160
H50   H     H_    0.971737 0.259794 0.457428 0.106302
H51   H     H_    0.007044 0.736628 0.614188 0.106994
H52   H     H_    0.269798 0.999848 0.466610 0.161606
N1    N     N_1   0.326374 0.867411 0.777540 -0.311774
N2    N     N_1   0.673742 0.133830 0.222477 -0.312252
N3    N     N_1   0.801776 0.588274 0.096821 -0.289936
N4    N     N_1   0.198742 0.411314 0.902724 -0.290847
N5    N     N_1   0.827866 0.363237 0.773873 -0.288637
N6    N     N_1   0.172951 0.636474 0.224942 -0.285002
N7    N     N_1   0.301229 0.088693 0.097307 -0.289788
N8    N     N_1   0.699016 0.910704 0.902402 -0.289755
O1    O     O_R   0.255040 0.869590 0.478480 -0.507425
O2    O     O_R   0.817950 0.203450 0.375560 -0.518719
O3    O     O_R   0.817950 0.796550 0.375560 -0.506696
O4    O     O_R   0.182050 0.203450 0.624440 -0.515938
O5    O     O_R   0.682050 0.296550 0.624440 -0.507227
O6    O     O_R   0.317950 0.703450 0.375560 -0.506847
O7    O     O_R   0.317950 0.296550 0.375560 -0.516924
O8    O     O_R   0.682050 0.703450 0.624440 -0.519351
O9    O     O_R   0.250530 0.763330 0.367210 -0.502120
O10   O     O_R   0.749470 0.236670 0.632790 -0.503329
O11   O     O_R   0.749470 0.763330 0.632790 -0.521976
O12   O     O_R   0.744960 0.130410 0.521520 -0.507398
O13   O     O_R   0.250530 0.236670 0.367210 -0.508121
O14   O     O_R   0.750530 0.263330 0.367210 -0.520464
O15   O     O_R   0.249470 0.736670 0.632790 -0.521146
O16   O     O_R   0.249470 0.263330 0.632790 -0.506363
O17   O     O_R   0.750530 0.736670 0.367210 -0.504436
O18   O     O_R   0.177260 0.690030 0.513710 -0.512685
O19   O     O_R   0.822740 0.309970 0.486290 -0.517043
O20   O     O_R   0.822740 0.690030 0.486290 -0.520466
O21   O     O_R   0.177260 0.309970 0.513710 -0.525608
O22   O     O_R   0.677260 0.190030 0.513710 -0.519949
O23   O     O_R   0.744960 0.869590 0.521520 -0.504978
O24   O     O_R   0.322740 0.809970 0.486290 -0.520086
O25   O     O_R   0.322740 0.190030 0.486290 -0.514969
O26   O     O_R   0.677260 0.809970 0.513710 -0.515027
O27   O     O_R   0.051640 0.926880 0.885090 -0.512491
O28   O     O_R   0.948360 0.073120 0.114910 -0.511967
O29   O     O_R   0.948360 0.926880 0.114910 -0.511007
O30   O     O_R   0.051640 0.073120 0.885090 -0.512106
O31   O     O_R   0.551640 0.426880 0.885090 -0.510643
O32   O     O_R   0.448360 0.573120 0.114910 -0.510484
O33   O     O_R   0.448360 0.426880 0.114910 -0.512640
O34   O     O_R   0.255040 0.130410 0.478480 -0.505100
O35   O     O_R   0.551640 0.573120 0.885090 -0.512823
O36   O     O_R   0.940620 0.926560 0.986760 -0.513748
O37   O     O_R   0.059380 0.073440 0.013240 -0.513156
O38   O     O_R   0.059380 0.926560 0.013240 -0.512245
O39   O     O_R   0.940620 0.073440 0.986760 -0.513059
O40   O     O_R   0.440620 0.426560 0.986760 -0.512401
O41   O     O_R   0.559380 0.573440 0.013240 -0.512485
O42   O     O_R   0.559380 0.426560 0.013240 -0.514085
O43   O     O_R   0.440620 0.573440 0.986760 -0.513919
O44   O     O_R   0.755040 0.369590 0.478480 -0.505156
O45   O     O_R   0.244960 0.630410 0.521520 -0.506031
O46   O     O_R   0.244960 0.369590 0.521520 -0.504423
O47   O     O_R   0.755040 0.630410 0.478480 -0.505636
O48   O     O_R   0.182050 0.796550 0.624440 -0.521021

loop_
_geom_bond_atom_site_label_1
_geom_bond_atom_site_label_2
_ccdc_geom_bond_type
C4    O36   A    
C15   C75   A    
C31   C42   A    
C14   C33   A    
C79   C87   A    
C19   C46   A    
C16   C31   A    
C124  C133  A    
C50   C59   A    
C147  C164  A    
Cu11  O26   S    
C121  O15   A    
C104  H16   S    
C49   C78   A    
Cu1   O18   S    
C71   N6    T    
C129  H38   S    
C131  C140  A    
C134  C143  S    
C13   C51   A    
C44   C53   A    
C113  C122  A    
C99   C138  S    
C121  O48   A    
C91   C100  A    
C117  C126  A    
C72   C94   S    
C119  C128  A    
C67   N3    T    
C29   H1    S    
C124  H32   S    
C58   C64   A    
C23   H49   S    
C109  C118  A    
C65   C87   S    
C66   C89   S    
C100  H20   S    
C21   H51   S    
C39   C154  A    
C143  O3    A    
C137  C146  A    
C127  C136  A    
C69   N4    T    
C112  C120  A    
C80   C159  S    
C4    O29   A    
Cu9   O15   S    
C82   C91   A    
C120  C129  A    
C60   C151  S    
C14   C76   A    
C111  H28   S    
C105  C158  A    
C36   C40   A    
C111  C163  A    
C8    O40   A    
Cu9   O24   S    
C81   C90   A    
Cu5   O2    S    
C5    O37   A    
C73   C95   S    
C35   C45   A    
C15   C30   A    
C16   C25   A    
C68   H8    S    
Cu1   O1    S    
C101  H15   S    
C71   C93   S    
C35   H5    S    
Cu7   O13   S    
C106  C115  A    
C52   C61   A    
C18   C38   A    
Cu3   O30   S    
C1    O9    A    
Cu2   O42   S    
C84   C93   A    
C86   C95   A    
C2    C40   A    
C5    C117  S    
C85   C164  S    
C149  O45   A    
C53   C153  S    
C46   H6    S    
C27   C29   A    
C48   C76   A    
C99   O13   A    
C79   C158  S    
C77   O5    A    
C112  H29   S    
C37   C40   A    
C126  H35   S    
C50   C74   A    
C38   C39   A    
C43   C52   A    
Cu9   O45   S    
C106  C159  A    
C153  O12   A    
C111  C119  A    
C53   C62   A    
C6    C114  S    
C73   N8    T    
C140  C158  A    
C20   C35   A    
C152  O21   A    
C141  C159  A    
C96   H19   S    
C2    C44   A    
C22   C25   A    
C11   O32   A    
C30   C41   A    
Cu5   O10   S    
C43   C154  A    
Cu4   O38   S    
C74   H9    S    
C81   C160  S    
Cu1   O48   S    
C78   H13   S    
C152  O46   A    
C2    C45   A    
C24   C50   A    
Cu11  O8    S    
C139  C148  A    
C34   C39   A    
C27   H23   S    
Cu3   O36   S    
C26   H34   S    
C125  H33   S    
C67   C90   S    
C70   N5    T    
C79   C102  A    
Cu3   O27   S    
C19   C28   A    
Cu4   O28   S    
C84   C163  S    
C114  C123  A    
Cu4   O37   S    
C83   C162  S    
C116  C125  A    
Cu2   O33   S    
C75   H10   S    
C118  C127  A    
C56   C150  S    
C1    C137  S    
C106  H24   S    
C98   H21   S    
C108  C117  A    
C45   C54   A    
C110  O2    A    
C22   H50   S    
C108  C161  A    
C65   N1    T    
C14   C22   A    
C132  O4    A    
C54   C157  S    
C150  O19   A    
C157  O23   A    
C145  H44   S    
C55   C61   A    
Cu5   O12   S    
C6    O38   A    
C107  C116  A    
C1    O6    A    
C43   C57   A    
C127  H36   S    
C143  O17   A    
Cu7   O34   S    
C51   C60   A    
C69   C91   S    
Cu12  O35   S    
C151  O20   A    
C125  C134  A    
Cu6   O3    S    
C144  C161  A    
C34   C37   A    
C24   C42   A    
Cu5   O19   S    
Cu4   O29   S    
C13   C41   A    
C107  C160  A    
C59   C152  S    
C110  O14   A    
C52   C155  S    
C8    C120  S    
C107  H25   S    
C109  C162  A    
C28   H12   S    
C146  H46   S    
C156  O34   A    
Cu7   O4    S    
C153  O22   A    
C77   O10   A    
C80   C89   A    
C141  H41   S    
Cu9   O6    S    
Cu6   O23   S    
C77   C136  S    
Cu2   O41   S    
C157  O26   A    
C9    O35   A    
C5    O30   A    
C3    C86   S    
C9    O41   A    
C112  C164  A    
C130  C139  A    
C11   O43   A    
Cu6   Cu11  S    
Cu10  O46   S    
Cu7   Cu10  S    
C61   H52   S    
Cu7   O21   S    
Cu3   Cu4   S    
C54   C62   A    
C97   H18   S    
C62   H2    S    
C134  C142  A    
C18   C57   A    
C9    C122  S    
C130  H39   S    
C76   H11   S    
C92   C101  A    
C105  H22   S    
C126  C135  A    
C21   C23   A    
C16   C74   A    
Cu6   O11   S    
Cu12  O43   S    
Cu8   O22   S    
C147  H47   S    
C46   C47   A    
C17   C68   A    
C115  C124  A    
C123  C131  A    
Cu2   Cu12  S    
C4    C116  S    
C70   C92   S    
C93   C102  A    
C88   O8    A    
C47   C154  A    
C133  C141  A    
C72   N7    T    
Cu6   O20   S    
C33   C41   A    
C36   C38   A    
Cu10  O25   S    
Cu10  O16   S    
Cu8   O14   S    
C102  H14   S    
C99   O7    A    
C86   C98   A    
C150  O44   A    
C156  O25   A    
C20   C36   A    
C155  O1    A    
C83   C97   A    
C32   C42   A    
C103  H17   S    
C11   C119  S    
C83   C92   A    
C59   C64   A    
C60   C63   A    
C17   C26   A    
C51   C75   A    
C7    O39   A    
C64   H4    S    
C145  C162  A    
Cu1   Cu9   S    
C63   H3    S    
C84   C96   A    
C7    C115  S    
C108  H26   S    
Cu12  O31   S    
C142  H42   S    
C129  C138  A    
C12   C78   A    
C82   C103  A    
C31   C33   A    
C25   H45   S    
C6    O27   A    
C136  C145  A    
C58   C149  S    
C128  H37   S    
C15   C23   A    
C3    C148  A    
C12   C32   A    
Cu11  O47   S    
C121  C131  S    
Cu12  O40   S    
Cu11  O17   S    
C20   C29   A    
C55   C156  S    
C10   O31   A    
C105  C114  A    
C109  H27   S    
Cu1   O9    S    
C144  H43   S    
C3    C113  A    
Cu3   O39   S    
C149  O18   A    
C12   C21   A    
C49   C58   A    
C89   C97   A    
C128  C137  A    
C88   C139  S    
C8    O33   A    
C10   C118  S    
C151  O47   A    
C85   C94   A    
C138  C147  A    
C87   C96   A    
C56   C63   A    
C123  H31   S    
C7    O28   A    
C17   C37   A    
C10   O42   A    
Cu8   O44   S    
Cu10  O7    S    
C135  C144  A    
Cu8   O5    S    
Cu5   Cu8   S    
C44   C68   A    
C57   H7    S    
C95   C104  A    
C132  O16   A    
C47   C55   A    
C24   C49   A    
C48   C56   A    
C18   C27   A    
C142  C160  A    
C19   C34   A    
C94   C103  A    
C13   C48   A    
C82   C161  S    
C146  C163  A    
C66   N2    T    
C26   C28   A    
C80   C101  A    
C113  H30   S    
C148  H48   S    
C85   C100  A    
C88   O11   A    
C30   C32   A    
C155  O24   A    
C132  C135  S    
C90   C98   A    
C140  H40   S    
Cu2   O32   S    
C110  C133  S    
C122  C130  A    
C81   C104  A    
