data_mof_unit_663.cif
_audit_creation_date              2012-12-10T20:49:48-0500
_audit_creation_method            fapswitch 2.2
_symmetry_space_group_name_H-M    P1
_symmetry_Int_Tables_number       1
_space_group_crystal_system       triclinic
_cell_length_a                    8.103116
_cell_length_b                    8.934644
_cell_length_c                    17.24296
_cell_angle_alpha                 90.015846
_cell_angle_beta                  85.425125
_cell_angle_gamma                 89.990691
_cell_volume                      1244.38627696

loop_
_atom_site_label
_atom_site_type_symbol
_atom_type_description
_atom_site_fract_x
_atom_site_fract_y
_atom_site_fract_z
_atom_type_partial_charge
C1    C     C_R   0.499994 0.782021 0.499994 0.939479
C2    C     C_R   0.396769 0.460420 0.226057 -0.299863
C3    C     C_R   0.605744 0.521844 0.853016 -0.158962
C4    C     C_R   0.394432 0.477552 0.146963 -0.158809
C5    C     C_R   0.470045 0.457167 0.895629 0.138491
C6    C     C_R   0.530158 0.542152 0.104335 0.138393
C7    C     C_R   0.334112 0.405227 0.858590 -0.274735
C8    C     C_R   0.666044 0.594215 0.141367 -0.274680
C9    C     C_R   0.329466 0.423986 0.778452 0.520755
C10   C     C_R   0.670608 0.575688 0.221518 0.520716
C11   C     C_2   0.467697 0.445401 0.979313 -0.212151
C12   C     C_R   0.500006 0.217979 0.500006 0.939461
C13   C     C_2   0.532536 0.553844 0.020651 -0.212124
C14   C     C_3   0.943112 0.550341 0.242292 -0.278552
C15   C     C_3   0.056791 0.449095 0.757910 -0.278680
C16   C     C_1   0.499990 0.934815 0.499997 -0.179018
C17   C     C_1   0.500010 0.065185 0.500003 -0.179010
C18   C     C_R   0.477731 0.498183 0.652364 0.904326
C19   C     C_R   0.522271 0.501795 0.347636 0.904307
C20   C     C_R   0.467012 0.489474 0.736199 -0.133023
C21   C     C_R   0.533020 0.510325 0.263797 -0.133096
C22   C     C_R   0.603312 0.539236 0.773945 -0.299882
H1    H     H_    0.592976 0.650552 0.992760 0.152822
H2    H     H_    0.040340 0.590881 0.278937 0.204868
H3    H     H_    0.991197 0.563910 0.180495 0.146728
H4    H     H_    0.959677 0.408950 0.721093 0.204900
H5    H     H_    0.078157 0.569818 0.744424 0.154081
H6    H     H_    0.008661 0.434645 0.819644 0.146918
H7    H     H_    0.407236 0.348702 0.007202 0.152804
H8    H     H_    0.231942 0.350992 0.891896 0.142351
H9    H     H_    0.768249 0.648374 0.108049 0.142433
H10   H     H_    0.285511 0.441783 0.119473 0.135064
H11   H     H_    0.714707 0.557513 0.880505 0.135053
H12   H     H_    0.709466 0.590224 0.742076 0.172902
H13   H     H_    0.290590 0.409512 0.257944 0.172864
H14   H     H_    0.921534 0.429822 0.256218 0.154318
N1    N     N_1   0.926360 0.500000 0.499990 -0.032940
N2    N     N_1   0.073640 0.500000 0.500010 -0.032923
O1    O     O_R   0.363150 0.714660 0.500000 -0.621291
O2    O     O_3   0.201108 0.363383 0.740333 -0.594819
O3    O     O_R   0.636850 0.285340 0.500000 -0.621316
O4    O     O_R   0.636850 0.714660 0.500000 -0.610125
O5    O     O_R   0.363150 0.285340 0.500000 -0.610126
O6    O     O_R   0.346950 0.500000 0.615800 -0.581799
O7    O     O_R   0.653050 0.500000 0.384200 -0.581943
O8    O     O_R   0.620700 0.500000 0.615800 -0.640698
O9    O     O_R   0.379300 0.500000 0.384200 -0.640709
O10   O     O_3   0.798950 0.636404 0.259601 -0.594854
Zn1   Zn    Zn3+2 0.317220 0.500000 0.500010 1.006077
Zn2   Zn    Zn3+2 0.682780 0.500000 0.499990 1.006015

loop_
_geom_bond_atom_site_label_1
_geom_bond_atom_site_label_2
_ccdc_geom_bond_type
C2    H13   S    
C12   C17   S    
C2    C4    A    
C19   O7    A    
N1    N2    T    
C18   O6    A    
C5    C7    A    
O8    Zn2   S    
C9    C20   A    
C15   H5    S    
C3    C5    A    
C2    C21   A    
O9    Zn1   S    
C1    C16   S    
C14   H3    S    
C6    C13   S    
C14   H14   S    
N1    Zn2   S    
C11   C13   D    
C11   H7    S    
C15   H6    S    
C4    H10   S    
O7    Zn2   S    
O4    Zn2   S    
C14   O10   S    
C18   O8    A    
C8    C10   A    
O1    Zn1   S    
C20   C22   A    
C5    C11   S    
C12   O5    A    
C18   C20   S    
C9    O2    S    
C10   C21   A    
C10   O10   S    
C22   H12   S    
C19   O9    A    
C15   O2    S    
C3    H11   S    
C7    C9    A    
C1    O4    A    
C13   H1    S    
C12   O3    A    
C4    C6    A    
C14   H2    S    
N2    Zn1   S    
O3    Zn2   S    
C1    O1    A    
O5    Zn1   S    
C15   H4    S    
C6    C8    A    
C19   C21   S    
C8    H9    S    
O6    Zn1   S    
C16   C17   T    
C3    C22   A    
C7    H8    S    
