data_mof_unit_2674.cif
_audit_creation_date              2012-12-10T20:31:00-0500
_audit_creation_method            fapswitch 2.2
_symmetry_space_group_name_H-M    P1
_symmetry_Int_Tables_number       1
_space_group_crystal_system       triclinic
_cell_length_a                    14.899499
_cell_length_b                    10.687248
_cell_length_c                    9.944394
_cell_angle_alpha                 89.523899
_cell_angle_beta                  91.824622
_cell_angle_gamma                 91.270173
_cell_volume                      1582.25442761

loop_
_atom_site_label
_atom_site_type_symbol
_atom_type_description
_atom_site_fract_x
_atom_site_fract_y
_atom_site_fract_z
_atom_type_partial_charge
C1    C     C_R   0.503023 0.260108 0.500409 0.919586
C2    C     C_R   0.910288 0.595789 0.560582 0.098407
C3    C     C_R   0.945086 0.296538 0.380718 -0.210202
C4    C     C_R   0.038229 0.295352 0.378449 -0.117954
C5    C     C_R   0.089972 0.393905 0.436127 0.038351
C6    C     C_R   0.046678 0.494735 0.496897 0.009288
C7    C     C_R   0.096695 0.595100 0.555634 0.134573
C8    C     C_R   0.053650 0.694244 0.615960 -0.157239
C9    C     C_R   0.960575 0.694653 0.618323 -0.178758
C10   C     C_R   0.183819 0.394498 0.435729 0.345497
C11   C     C_R   0.231684 0.495915 0.493800 -0.096137
C12   C     C_R   0.327233 0.498587 0.498062 0.969815
C13   C     C_R   0.189191 0.594719 0.553337 -0.235551
C14   C     C_R   0.528425 0.062839 0.620906 0.103657
C15   C     C_R   0.518449 0.128923 0.500255 -0.087068
C16   C     C_R   0.527360 0.066451 0.377743 -0.198233
C17   C     C_R   0.527651 0.937025 0.377005 -0.209233
C18   C     C_R   0.518939 0.871477 0.498762 -0.093574
C19   C     C_R   0.528259 0.935087 0.619931 0.157190
C20   C     C_3   0.474983 0.923396 0.744117 -0.431814
C21   C     C_3   0.475176 0.064894 0.745534 -0.477427
C22   C     C_R   0.425601 0.461803 0.068019 0.094145
C23   C     C_R   0.503232 0.739820 0.499473 0.881251
C24   C     C_R   0.569184 0.550184 0.077552 -0.189815
C25   C     C_R   0.570271 0.552573 0.935091 0.439018
C26   C     C_R   0.425077 0.461603 0.925851 0.070453
C27   C     C_3   0.381130 0.333985 0.924706 0.221768
C28   C     C_3   0.380571 0.337301 0.077306 -0.478244
C29   C     C_R   0.672846 0.499890 0.501608 0.895194
C30   C     C_R   0.817493 0.595992 0.561766 -0.154065
C31   C     C_R   0.768243 0.497024 0.504194 -0.038011
C32   C     C_R   0.809550 0.397671 0.443106 -0.249258
C33   C     C_R   0.902431 0.395731 0.440889 0.131693
C34   C     C_R   0.953210 0.495252 0.499639 0.085064
H1    H     H_    0.783661 0.674103 0.604443 0.179158
H2    H     H_    0.527675 0.889408 0.281256 0.183508
H3    H     H_    0.407076 0.880585 0.725101 0.208830
H4    H     H_    0.514252 0.882082 0.829754 0.227000
H5    H     H_    0.407185 0.103602 0.727515 0.252221
H6    H     H_    0.515301 0.104184 0.831964 0.197451
H7    H     H_    0.625187 0.586950 0.137729 0.214613
H8    H     H_    0.425440 0.262190 0.886502 0.084675
H9    H     H_    0.313070 0.344702 0.120229 0.264871
H10   H     H_    0.769194 0.322354 0.397929 0.143863
H11   H     H_    0.424093 0.265961 0.126404 0.194968
H12   H     H_    0.906396 0.219886 0.335406 0.160161
H13   H     H_    0.068837 0.217076 0.330782 0.210904
H14   H     H_    0.228669 0.671114 0.598208 0.151911
H15   H     H_    0.091977 0.771300 0.661134 0.163280
H16   H     H_    0.927938 0.771983 0.665162 0.163873
H17   H     H_    0.527309 0.116001 0.282280 0.171976
N1    N     N_R   0.499390 0.499140 0.142800 -0.130668
N2    N     N_R   0.499390 0.499180 0.857150 -0.189851
O1    O     O_R   0.500010 0.316790 0.614690 -0.624511
O2    O     O_R   0.500000 0.316760 0.385350 -0.618043
O3    O     O_R   0.367850 0.499990 0.614680 -0.564204
O4    O     O_R   0.367840 0.499950 0.385340 -0.606614
O5    O     O_R   0.500000 0.683240 0.614650 -0.576194
O6    O     O_R   0.499990 0.683210 0.385310 -0.632557
O7    O     O_R   0.632160 0.500050 0.614660 -0.520600
O8    O     O_R   0.632150 0.500010 0.385320 -0.642211
Zn1   Zn    Zn3+2 0.500010 0.500020 0.653130 1.051352
Zn2   Zn    Zn3+2 0.499990 0.499980 0.346870 0.971898
S1    S     S_3+6 0.670093 0.621544 0.871656 0.016855
O9    O     O_2   0.717984 0.696995 0.980302 -0.349672
O10   O     O_2   0.731701 0.519572 0.832411 -0.273361
O11   O     O_3   0.649605 0.718154 0.741051 -0.575196
H18   H     H_    0.686086 0.795079 0.759344 0.356555
S2    S     S_3+6 0.270275 0.329728 0.849139 0.054989
O12   O     O_2   0.274818 0.281260 0.708349 -0.254675
O13   O     O_2   0.210383 0.242910 0.927570 -0.267395
O14   O     O_3   0.226753 0.473638 0.845072 -0.526215
H19   H     H_    0.218627 0.495096 0.940577 0.352879
Cl1   Cl    Cl    0.242328 0.266009 0.372162 -0.618193

loop_
_geom_bond_atom_site_label_1
_geom_bond_atom_site_label_2
_ccdc_geom_bond_type
C24   N1    A    
C23   O5    A    
O5    Zn1   S    
C10   Cl1   S    
C19   C20   S    
C16   H17   S    
C7    C8    A    
C23   O6    A    
C26   C27   S    
C30   H1    S    
C14   C21   S    
C25   N2    A    
C5    C6    A    
C3    C33   A    
C15   C16   A    
C8    C9    A    
O7    Zn1   S    
C18   C19   A    
S2    O13   D    
C16   C17   A    
O2    Zn2   S    
C1    C15   S    
C17   H2    S    
C27   S2    S    
C2    C34   A    
C22   C28   S    
C24   H7    S    
O11   H18   S    
O4    Zn2   S    
C29   O8    A    
C28   H11   S    
C18   C23   S    
S1    O11   S    
C24   C25   A    
C4    C5    A    
O1    Zn1   S    
C6    C34   A    
C25   S1    S    
S1    O10   D    
S2    O14   S    
C1    O1    A    
C20   H4    S    
N2    Zn1   S    
C31   C32   A    
C21   H5    S    
C29   O7    A    
O8    Zn2   S    
C17   C18   A    
C32   H10   S    
C12   O3    A    
C12   O4    A    
O3    Zn1   S    
C3    C4    A    
C26   N2    A    
C22   N1    A    
C3    H12   S    
C14   C19   A    
C9    H16   S    
O14   H19   S    
N1    Zn2   S    
C13   H14   S    
C11   C12   S    
C6    C7    A    
C28   H9    S    
O6    Zn2   S    
C2    C30   A    
S1    O9    D    
C1    O2    A    
C5    C10   A    
C29   C31   S    
C32   C33   A    
C20   H3    S    
C11   C13   A    
C27   H8    S    
C30   C31   A    
C21   H6    S    
C33   C34   A    
S2    O12   D    
C10   C11   A    
C7    C13   A    
C20   C21   S    
C22   C26   A    
C27   C28   S    
C14   C15   A    
C2    C9    A    
C8    H15   S    
C4    H13   S    
