data_mof_unit_4826.cif
_audit_creation_date              2012-12-11T14:29:31-0500
_audit_creation_method            fapswitch 2.2
_symmetry_space_group_name_H-M    P1
_symmetry_Int_Tables_number       1
_space_group_crystal_system       triclinic
_cell_length_a                    6.939787
_cell_length_b                    14.728596
_cell_length_c                    16.2585
_cell_angle_alpha                 90.418811
_cell_angle_beta                  90.039272
_cell_angle_gamma                 90.004567
_cell_volume                      1661.79045512

loop_
_atom_site_label
_atom_site_type_symbol
_atom_type_description
_atom_site_fract_x
_atom_site_fract_y
_atom_site_fract_z
_atom_type_partial_charge
O1    O     O_R   0.494400 0.416610 0.413880 -0.536507
O2    O     O_R   0.823920 0.406790 0.585520 -0.542217
O3    O     O_R   0.994250 0.583390 0.586120 -0.540032
C1    C     C_R   0.654720 0.385150 0.613603 0.744421
O4    O     O_R   0.824110 0.405730 0.414490 -0.540417
O5    O     O_R   0.994440 0.582310 0.413870 -0.542549
C2    C     C_R   0.654685 0.382973 0.387131 0.761093
O6    O     O_R   0.494210 0.417690 0.586130 -0.546160
O7    O     O_3   0.660810 0.557940 0.500000 -0.372511
V1    V     V_3+5 0.935650 0.489250 0.500000 1.473761
O8    O     O_R   0.324160 0.593210 0.414480 -0.541067
C3    C     C_R   0.155412 0.615025 0.386376 0.744842
O9    O     O_R   0.323970 0.594270 0.585510 -0.541155
C4    C     C_R   0.155154 0.616304 0.613764 0.680921
V2    V     V_3+5 0.435660 0.510750 0.500000 1.476965
O10   O     O_3   0.160630 0.442060 0.500000 -0.372079
C5    C     C_R   0.296068 0.573704 0.776031 -0.371906
C6    C     C_R   0.362030 0.549189 0.853485 0.524591
C7    C     C_R   0.345878 0.609441 0.919119 0.567887
C8    C     C_R   0.264910 0.695165 0.907919 0.416175
C9    C     C_R   0.200684 0.723438 0.828901 -0.137663
C10   C     C_R   0.215182 0.660449 0.761856 -0.076714
C11   C     C_R   0.119389 0.811104 0.815635 -0.052609
C12   C     C_R   0.050018 0.834102 0.736169 -0.024412
C13   C     C_R   0.062335 0.770378 0.669991 -0.005018
C14   C     C_R   0.145310 0.683653 0.682664 -0.015909
C15   C     C_R   0.970598 0.920958 0.720613 -0.370495
C16   C     C_R   0.903100 0.943873 0.642752 0.606809
C17   C     C_R   0.914884 0.881564 0.578327 0.618086
C18   C     C_R   0.994380 0.796007 0.591374 -0.348724
H1    H     H_    0.308197 0.523274 0.727657 0.178791
C19   C     C_2   0.985289 0.710050 0.283225 -0.075904
C20   C     C_2   0.150270 0.682811 0.319556 -0.268086
H2    H     H_    0.287929 0.710119 0.300590 0.136669
C21   C     C_2   0.973010 0.777548 0.215261 -0.092624
C22   C     C_2   0.126211 0.814933 0.177475 -0.226810
H3    H     H_    0.271317 0.796703 0.195394 0.135500
C23   C     C_2   0.779279 0.207727 0.781190 -0.047187
C24   C     C_2   0.614124 0.179618 0.816621 -0.233647
H4    H     H_    0.476145 0.206186 0.797229 0.135190
C25   C     C_2   0.791368 0.276108 0.714133 -0.059307
C26   C     C_2   0.638288 0.317804 0.680155 -0.242135
H5    H     H_    0.493503 0.303024 0.700797 0.138421
C27   C     C_2   0.776077 0.205934 0.217704 0.518814
C28   C     C_2   0.615727 0.186880 0.173011 0.348544
C29   C     C_2   0.788691 0.280076 0.280244 -0.126926
C30   C     C_2   0.637784 0.311053 0.324010 -0.311857
H6    H     H_    0.495787 0.281940 0.315554 0.213927
O11   O     O_R   0.770210 0.079270 0.910680 -0.554111
O12   O     O_R   0.440150 0.091160 0.082270 -0.508871
O13   O     O_R   0.269970 0.914530 0.082860 -0.527638
C31   C     C_R   0.609133 0.113858 0.110012 0.704808
O14   O     O_R   0.440480 0.090100 0.911240 -0.550388
O15   O     O_R   0.270310 0.913460 0.910610 -0.526888
C32   C     C_R   0.609130 0.111738 0.883111 0.720782
O16   O     O_R   0.769870 0.080340 0.082930 -0.526701
O17   O     O_3   0.603660 0.938980 0.996790 -0.372397
V3    V     V_3+5 0.328750 0.007610 0.996740 1.602004
O18   O     O_R   0.940600 0.902510 0.911180 -0.551073
C33   C     C_R   0.109543 0.879830 0.883425 0.790289
O19   O     O_R   0.940270 0.903570 0.082200 -0.545558
C34   C     C_R   0.109486 0.882243 0.110660 0.852546
V4    V     V_3+5 0.828770 0.986010 0.996670 1.545518
O20   O     O_3   0.103730 0.054750 0.996710 -0.367144
F1    F     F_    0.850542 0.904270 0.502416 -0.633408
H7    H     H_    0.829040 0.796458 0.195530 0.140739
H8    H     H_    0.915307 0.179503 0.801972 0.130022
H9    H     H_    0.934927 0.292246 0.692047 0.134287
F2    F     F_    0.940780 0.157930 0.204348 -0.659442
F3    F     F_    0.453972 0.238258 0.181295 -0.662147
H10   H     H_    0.931491 0.306779 0.293263 0.179192
F4    F     F_    0.439444 0.465674 0.865074 -0.627544
F5    F     F_    0.406924 0.584215 0.994888 -0.584531
F6    F     F_    0.246072 0.748111 0.975940 -0.666288
H11   H     H_    0.960552 0.972514 0.768104 0.150398
F7    F     F_    0.827147 0.027418 0.629775 -0.648039
H12   H     H_    0.003299 0.750645 0.538895 0.159966
H13   H     H_    0.849272 0.682131 0.304273 0.142838

loop_
_geom_bond_atom_site_label_1
_geom_bond_atom_site_label_2
_ccdc_geom_bond_type
O11   V4    S    
C25   C26   D    
C21   C22   D    
C12   C15   A    
C1    O6    A    
O15   C33   A    
C22   H3    S    
O5    C3    A    
C23   C24   D    
C22   C34   S    
V2    O10   S    
C6    C7    A    
O19   V4    S    
C18   H12   S    
O8    V2    S    
C24   C32   S    
C7    C8    A    
O12   C31   A    
C11   C12   A    
O17   V4    S    
O1    V2    S    
O7    V1    S    
O18   C33   A    
O9    C4    A    
C6    F4    S    
O13   C34   A    
C15   H11   S    
C27   C29   S    
C20   H2    S    
C25   H9    S    
O14   C32   A    
V3    O20   S    
C11   C33   S    
O12   V3    S    
C19   C21   S    
C7    F5    S    
C12   C13   A    
C23   C25   S    
C24   H4    S    
O4    C2    A    
C28   C31   S    
C13   C14   A    
O11   C32   A    
C2    C30   S    
O2    C1    A    
C17   C18   A    
C30   H6    S    
O8    C3    A    
C5    C6    A    
O16   V4    S    
C8    F6    S    
C27   F2    S    
O13   V3    S    
C4    C14   S    
C29   H10   S    
O3    C4    A    
C17   F1    S    
O6    V2    S    
O9    V2    S    
C5    H1    S    
C26   H5    S    
C16   F7    S    
C27   C28   D    
O15   V3    S    
C13   C18   A    
C29   C30   D    
C16   C17   A    
C28   F3    S    
O1    C2    A    
O5    V1    S    
C23   H8    S    
O14   V3    S    
O18   V4    S    
C5    C10   A    
C21   H7    S    
C19   C20   D    
C9    C11   A    
O7    V2    S    
O4    V1    S    
O3    V1    S    
V1    O10   S    
O17   V3    S    
C1    C26   S    
O19   C34   A    
C19   H13   S    
V4    O20   S    
C8    C9    A    
C10   C14   A    
C15   C16   A    
C3    C20   S    
C9    C10   A    
C31   O16   A    
O2    V1    S    
