data_mof_unit_4533.cif
_audit_creation_date              2012-12-10T18:36:27-0500
_audit_creation_method            fapswitch 2.2
_symmetry_space_group_name_H-M    P1
_symmetry_Int_Tables_number       1
_space_group_crystal_system       triclinic
_cell_length_a                    13.85118
_cell_length_b                    15.107814
_cell_length_c                    15.840518
_cell_angle_alpha                 90.091631
_cell_angle_beta                  70.102037
_cell_angle_gamma                 89.403815
_cell_volume                      3116.69511789

loop_
_atom_site_label
_atom_site_type_symbol
_atom_type_description
_atom_site_fract_x
_atom_site_fract_y
_atom_site_fract_z
_atom_type_partial_charge
C1    C     C_R   0.499884 0.670263 0.498488 0.797524
C2    C     C_R   0.501384 0.329819 0.498065 0.800453
C3    C     C_R   0.379827 0.457435 0.093805 -0.231552
C4    C     C_R   0.625223 0.477681 0.903512 -0.232304
C5    C     C_R   0.308636 0.454186 0.050048 -0.228627
C6    C     C_R   0.696559 0.480969 0.947100 -0.230355
C7    C     C_R   0.445610 0.910132 0.460042 -0.241193
C8    C     C_R   0.582980 0.089776 0.453896 -0.238969
C9    C     C_R   0.446512 0.817941 0.452324 0.084999
C10   C     C_R   0.587286 0.181858 0.445979 0.091256
C11   C     C_R   0.497831 0.767214 0.499973 -0.093734
C12   C     C_R   0.502061 0.233065 0.499711 -0.090770
C13   C     C_R   0.547289 0.809863 0.552463 -0.220298
C14   C     C_R   0.415157 0.191200 0.558375 -0.221863
C15   C     C_R   0.546154 0.902015 0.559442 0.198153
C16   C     C_R   0.411431 0.099092 0.565519 0.198615
C17   C     C_R   0.494604 0.951897 0.512753 0.081679
C18   C     C_R   0.496428 0.048626 0.512690 0.079885
C19   C     C_R   0.920037 0.461031 0.428936 -0.282510
C20   C     C_R   0.090522 0.567767 0.542728 -0.283793
C21   C     C_R   0.817722 0.461131 0.430897 0.069262
C22   C     C_R   0.192021 0.565979 0.542825 0.063772
C23   C     C_R   0.437817 0.499271 0.672400 0.818341
C24   C     C_R   0.562199 0.499572 0.327605 0.796113
C25   C     C_R   0.763793 0.539366 0.568533 0.085479
C26   C     C_R   0.227142 0.434504 0.456397 0.078545
C27   C     C_R   0.864729 0.539542 0.569899 -0.287392
C28   C     C_R   0.125910 0.433091 0.455735 -0.288264
C29   C     C_R   0.945636 0.500315 0.499298 0.135205
C30   C     C_R   0.055031 0.500427 0.499179 0.133980
C31   C     C_R   0.401019 0.492284 0.770776 -0.104529
C32   C     C_R   0.599351 0.495749 0.229018 -0.091892
C33   C     C_R   0.264843 0.466087 0.912805 0.189461
C34   C     C_R   0.738183 0.493289 0.085308 0.183634
C35   C     C_R   0.297563 0.477982 0.819661 -0.193277
C36   C     C_R   0.703954 0.499113 0.179127 -0.197670
C37   C     C_R   0.472291 0.495514 0.815117 -0.257474
C38   C     C_R   0.528152 0.487008 0.185130 -0.274465
C39   C     C_R   0.444147 0.479138 0.907491 0.049705
C40   C     C_R   0.558583 0.480310 0.091321 0.044275
C41   C     C_R   0.338392 0.466446 0.957235 0.146257
C42   C     C_R   0.665249 0.484817 0.040808 0.145560
C43   C     C_R   0.518494 0.477020 0.951601 0.083844
C44   C     C_R   0.485209 0.471944 0.046664 0.084031
Cu1   Cu    Cu3+1 0.403570 0.500010 0.500000 0.925906
Cu2   Cu    Cu3+1 0.596430 0.499990 0.500000 0.933065
H1    H     H_    0.229441 0.442607 0.090518 0.155938
H2    H     H_    0.776895 0.481695 0.905869 0.158097
H3    H     H_    0.978508 0.431331 0.371747 0.124027
H4    H     H_    0.041021 0.622476 0.575736 0.127491
H5    H     H_    0.799735 0.430414 0.376458 0.110164
H6    H     H_    0.217498 0.617961 0.577035 0.119398
H7    H     H_    0.703408 0.570904 0.622911 0.112938
H8    H     H_    0.280449 0.382610 0.422005 0.121081
H9    H     H_    0.878407 0.569443 0.626816 0.124841
H10   H     H_    0.103512 0.378626 0.422302 0.126556
H11   H     H_    0.448424 0.488324 0.226111 0.163088
H12   H     H_    0.549746 0.512566 0.775819 0.151616
H13   H     H_    0.759130 0.505890 0.213439 0.153144
H14   H     H_    0.242253 0.475665 0.785082 0.157972
H15   H     H_    0.349302 0.445408 0.164913 0.139390
H16   H     H_    0.657055 0.473073 0.831407 0.142867
H17   H     H_    0.408357 0.950412 0.423212 0.139422
H18   H     H_    0.646407 0.049121 0.412315 0.140844
H19   H     H_    0.585879 0.770863 0.589121 0.150015
H20   H     H_    0.350459 0.230806 0.599527 0.153733
N1    N     N_R   0.741310 0.499980 0.500000 -0.166230
N2    N     N_R   0.258690 0.500020 0.500000 -0.169323
O1    O     O_R   0.418570 0.628550 0.499990 -0.590631
O2    O     O_R   0.581430 0.371450 0.500010 -0.577453
O3    O     O_R   0.581440 0.628540 0.499990 -0.580575
O4    O     O_R   0.418560 0.371460 0.500010 -0.592892
O5    O     O_R   0.372890 0.500010 0.629830 -0.583120
O6    O     O_R   0.627110 0.499990 0.370170 -0.592078
O7    O     O_R   0.535760 0.500000 0.629840 -0.592756
O8    O     O_R   0.464240 0.500000 0.370160 -0.586243
C45   C     C_3   0.151837 0.452548 0.962671 -0.915411
H21   H     H_    0.106167 0.454613 0.917046 0.237301
H22   H     H_    0.139922 0.386991 0.996002 0.233637
H23   H     H_    0.121856 0.505606 0.013793 0.234645
C46   C     C_3   0.852259 0.496271 0.034731 -0.917802
H24   H     H_    0.897176 0.502627 0.080646 0.236054
H25   H     H_    0.877796 0.434309 0.995272 0.235340
H26   H     H_    0.870191 0.554018 0.988953 0.235649
C47   C     C_3   0.396022 0.777731 0.390071 -0.400212
C48   C     C_3   0.476177 0.740437 0.304293 -0.324667
C49   C     C_3   0.424960 0.701116 0.241611 -0.826404
H27   H     H_    0.374740 0.645422 0.274924 0.259227
H28   H     H_    0.378258 0.752367 0.222480 0.246924
H29   H     H_    0.484698 0.675956 0.179625 0.249323
H30   H     H_    0.528028 0.794365 0.268630 0.214515
H31   H     H_    0.523606 0.688231 0.320883 0.213024
H32   H     H_    0.340100 0.726531 0.425148 0.218963
H33   H     H_    0.349864 0.828934 0.369950 0.184039
C50   C     C_3   0.680658 0.221431 0.375988 -0.409801
C51   C     C_3   0.654995 0.253362 0.294140 -0.338129
C52   C     C_3   0.751147 0.283636 0.219321 -0.836139
H34   H     H_    0.730205 0.306069 0.161043 0.255612
H35   H     H_    0.787189 0.339290 0.243028 0.245827
H36   H     H_    0.807449 0.228152 0.196994 0.247077
H37   H     H_    0.619995 0.198497 0.268043 0.219673
H38   H     H_    0.598875 0.309135 0.313434 0.209733
H39   H     H_    0.712755 0.275738 0.404968 0.213471
H40   H     H_    0.743199 0.170837 0.352893 0.189654
C53   C     C_3   0.599144 0.946124 0.616784 -0.878355
H41   H     H_    0.661523 0.988931 0.574539 0.235223
H42   H     H_    0.542933 0.987283 0.669337 0.237845
H43   H     H_    0.633559 0.896939 0.650587 0.226012
C54   C     C_3   0.317592 0.055667 0.629456 -0.880131
H44   H     H_    0.282135 0.012480 0.591615 0.233062
H45   H     H_    0.339573 0.015007 0.678525 0.237258
H46   H     H_    0.259086 0.105267 0.667389 0.228571

loop_
_geom_bond_atom_site_label_1
_geom_bond_atom_site_label_2
_ccdc_geom_bond_type
C49   H27   S    
C51   H38   S    
C27   C29   A    
C50   C51   S    
C34   C42   A    
C21   H5    S    
C36   H13   S    
C2    C12   S    
C46   H26   S    
C52   H34   S    
C28   H10   S    
C39   C41   A    
C20   C30   A    
C45   H21   S    
C53   H42   S    
C1    O3    A    
C6    H2    S    
Cu1   O8    S    
C32   C36   A    
C19   C21   A    
C25   H7    S    
C48   H30   S    
C54   H45   S    
C27   H9    S    
C4    H16   S    
Cu1   O5    S    
C20   H4    S    
C9    C47   S    
C47   H32   S    
C7    C17   A    
C25   N1    A    
C34   C46   S    
C32   C38   A    
C37   H12   S    
C45   H22   S    
C51   H37   S    
C21   N1    A    
Cu1   O4    S    
C23   O5    A    
C2    O4    A    
C26   H8    S    
Cu2   O7    S    
C52   H35   S    
C50   H39   S    
C16   C54   S    
C46   H24   S    
C3    H15   S    
C53   H43   S    
C3    C44   A    
Cu1   O1    S    
C4    C6    A    
C54   H46   S    
C23   O7    A    
C48   C49   S    
C24   O8    A    
C39   C43   A    
C47   C48   S    
C1    O1    A    
C31   C37   A    
C35   H14   S    
C23   C31   S    
C43   C44   A    
C24   C32   S    
C29   C30   S    
C38   H11   S    
C5    H1    S    
C47   H33   S    
C19   H3    S    
C22   N2    A    
C51   C52   S    
Cu1   N2    S    
C17   C18   S    
C14   H20   S    
C9    C11   A    
C7    H17   S    
Cu2   O3    S    
C10   C12   A    
C8    H18   S    
C8    C10   A    
C12   C14   A    
C13   C15   A    
C14   C16   A    
C19   C29   A    
Cu2   O6    S    
C52   H36   S    
C50   H40   S    
C22   H6    S    
C45   H23   S    
C7    C9    A    
C5    C41   A    
C20   C22   A    
C3    C5    A    
C46   H25   S    
C24   O6    A    
C15   C17   A    
C4    C43   A    
C25   C27   A    
C53   H41   S    
C26   C28   A    
C26   N2    A    
C15   C53   S    
C28   C30   A    
C33   C41   A    
Cu2   N1    S    
C37   C39   A    
C48   H31   S    
C54   H44   S    
C38   C40   A    
C11   C13   A    
C33   C45   S    
C10   C50   S    
C31   C35   A    
C40   C42   A    
C33   C35   A    
C34   C36   A    
C13   H19   S    
C8    C18   A    
Cu2   O2    S    
Cu1   Cu2   S    
C40   C44   A    
C16   C18   A    
C6    C42   A    
C49   H29   S    
C49   H28   S    
C1    C11   S    
C2    O2    A    
