data_mof_unit_409.cif
_audit_creation_date              2012-12-11T16:04:53-0500
_audit_creation_method            fapswitch 2.2
_symmetry_space_group_name_H-M    P1
_symmetry_Int_Tables_number       1
_space_group_crystal_system       triclinic
_cell_length_a                    10.659419
_cell_length_b                    10.675189
_cell_length_c                    16.91487
_cell_angle_alpha                 98.656348
_cell_angle_beta                  98.881835
_cell_angle_gamma                 61.420033
_cell_volume                      1663.43628674

loop_
_atom_site_label
_atom_site_type_symbol
_atom_type_description
_atom_site_fract_x
_atom_site_fract_y
_atom_site_fract_z
_atom_type_partial_charge
C1    C     C_R   0.353567 0.777731 0.400046 0.572520
C2    C     C_3   0.730217 0.297856 0.249169 -0.080683
C3    C     C_3   0.806964 0.354042 0.318833 0.016183
C4    C     C_3   0.952878 0.259587 0.287500 -0.089150
C5    C     C_3   0.926043 0.383211 0.239455 -0.194478
C6    C     C_3   0.779204 0.478641 0.271706 -0.141276
C7    C     C_3   0.704754 0.421212 0.200640 -0.199397
C8    C     C_3   0.850600 0.326653 0.169372 0.045212
C9    C     C_3   0.465156 0.768286 0.218665 -0.192602
C10   C     C_3   0.391474 0.694578 0.252318 -0.173949
C11   C     C_3   0.345249 0.816238 0.321102 0.013456
C12   C     C_R   0.367180 0.343587 0.359948 0.534682
C13   C     C_3   0.420000 0.887992 0.289175 -0.185855
C14   C     C_3   0.276453 0.978041 0.239914 -0.125530
C15   C     C_3   0.204469 0.904572 0.273324 0.407482
C16   C     C_3   0.249255 0.785974 0.205170 0.314734
C17   C     C_3   0.322524 0.856656 0.171098 0.037089
C18   C     C_3   0.459688 0.270049 0.777373 -0.111648
C19   C     C_3   0.389817 0.409735 0.735488 -0.105920
C20   C     C_3   0.337396 0.334122 0.663470 0.053958
C21   C     C_3   0.407292 0.195267 0.704737 -0.108991
C22   C     C_3   0.264588 0.247111 0.740959 -0.116501
C23   C     C_R   0.773735 0.378446 0.400774 0.559848
C24   C     C_3   0.194844 0.386926 0.698537 -0.126841
C25   C     C_3   0.247073 0.461475 0.772132 -0.118583
C26   C     C_3   0.317858 0.322007 0.812909 0.051178
C27   C     C_1   0.846089 0.329168 0.705923 -0.047160
C28   C     C_1   0.892215 0.295511 0.773206 -0.047281
C29   C     C_1   0.338363 0.812195 0.709788 -0.046537
C30   C     C_1   0.313309 0.839241 0.778540 -0.045305
C31   C     C_R   0.892019 0.310691 0.090320 0.558558
C32   C     C_R   0.292524 0.262259 0.122824 0.561795
C33   C     C_R   0.294422 0.891469 0.088876 0.560504
C34   C     C_R   0.356584 0.771641 0.627191 0.544980
C35   C     C_R   0.941831 0.276220 0.856074 0.551675
C36   C     C_R   0.308222 0.294379 0.892029 0.554192
C37   C     C_R   0.280156 0.884593 0.859061 0.536335
C38   C     C_R   0.367121 0.345750 0.585292 0.539560
C39   C     C_R   0.778523 0.377530 0.628791 0.544027
C40   C     C_1   0.327194 0.317233 0.277948 -0.083584
C41   C     C_1   0.307879 0.292805 0.207108 -0.079174
C42   C     C_3   0.876833 0.204447 0.216589 0.457314
Cr1   Cr    Cr6+3 0.608340 0.611040 0.520430 1.023437
Cr2   Cr    Cr6+3 0.287650 0.601120 0.489350 1.036724
Cr3   Cr    Cr6+3 0.604040 0.287870 0.490280 1.044685
Cr4   Cr    Cr6+3 0.054020 0.052700 0.970850 1.075208
Cr5   Cr    Cr6+3 0.059230 0.375120 0.993390 1.006777
Cr6   Cr    Cr6+3 0.374950 0.061200 0.992340 1.028400
H1    H     H_    0.650806 0.261417 0.255306 0.149841
H2    H     H_    0.228626 0.093100 0.231000 0.094554
H3    H     H_    0.441838 0.476839 0.731147 0.119993
H4    H     H_    0.567536 0.224278 0.811304 0.138570
H5    H     H_    0.470974 0.086344 0.675495 0.132612
H6    H     H_    0.212948 0.179734 0.745410 0.103232
H7    H     H_    0.087435 0.432620 0.664166 0.131937
H8    H     H_    0.183481 0.569887 0.801932 0.136937
H9    H     H_    0.051514 0.203462 0.327752 0.152667
H10   H     H_    0.006346 0.418792 0.234127 0.124502
H11   H     H_    0.742062 0.591378 0.297184 0.152901
H12   H     H_    0.607368 0.480102 0.160126 0.128990
H13   H     H_    0.434477 0.579732 0.261199 0.116701
H14   H     H_    0.568641 0.719958 0.191872 0.133365
H15   H     H_    0.489301 0.929784 0.326647 0.148995
O1    O     O_R   0.751220 0.499230 0.435170 -0.524275
O2    O     O_R   0.297880 0.469080 0.560050 -0.502170
O3    O     O_R   0.489720 0.254590 0.564810 -0.517111
O4    O     O_R   0.725220 0.304230 0.585080 -0.490894
O5    O     O_3   0.500010 0.500010 0.500020 -0.265848
O6    O     O_R   0.171830 0.913880 0.057510 -0.433437
O7    O     O_R   0.940690 0.186050 0.054730 -0.449029
O8    O     O_R   0.920470 0.405720 0.075010 -0.548381
O9    O     O_R   0.196690 0.370460 0.084120 -0.502122
O10   O     O_R   0.412990 0.180750 0.091610 -0.487874
O11   O     O_R   0.366620 0.943130 0.065760 -0.529349
O12   O     O_R   0.477220 0.727600 0.436870 -0.511943
O13   O     O_R   0.160510 0.906330 0.879210 -0.517203
O14   O     O_R   0.930190 0.179050 0.889450 -0.495073
O15   O     O_R   0.909140 0.398170 0.896710 -0.502169
O16   O     O_R   0.186190 0.363460 0.918830 -0.508599
O17   O     O_R   0.401670 0.173200 0.913310 -0.508162
O18   O     O_R   0.356120 0.936130 0.900470 -0.497727
O19   O     O_3   0.162740 0.163010 0.985530 -0.310612
O20   O     O_R   0.258650 0.745120 0.411470 -0.482042
O21   O     O_R   0.297070 0.467240 0.395960 -0.509750
O22   O     O_R   0.488830 0.252610 0.387790 -0.509258
O23   O     O_R   0.724400 0.302390 0.420980 -0.485850
O24   O     O_R   0.752100 0.501210 0.612190 -0.509858
O25   O     O_R   0.478040 0.729440 0.600970 -0.497909
O26   O     O_R   0.259530 0.747110 0.588490 -0.504612
F1    F     F_    0.078276 0.965220 0.309624 -0.625345
O27   O     O_3   0.158539 0.739016 0.154808 -0.511960
C43   C     C_3   0.094027 0.688934 0.200281 0.035839
H16   H     H_    0.066675 0.749672 0.259803 0.202522
H17   H     H_    0.167676 0.575775 0.210268 0.130451
C44   C     C_3   0.955229 0.700823 0.153791 -0.311169
H18   H     H_    0.977048 0.639513 0.094049 0.187326
H19   H     H_    0.904698 0.658305 0.187644 0.088685
H20   H     H_    0.879221 0.814855 0.145095 0.202825
F2    F     F_    0.920049 0.065865 0.182257 -0.573780

loop_
_geom_bond_atom_site_label_1
_geom_bond_atom_site_label_2
_ccdc_geom_bond_type
C18   C21   S    
C3    C23   S    
C2    C7    S    
C1    C11   S    
C25   H8    S    
Cr5   O16   S    
C3    C6    S    
Cr4   O13   S    
C44   H20   S    
C18   H4    S    
C7    C8    S    
C32   O9    A    
C24   H7    S    
C12   O22   A    
Cr1   O25   S    
C8    C42   S    
C5    C6    S    
C15   C16   S    
Cr6   O18   S    
C12   O21   A    
C18   C19   S    
Cr5   O19   S    
C9    C13   S    
Cr4   O6    S    
Cr4   O19   S    
C11   C15   S    
C31   O7    A    
C19   C20   S    
C28   C35   S    
C27   C39   S    
Cr1   O5    S    
C23   O23   A    
C18   C26   S    
C4    H9    S    
Cr3   O4    S    
C32   C41   S    
C39   O24   A    
C9    C10   S    
C33   O6    A    
Cr2   O20   S    
C31   O8    A    
C21   C22   S    
C14   C17   S    
C37   O18   A    
Cr2   O2    S    
C17   C33   S    
Cr6   O10   S    
Cr1   O1    S    
Cr1   O12   S    
C9    H14   S    
C1    O12   A    
Cr6   O11   S    
C24   C25   S    
C22   H6    S    
C36   O17   A    
C32   O10   A    
C16   C17   S    
C25   C26   S    
C29   C34   S    
C35   O14   A    
C43   C44   S    
C30   C37   S    
Cr3   O3    S    
C12   C40   S    
Cr3   O22   S    
C29   C30   T    
C2    H1    S    
C5    C8    S    
C20   C38   S    
C13   H15   S    
C38   O2    A    
Cr3   O5    S    
C43   H17   S    
C34   O25   A    
Cr5   O8    S    
C5    H10   S    
C9    C17   S    
C23   O1    A    
C37   O13   A    
C22   C24   S    
Cr2   O5    S    
C10   H13   S    
C3    C4    S    
C7    H12   S    
O27   C43   S    
C26   C36   S    
C38   O3    A    
C40   C41   T    
C8    C31   S    
C39   O4    A    
C6    H11   S    
C4    C5    S    
Cr2   O21   S    
C36   O16   A    
Cr4   O14   S    
C44   H19   S    
C6    C7    S    
C1    O20   A    
C35   O15   A    
Cr1   O24   S    
Cr6   O17   S    
C2    C3    S    
C34   O26   A    
C10   C16   S    
C42   F2    S    
C15   F1    S    
C21   H5    S    
C11   C13   S    
C14   H2    S    
C4    C42   S    
C2    C42   S    
C43   H16   S    
Cr6   O19   S    
Cr3   O23   S    
C19   C25   S    
Cr5   O9    S    
Cr4   O7    S    
C10   C11   S    
C19   H3    S    
C33   O11   A    
C20   C21   S    
C16   O27   S    
C22   C26   S    
C44   H18   S    
C14   C15   S    
Cr5   O15   S    
C13   C14   S    
C20   C24   S    
Cr2   O26   S    
C27   C28   T    
