data_mof_unit_4610.cif
_audit_creation_date              2012-12-11T14:23:02-0500
_audit_creation_method            fapswitch 2.2
_symmetry_space_group_name_H-M    P1
_symmetry_Int_Tables_number       1
_space_group_crystal_system       triclinic
_cell_length_a                    11.128025
_cell_length_b                    11.106007
_cell_length_c                    18.848024
_cell_angle_alpha                 89.613665
_cell_angle_beta                  88.685763
_cell_angle_gamma                 60.870264
_cell_volume                      2034.20509713

loop_
_atom_site_label
_atom_site_type_symbol
_atom_type_description
_atom_site_fract_x
_atom_site_fract_y
_atom_site_fract_z
_atom_type_partial_charge
C1    C     C_R   0.293186 0.620181 0.615515 0.564579
C2    C     C_3   0.684986 0.538678 0.803182 -0.087328
C3    C     C_3   0.698387 0.671191 0.813274 0.086089
C4    C     C_3   0.664490 0.644011 0.677882 0.019447
C5    C     C_3   0.807124 0.628471 0.687517 -0.201036
C6    C     C_3   0.645622 0.536714 0.724803 0.095823
C7    C     C_R   0.699935 0.134186 0.817633 -0.013059
C8    C     C_R   0.810481 0.129689 0.775874 0.037552
C9    C     C_R   0.803546 0.128492 0.700073 0.072514
C10   C     C_R   0.582906 0.137806 0.709395 -0.175235
C11   C     C_R   0.588448 0.138101 0.781739 -0.161714
C12   C     C_R   0.649688 0.618263 0.602327 0.577216
C13   C     C_R   0.927503 0.125590 0.805896 -0.104464
C14   C     C_R   0.038657 0.108555 0.763101 -0.149607
C15   C     C_R   0.036203 0.095684 0.689919 -0.148078
C16   C     C_R   0.919874 0.105588 0.658385 -0.078947
C17   C     C_R   0.680121 0.150125 0.668173 0.019762
C18   C     C_R   0.213486 0.654985 0.842712 -0.020819
C19   C     C_R   0.252733 0.525246 0.811416 -0.018968
C20   C     C_R   0.269085 0.511098 0.735794 -0.028375
C21   C     C_R   0.260145 0.735052 0.731344 -0.188091
C22   C     C_R   0.230977 0.752587 0.803428 -0.182877
C23   C     C_R   0.630648 0.222767 0.600284 0.564488
C24   C     C_R   0.266022 0.412231 0.853369 0.286773
C25   C     C_R   0.254357 0.304810 0.821197 0.318981
C26   C     C_R   0.254536 0.298115 0.747630 -0.148798
C27   C     C_R   0.269483 0.394161 0.705638 -0.191340
C28   C     C_R   0.272988 0.619735 0.694706 -0.008606
C29   C     C_R   0.628126 0.669136 0.161730 -0.014172
C30   C     C_R   0.667474 0.535441 0.184879 -0.008736
C31   C     C_R   0.684681 0.505979 0.258642 -0.004579
C32   C     C_R   0.583724 0.748914 0.284311 -0.114145
C33   C     C_R   0.572732 0.777379 0.212133 0.208677
C34   C     C_R   0.231019 0.647721 0.399752 0.531152
C35   C     C_R   0.714870 0.426954 0.135233 -0.090174
C36   C     C_R   0.805628 0.294426 0.156310 -0.123968
C37   C     C_R   0.834332 0.267081 0.227587 -0.152046
C38   C     C_R   0.770215 0.368884 0.278332 -0.104309
C39   C     C_R   0.632594 0.615053 0.308962 -0.073429
C40   C     C_R   0.667745 0.083522 0.184795 0.057693
C41   C     C_R   0.535661 0.177983 0.210689 0.073218
C42   C     C_R   0.527992 0.242715 0.274914 -0.004717
C43   C     C_R   0.759526 0.066543 0.302089 -0.157867
C44   C     C_R   0.773741 0.021226 0.232574 -0.162180
C45   C     C_R   0.621044 0.592009 0.385894 0.530993
C46   C     C_R   0.409769 0.199703 0.181396 -0.072354
C47   C     C_R   0.291415 0.262170 0.222159 -0.027716
C48   C     C_R   0.287209 0.330221 0.283598 0.283759
C49   C     C_R   0.399824 0.348561 0.296282 -0.096872
C50   C     C_R   0.639358 0.183994 0.322079 0.026275
C51   C     C_R   0.073136 0.728952 0.194712 0.009569
C52   C     C_R   0.127340 0.811666 0.223191 0.015088
C53   C     C_R   0.200274 0.768454 0.284801 -0.018188
C54   C     C_R   0.078567 0.640804 0.312202 -0.116528
C55   C     C_R   0.031316 0.659810 0.243476 -0.032394
C56   C     C_R   0.615941 0.231199 0.395046 0.523359
C57   C     C_R   0.099730 0.942926 0.196410 -0.144340
C58   C     C_R   0.162399 0.013498 0.221859 -0.085728
C59   C     C_R   0.251701 0.959938 0.276826 0.266797
C60   C     C_R   0.279763 0.831507 0.303076 -0.090031
C61   C     C_R   0.175665 0.678606 0.329877 -0.017843
C62   C     C_R   0.706479 0.095669 0.893996 0.530576
C63   C     C_R   0.724757 0.688252 0.888636 0.556712
C64   C     C_R   0.123607 0.704319 0.907658 0.548048
C65   C     C_R   0.696959 0.044953 0.110596 0.558838
C66   C     C_R   0.690583 0.689082 0.095092 0.502341
C67   C     C_3   0.563150 0.797976 0.785378 -0.287605
C68   C     C_R   0.034812 0.743941 0.119722 0.527140
C69   C     C_3   0.558250 0.791023 0.703943 -0.303148
C70   C     C_3   0.826821 0.654913 0.766362 0.219309
Cr1   Cr    Cr6+3 0.392940 0.397950 0.502230 0.988596
Cr2   Cr    Cr6+3 0.398400 0.708500 0.501260 0.990372
Cr3   Cr    Cr6+3 0.708640 0.393530 0.496460 1.019303
Cr4   Cr    Cr6+3 0.937880 0.938320 0.007620 0.974448
Cr5   Cr    Cr6+3 0.625560 0.937220 0.994510 1.013302
Cr6   Cr    Cr6+3 0.938080 0.625010 0.001190 1.041902
H1    H     H_    0.552453 0.898662 0.800835 0.152492
H2    H     H_    0.888822 0.524390 0.670326 0.140466
H3    H     H_    0.496483 0.135884 0.685543 0.135513
H4    H     H_    0.934720 0.138395 0.861916 0.152220
H5    H     H_    0.507486 0.129336 0.809134 0.185986
H6    H     H_    0.128646 0.102350 0.787034 0.174482
H7    H     H_    0.124548 0.078855 0.657416 0.111409
H8    H     H_    0.922735 0.092361 0.601459 0.129763
H9    H     H_    0.259840 0.819917 0.703159 0.141434
H10   H     H_    0.470541 0.799227 0.809038 0.131147
H11   H     H_    0.209414 0.849853 0.826955 0.153968
H12   H     H_    0.249603 0.213391 0.722359 0.119277
H13   H     H_    0.273871 0.374280 0.650053 0.187422
H14   H     H_    0.552060 0.832847 0.321657 0.171049
H15   H     H_    0.697490 0.446718 0.079157 0.119160
H16   H     H_    0.862069 0.216843 0.116778 0.146004
H17   H     H_    0.906585 0.167026 0.245435 0.128336
H18   H     H_    0.452939 0.819367 0.688284 0.136132
H19   H     H_    0.802274 0.338032 0.331443 0.185646
H20   H     H_    0.843263 0.014478 0.338545 0.125472
H21   H     H_    0.397284 0.149707 0.135961 0.165856
H22   H     H_    0.866444 0.937988 0.215229 0.100607
H23   H     H_    0.208348 0.246630 0.208069 0.114716
H24   H     H_    0.396134 0.420807 0.333590 0.146628
H25   H     H_    0.039376 0.597271 0.352049 0.169991
H26   H     H_    0.018577 0.002027 0.160190 0.150245
H27   H     H_    0.581836 0.868701 0.679287 0.126299
H28   H     H_    0.131780 0.113678 0.200727 0.103338
H29   H     H_    0.358950 0.787553 0.340130 0.160455
H30   H     H_    0.817429 0.699618 0.649629 0.099199
H31   H     H_    0.787881 0.447592 0.811569 0.212481
H32   H     H_    0.535442 0.565577 0.722745 0.163476
O1    O     O_R   0.507340 0.255690 0.581430 -0.544733
O2    O     O_R   0.524510 0.695820 0.424050 -0.530466
O3    O     O_R   0.736370 0.504260 0.414810 -0.515475
O4    O     O_R   0.691220 0.277270 0.422180 -0.539886
O5    O     O_3   0.499990 0.499990 0.499980 -0.287583
O6    O     O_R   0.089570 0.825450 0.930590 -0.528665
O7    O     O_R   0.818700 0.054260 0.929860 -0.518251
O8    O     O_R   0.606310 0.077010 0.915520 -0.494253
O9    O     O_R   0.646730 0.806540 0.917560 -0.529399
O10   O     O_R   0.837290 0.593240 0.915240 -0.461009
O11   O     O_R   0.065320 0.635310 0.931580 -0.439161
O12   O     O_R   0.280360 0.527380 0.578910 -0.515027
O13   O     O_R   0.068470 0.828620 0.091850 -0.537133
O14   O     O_R   0.799150 0.057200 0.079350 -0.546247
O15   O     O_R   0.585220 0.080180 0.076770 -0.515226
O16   O     O_R   0.627170 0.809480 0.067050 -0.506984
O17   O     O_R   0.816200 0.596410 0.076500 -0.549180
O18   O     O_R   0.045770 0.638240 0.081070 -0.484887
O19   O     O_3   0.833840 0.833520 0.001110 -0.302187
O20   O     O_R   0.260600 0.739610 0.584580 -0.521837
O21   O     O_R   0.532370 0.695050 0.573830 -0.523973
O22   O     O_R   0.744850 0.503430 0.576380 -0.487184
O23   O     O_R   0.699080 0.276500 0.571950 -0.471494
O24   O     O_R   0.498860 0.256520 0.419860 -0.527440
O25   O     O_R   0.272490 0.528150 0.429140 -0.536302
O26   O     O_R   0.252110 0.740440 0.423010 -0.535134
O27   O     O_3   0.719327 0.403191 0.697426 -0.691728
H33   H     H_    0.818483 0.375003 0.698788 0.345142
O28   O     O_3   0.945405 0.538801 0.790640 -0.693427
H34   H     H_    0.022585 0.527743 0.759874 0.329686
O29   O     O_3   0.297021 0.400674 0.924558 -0.697296
H35   H     H_    0.339037 0.459253 0.934874 0.313382
O30   O     O_3   0.252255 0.199390 0.859497 -0.734163
H36   H     H_    0.244309 0.220913 0.910842 0.366245
O31   O     O_3   0.512022 0.912614 0.192589 -0.680678
H37   H     H_    0.450776 0.922994 0.152904 0.333074
O32   O     O_3   0.187223 0.353495 0.334263 -0.709592
H38   H     H_    0.221913 0.359930 0.381109 0.354989
C71   C     C_3   0.921806 0.624966 0.227109 -0.248674
C72   C     C_3   0.987271 0.477175 0.202227 -0.382020
H39   H     H_    0.919369 0.455168 0.171692 0.177960
H40   H     H_    0.075754 0.453272 0.165994 0.169191
H41   H     H_    0.012062 0.409571 0.248981 0.199593
H42   H     H_    0.857340 0.638804 0.275215 0.154168
H43   H     H_    0.853906 0.697376 0.187123 0.154816
O33   O     O_3   0.303012 0.037706 0.306944 -0.658890
H44   H     H_    0.339467 0.999186 0.354181 0.320481
C73   C     C_3   0.847449 0.783731 0.774268 -0.233868
C74   C     C_3   0.937273 0.800063 0.716680 -0.442481
H45   H     H_    0.015379 0.699784 0.694978 0.161195
H46   H     H_    0.873732 0.861228 0.671788 0.134025
H47   H     H_    0.987176 0.856000 0.738684 0.177607
H48   H     H_    0.748574 0.878430 0.773526 0.127498
H49   H     H_    0.891916 0.780801 0.826709 0.182176
C75   C     C_3   0.583234 0.520498 0.854788 -0.321518
C76   C     C_3   0.645706 0.453989 0.925624 -0.426254
H50   H     H_    0.748960 0.362627 0.917677 0.158991
H51   H     H_    0.652749 0.529309 0.960993 0.165493
H52   H     H_    0.578260 0.419563 0.952882 0.146137
H53   H     H_    0.488988 0.619471 0.865780 0.148224
H54   H     H_    0.550554 0.451185 0.829481 0.178684

loop_
_geom_bond_atom_site_label_1
_geom_bond_atom_site_label_2
_ccdc_geom_bond_type
Cr3   O23   S    
C8    C13   A    
Cr6   O18   S    
C41   C42   A    
C54   H25   S    
C35   C36   A    
C67   H1    S    
C1    O20   A    
O32   H38   S    
Cr3   O5    S    
O27   H33   S    
C33   O31   S    
C7    C11   A    
C57   H26   S    
C26   C27   A    
C29   C30   A    
C64   O11   A    
C12   O22   A    
C30   C35   A    
Cr2   O20   S    
Cr5   O15   S    
C76   H50   S    
C9    C16   A    
C72   H40   S    
C2    C3    S    
C30   C31   A    
C63   O9    A    
C34   O26   A    
C10   C17   A    
O31   H37   S    
Cr4   O6    S    
C29   C33   A    
C2    H31   S    
C16   H8    S    
C47   H23   S    
Cr1   O5    S    
C18   C19   A    
C46   C47   A    
C32   C39   A    
C71   C72   S    
Cr1   O24   S    
C54   C55   A    
C53   C61   A    
C59   O33   S    
C74   H45   S    
C32   H14   S    
C19   C20   A    
C8    C9    A    
Cr5   O9    S    
C38   H19   S    
C1    C28   S    
C41   C46   A    
C72   H41   S    
C27   H13   S    
C4    C12   S    
C50   C56   S    
Cr5   O19   S    
C39   C45   S    
C36   H16   S    
C13   H4    S    
C73   H49   S    
C59   C60   A    
C74   H46   S    
C21   C22   A    
C54   C61   A    
Cr6   O17   S    
C2    C6    S    
C44   H22   S    
C71   H43   S    
C4    C69   S    
C53   C60   A    
Cr3   O3    S    
C21   H9    S    
C5    H30   S    
C69   H27   S    
C24   O29   S    
C23   O1    A    
Cr2   O2    S    
Cr6   O11   S    
C64   O6    A    
C12   O21   A    
C37   H17   S    
Cr5   O16   S    
C47   C48   A    
C7    C8    A    
C3    C70   S    
C72   H39   S    
C4    C6    S    
C69   H18   S    
C52   C57   A    
C63   O10   A    
C45   O2    A    
C15   H7    S    
C20   C28   A    
C34   O25   A    
C25   C26   A    
C22   H11   S    
Cr2   O5    S    
C34   C61   S    
C11   H5    S    
C51   C52   A    
C67   C69   S    
C1    O12   A    
C68   O13   A    
C43   C44   A    
C7    C62   S    
C62   O8    A    
C37   C38   A    
Cr2   O26   S    
Cr4   O19   S    
O29   H35   S    
C48   O32   S    
Cr2   O21   S    
C43   H20   S    
C23   O23   A    
C17   C23   S    
C65   O14   A    
C24   C25   A    
O33   H44   S    
C56   O24   A    
C42   C50   A    
C55   C71   S    
Cr1   O12   S    
C9    C17   A    
C40   C41   A    
Cr4   O14   S    
C21   C28   A    
C73   H48   S    
C74   H47   S    
C40   C65   S    
C66   O16   A    
C6    O27   S    
C58   H28   S    
C14   H6    S    
C68   O18   A    
C52   C53   A    
Cr3   O4    S    
Cr3   O22   S    
C73   C74   S    
C67   H10   S    
C18   C22   A    
C46   H21   S    
C76   H52   S    
C25   O30   S    
C4    C5    S    
C5    C70   S    
C2    C75   S    
Cr1   O25   S    
C10   H3    S    
C45   O3    A    
C43   C50   A    
C20   C27   A    
C3    C63   S    
O28   H34   S    
C66   O17   A    
C32   C33   A    
C31   C38   A    
C76   H51   S    
C71   H42   S    
C58   C59   A    
C75   H53   S    
C62   O7    A    
O30   H36   S    
C49   H24   S    
C18   C64   S    
C57   C58   A    
C3    C67   S    
C48   C49   A    
Cr4   O7    S    
Cr1   O1    S    
C31   C39   A    
C19   C24   A    
C51   C55   A    
C51   C68   S    
C65   O15   A    
C75   H54   S    
Cr6   O10   S    
C75   C76   S    
C10   C11   A    
C42   C49   A    
C29   C66   S    
C26   H12   S    
C40   C44   A    
Cr4   O13   S    
C70   O28   S    
C36   C37   A    
Cr6   O19   S    
C6    H32   S    
C14   C15   A    
C70   C73   S    
Cr5   O8    S    
C5    H2    S    
C13   C14   A    
C56   O4    A    
C60   H29   S    
C15   C16   A    
C35   H15   S    
