data_mof_unit_2081.cif
_audit_creation_date              2012-12-10T17:27:52-0500
_audit_creation_method            fapswitch 2.2
_symmetry_space_group_name_H-M    P1
_symmetry_Int_Tables_number       1
_space_group_crystal_system       triclinic
_cell_length_a                    10.673374
_cell_length_b                    12.06986
_cell_length_c                    12.899975
_cell_angle_alpha                 92.202303
_cell_angle_beta                  91.789355
_cell_angle_gamma                 89.794514
_cell_volume                      1659.81186977

loop_
_atom_site_label
_atom_site_type_symbol
_atom_type_description
_atom_site_fract_x
_atom_site_fract_y
_atom_site_fract_z
_atom_type_partial_charge
C1    C     C_R   0.493392 0.520977 0.699772 0.907539
C2    C     C_R   0.923104 0.443925 0.410153 0.022754
C3    C     C_R   0.869207 0.511120 0.487148 -0.137754
C4    C     C_R   0.939296 0.569057 0.562662 -0.331665
C5    C     C_R   0.068094 0.562984 0.562083 0.508266
C6    C     C_R   0.125251 0.488426 0.490777 -0.229707
C7    C     C_R   0.492829 0.469161 0.188146 -0.172144
C8    C     C_R   0.477490 0.533261 0.809844 -0.028757
C9    C     C_R   0.437845 0.645619 0.963430 -0.208094
C10   C     C_R   0.451514 0.636928 0.857052 -0.194648
C11   C     C_R   0.487042 0.439227 0.868231 -0.257260
C12   C     C_R   0.738970 0.503930 0.501163 0.909945
C13   C     C_R   0.486973 0.448724 0.974408 0.114976
C14   C     C_R   0.457620 0.551856 0.022909 0.072952
C15   C     C_R   0.449790 0.559244 0.129954 0.463693
C16   C     C_R   0.528636 0.369078 0.138912 -0.323186
C17   C     C_R   0.520025 0.357272 0.032221 -0.233124
C18   C     C_R   0.380203 0.950260 0.402991 0.435175
C19   C     C_R   0.386276 0.835526 0.417618 -0.194365
C20   C     C_R   0.563994 0.858749 0.530052 0.589094
C21   C     C_R   0.547767 0.975885 0.532726 -0.156616
C22   C     C_R   0.456868 0.022061 0.465563 -0.120498
C23   C     C_R   0.499265 0.479443 0.299767 0.871249
C24   C     C_R   0.446186 0.138576 0.461039 -0.024577
C25   C     C_R   0.613650 0.163134 0.585066 0.067854
C26   C     C_R   0.622401 0.047221 0.597279 -0.118299
C27   C     C_R   0.259818 0.495207 0.491482 0.973320
C28   C     C_R   0.847231 0.393108 0.330481 -0.165248
C29   C     C_R   0.886208 0.296718 0.280878 -0.281779
C30   C     C_R   0.005193 0.256265 0.303543 -0.065030
C31   C     C_R   0.094931 0.326766 0.356665 0.505774
C32   C     C_R   0.051820 0.420130 0.418027 -0.122949
H1    H     H_    0.893532 0.615718 0.624302 0.179853
H2    H     H_    0.545186 0.278662 0.994852 0.144881
H3    H     H_    0.440756 0.710546 0.812095 0.163465
H4    H     H_    0.496777 0.358567 0.831469 0.154929
H5    H     H_    0.377825 0.173794 0.409604 0.225965
H6    H     H_    0.321965 0.780472 0.375093 0.185652
H7    H     H_    0.752017 0.419891 0.315203 0.153647
H8    H     H_    0.819176 0.248187 0.233626 0.162768
H9    H     H_    0.561934 0.299557 0.182877 0.176376
H10   H     H_    0.416561 0.726002 0.998951 0.175338
N1    N     N_R   0.523130 0.207800 0.519340 -0.128372
N2    N     N_R   0.476870 0.792180 0.480660 -0.165134
O1    O     O_R   0.506170 0.421690 0.658830 -0.633766
O2    O     O_R   0.491330 0.609320 0.646410 -0.593847
O3    O     O_R   0.690660 0.406170 0.506210 -0.619324
O4    O     O_R   0.675810 0.593790 0.493790 -0.591759
O5    O     O_R   0.508670 0.390680 0.353590 -0.637647
O6    O     O_R   0.493830 0.578310 0.341170 -0.570646
O7    O     O_R   0.324190 0.406210 0.506210 -0.570991
O8    O     O_R   0.309340 0.593830 0.493790 -0.615492
Zn1   Zn    Zn3+2 0.509910 0.374720 0.508290 0.965139
Zn2   Zn    Zn3+2 0.490090 0.625280 0.491710 0.996365
C33   C     C_R   0.708396 0.232506 0.642921 0.194889
C34   C     C_R   0.696037 0.254618 0.749531 -0.143059
C35   C     C_R   0.792259 0.307162 0.808487 -0.149400
C36   C     C_R   0.905001 0.332032 0.762454 -0.110534
C37   C     C_R   0.922578 0.301461 0.658390 -0.148235
C38   C     C_R   0.825599 0.250155 0.599298 -0.142665
H11   H     H_    0.615111 0.224215 0.787628 0.100991
H12   H     H_    0.780907 0.325248 0.890496 0.137965
H13   H     H_    0.980144 0.371591 0.808216 0.139371
H14   H     H_    0.011726 0.316326 0.623829 0.148708
H15   H     H_    0.841467 0.224116 0.519458 0.132118
O9    O     O_3   0.297458 0.991525 0.329769 -0.594681
C39   C     C_3   0.356621 0.989412 0.233532 -0.333952
H16   H     H_    0.379815 0.903134 0.207022 0.194609
H17   H     H_    0.442383 0.041875 0.237058 0.147370
H18   H     H_    0.291095 0.024055 0.174683 0.192148
C40   C     C_R   0.698981 0.002462 0.685100 0.195955
C41   C     C_R   0.830694 0.000246 0.683754 -0.107682
C42   C     C_R   0.900268 0.957930 0.766942 -0.150042
C43   C     C_R   0.839182 0.916852 0.851620 -0.103222
C44   C     C_R   0.708331 0.918064 0.853294 -0.134104
C45   C     C_R   0.638372 0.960758 0.770470 -0.129845
H19   H     H_    0.879401 0.029851 0.617968 0.099790
H20   H     H_    0.001592 0.956461 0.765504 0.115256
H21   H     H_    0.893218 0.883767 0.915776 0.115567
H22   H     H_    0.661078 0.885889 0.918755 0.125291
H23   H     H_    0.537010 0.961358 0.772682 0.104667
O10   O     O_3   0.672618 0.810819 0.568256 -0.577542
C46   C     C_3   0.765751 0.822077 0.493594 -0.286891
H24   H     H_    0.854911 0.787128 0.524177 0.174375
H25   H     H_    0.783894 0.910299 0.477282 0.131821
H26   H     H_    0.740019 0.776376 0.419462 0.178340
C47   C     C_R   0.024729 0.135446 0.288823 0.172093
C48   C     C_R   0.035692 0.070342 0.376680 -0.052609
C49   C     C_R   0.032700 0.954642 0.365752 -0.092754
C50   C     C_R   0.020901 0.903143 0.267059 -0.085748
C51   C     C_R   0.010680 0.967306 0.179208 -0.134507
C52   C     C_R   0.010910 0.083101 0.189959 -0.203033
H27   H     H_    0.042381 0.109173 0.453775 0.096549
H28   H     H_    0.039872 0.905005 0.433764 0.090933
H29   H     H_    0.019116 0.813592 0.258745 0.102283
H30   H     H_    0.000609 0.927316 0.102891 0.117455
H31   H     H_    0.998605 0.131947 0.121669 0.123174
O11   O     O_3   0.219683 0.297971 0.355618 -0.618173
C53   C     C_3   0.260358 0.296545 0.252297 -0.298233
H32   H     H_    0.207055 0.238471 0.199085 0.157065
H33   H     H_    0.256552 0.381107 0.221273 0.142474
H34   H     H_    0.357776 0.265720 0.251534 0.200645
O12   O     O_3   0.139488 0.617472 0.640142 -0.599363
C54   C     C_3   0.124407 0.733295 0.633440 -0.295976
H35   H     H_    0.134663 0.760867 0.552708 0.151404
H36   H     H_    0.198933 0.774880 0.682398 0.183118
H37   H     H_    0.032853 0.760817 0.664009 0.158858
O13   O     O_3   0.404607 0.655822 0.177066 -0.606706
C55   C     C_3   0.273308 0.646311 0.183736 -0.376734
H38   H     H_    0.249087 0.586576 0.243443 0.164999
H39   H     H_    0.227031 0.621960 0.107682 0.160315
H40   H     H_    0.234538 0.728329 0.207652 0.190805

loop_
_geom_bond_atom_site_label_1
_geom_bond_atom_site_label_2
_ccdc_geom_bond_type
C6    C32   A    
C33   C34   A    
C5    O12   S    
C20   O10   S    
C1    C8    S    
C42   C43   A    
C12   O4    A    
C25   N1    A    
C54   H36   S    
C35   C36   A    
C50   H29   S    
C34   C35   A    
O4    Zn2   S    
C9    H10   S    
O6    Zn2   S    
C28   C29   A    
C55   H39   S    
C30   C31   A    
C7    C23   S    
C1    O2    A    
C23   O5    A    
O13   C55   S    
C2    C32   A    
C18   C19   A    
C31   O11   S    
C49   H28   S    
C3    C12   S    
C51   H30   S    
C4    H1    S    
N1    Zn1   S    
C6    C27   S    
C27   O7    A    
C16   C17   A    
C42   H20   S    
C10   H3    S    
C29   C30   A    
C9    C10   A    
C19   N2    A    
O3    Zn1   S    
C33   C38   A    
C7    C15   A    
O9    C39   S    
O1    Zn1   S    
C37   C38   A    
C13   C14   A    
C26   C40   S    
C30   C47   S    
C12   O3    A    
C54   H35   S    
C20   N2    A    
C21   C26   A    
O8    Zn2   S    
C52   H31   S    
C43   C44   A    
C39   H16   S    
C35   H12   S    
C55   H40   S    
C51   C52   A    
C9    C14   A    
C41   C42   A    
C23   O6    A    
C28   H7    S    
C25   C26   A    
O7    Zn1   S    
C15   O13   S    
C44   C45   A    
C41   H19   S    
C19   H6    S    
C46   H24   S    
C14   C15   A    
O2    Zn2   S    
C24   H5    S    
C37   H14   S    
C20   C21   A    
C7    C16   A    
C53   H33   S    
C38   H15   S    
O10   C46   S    
C43   H21   S    
C22   C24   A    
C17   H2    S    
C3    C4    A    
C40   C45   A    
C47   C52   A    
C27   O8    A    
C44   H22   S    
C36   H13   S    
C48   H27   S    
C11   H4    S    
C46   H25   S    
C18   C22   A    
C31   C32   A    
C25   C33   S    
C4    C5    A    
C45   H23   S    
C18   O9    S    
C53   H32   S    
C13   C17   A    
C39   H18   S    
C46   H26   S    
C2    C3    A    
C36   C37   A    
C40   C41   A    
C55   H38   S    
C11   C13   A    
C1    O1    A    
C50   C51   A    
C5    C6    A    
C8    C11   A    
O5    Zn1   S    
C29   H8    S    
N2    Zn2   S    
C53   H34   S    
C48   C49   A    
C47   C48   A    
C8    C10   A    
O11   C53   S    
O12   C54   S    
C24   N1    A    
C34   H11   S    
C2    C28   A    
C39   H17   S    
C49   C50   A    
C21   C22   A    
C16   H9    S    
C54   H37   S    
