data_mof_unit_4555.cif
_audit_creation_date              2013-03-05T15:50:34-0500
_audit_creation_method            fapswitch 2.2
_symmetry_space_group_name_H-M    P1
_symmetry_Int_Tables_number       1
_space_group_crystal_system       triclinic
_cell_length_a                    9.580186
_cell_length_b                    10.863166
_cell_length_c                    13.42278
_cell_angle_alpha                 92.525609
_cell_angle_beta                  72.417485
_cell_angle_gamma                 90.368867
_cell_volume                      1330.33571896

loop_
_atom_site_label
_atom_site_type_symbol
_atom_site_description
_atom_site_fract_x
_atom_site_fract_y
_atom_site_fract_z
_atom_type_partial_charge
O1    O     O_R   0.381190 0.680360 0.500010 -0.585740
O2    O     O_R   0.618760 0.680340 0.500000 -0.585826
C1    C     C_R   0.503134 0.736931 0.491776 0.804394
O3    O     O_R   0.323240 0.499990 0.650990 -0.564828
O4    O     O_R   0.560820 0.499960 0.650980 -0.577295
C2    C     C_R   0.421219 0.503557 0.700310 0.791438
Cu1   Cu    Cu3+1 0.359340 0.500010 0.500010 0.933214
Cu2   Cu    Cu3+1 0.640660 0.499990 0.499990 0.932822
O5    O     O_R   0.381240 0.319660 0.500000 -0.614857
O6    O     O_R   0.618810 0.319640 0.499990 -0.596001
O7    O     O_R   0.439180 0.500040 0.349020 -0.600400
O8    O     O_R   0.676760 0.500010 0.349010 -0.600030
C3    C     C_R   0.495996 0.262412 0.505825 0.782595
C4    C     C_R   0.578580 0.501757 0.300107 0.800505
C5    C     C_R   0.780721 0.614074 0.034082 0.334822
H1    H     H_    0.831831 0.598639 0.178650 0.193484
H2    H     H_    0.775207 0.705400 0.850129 0.190049
C6    C     C_R   0.622790 0.518533 0.187384 -0.110598
C7    C     C_R   0.241210 0.441446 0.864248 -0.101586
C8    C     C_R   0.202921 0.418590 0.969908 -0.099762
C9    C     C_R   0.299304 0.447211 0.026821 -0.180768
C10   C     C_R   0.435372 0.504654 0.979549 0.103950
C11   C     C_R   0.465351 0.540776 0.875059 0.098130
C12   C     C_R   0.542219 0.528158 0.032376 0.041607
C13   C     C_R   0.672073 0.594190 0.982850 0.039130
C14   C     C_R   0.686499 0.644276 0.885976 -0.183255
C15   C     C_R   0.584612 0.618814 0.833580 -0.206601
C16   C     C_R   0.523205 0.488244 0.133398 -0.246387
C17   C     C_R   0.753063 0.577845 0.137026 -0.265744
C18   C     C_R   0.373401 0.499992 0.815192 -0.101877
H3    H     H_    0.429468 0.435464 0.173817 0.150042
H4    H     H_    0.168574 0.410512 0.820250 0.162371
H5    H     H_    0.262212 0.424766 0.107872 0.141469
H6    H     H_    0.099767 0.374537 0.007304 0.143837
H7    H     H_    0.598684 0.663676 0.760957 0.154523
H8    H     H_    0.718693 0.890565 0.504532 0.161115
C19   C     C_R   0.273727 0.877642 0.432370 -0.150196
H9    H     H_    0.292605 0.789495 0.389818 0.167222
C20   C     C_R   0.139868 0.935522 0.444770 -0.150412
H10   H     H_    0.057207 0.889715 0.416892 0.142268
C21   C     C_R   0.110769 0.050233 0.496584 -0.134925
H11   H     H_    0.003874 0.092521 0.511889 0.139514
C22   C     C_R   0.220747 0.112322 0.526187 -0.156024
H12   H     H_    0.189542 0.198467 0.570218 0.168529
C23   C     C_R   0.363269 0.060438 0.503265 0.093460
C24   C     C_R   0.381067 0.934654 0.471783 0.097976
C25   C     C_R   0.504310 0.870749 0.482485 -0.114041
C26   C     C_R   0.621886 0.936987 0.498688 -0.204541
H13   H     H_    0.712760 0.112709 0.514352 0.165059
C27   C     C_R   0.616643 0.064181 0.507601 -0.206608
C28   C     C_R   0.488774 0.127712 0.510046 -0.114074
H14   H     H_    0.822854 0.641533 0.616461 0.131421
C29   C     C_R   0.913139 0.337311 0.360272 -0.153801
H15   H     H_    0.806138 0.331005 0.352997 0.202282
C30   C     C_R   0.013198 0.256866 0.292442 -0.217486
H16   H     H_    0.978882 0.195030 0.238915 0.162893
C31   C     C_R   0.156635 0.255528 0.293176 -0.216094
H17   H     H_    0.234531 0.192439 0.240392 0.162110
C32   C     C_R   0.200969 0.334892 0.361495 -0.155505
H18   H     H_    0.313333 0.325460 0.355486 0.200806
C33   C     C_R   0.102863 0.418967 0.431916 0.200566
C34   C     C_R   0.953301 0.419530 0.431625 0.204674
N1    N     N_R   0.852480 0.498790 0.499000 -0.200096
C35   C     C_R   0.899543 0.577514 0.564249 -0.053296
H19   H     H_    0.081066 0.640834 0.617018 0.166134
C36   C     C_R   0.047465 0.577377 0.564346 -0.053140
N2    N     N_R   0.148360 0.498710 0.498970 -0.208966
N3    N     N_R   0.918243 0.671591 0.983733 0.110022
O9    O     O_R   0.992661 0.637566 0.888380 -0.399763
O10   O     O_R   0.980477 0.742789 0.038165 -0.363909

loop_
_geom_bond_atom_site_label_1
_geom_bond_atom_site_label_2
_geom_bond_distance
_ccdc_geom_bond_type
O4    Cu2   1.938060 S    
C22   H12   1.078204 S    
C16   H3    1.075157 S    
C5    C17   1.399947 A    
C19   H9    1.080502 S    
C11   C15   1.406719 A    
C30   C31   1.377331 A    
C21   C22   1.393945 A    
C21   H11   1.082863 S    
C4    C6    1.462220 S    
C7    C8    1.386789 A    
Cu2   O8    1.950180 S    
C8    H6    1.083043 S    
C30   H16   1.082976 S    
C26   C27   1.381563 A    
O2    C1    1.306052 A    
C13   C14   1.399556 A    
C6    C16   1.391465 A    
Cu1   Cu2   2.695018 S    
C19   C20   1.392759 A    
C6    C17   1.395706 A    
O1    Cu1   1.968984 S    
C9    C10   1.419847 A    
C8    C9    1.390829 A    
Cu1   O7    1.938060 S    
C22   C23   1.420365 A    
H1    C17   1.083527 S    
C14   C15   1.384930 A    
C34   N1    1.380755 A    
C15   H7    1.080518 S    
O3    Cu1   1.950180 S    
O4    C2    1.300766 A    
C5    N3    1.439294 S    
C1    C25   1.464176 S    
C2    C18   1.472243 S    
O8    C4    1.300107 A    
H8    C26   1.083538 S    
C31   H17   1.083028 S    
C23   C28   1.427237 A    
C29   C30   1.387403 A    
C33   C34   1.434062 A    
C31   C32   1.387639 A    
O7    C4    1.298432 A    
C10   C12   1.426528 A    
C32   C33   1.417474 A    
O3    C2    1.301355 A    
C9    H5    1.076105 S    
H19   C36   1.081833 S    
H2    C14   1.080968 S    
Cu2   N1    2.025422 S    
Cu1   N2    2.025443 S    
N1    C35   1.367218 A    
C11   C18   1.417492 A    
C23   C24   1.408293 A    
C32   H18   1.060200 S    
C36   N2    1.366292 A    
C12   C13   1.426525 A    
C20   C21   1.387514 A    
C29   C34   1.416297 A    
Cu2   O6    1.968983 S    
H13   C27   1.083508 S    
H14   C35   1.080339 S    
C20   H10   1.082735 S    
Cu1   O5    1.971706 S    
N3    O10   1.301897 A    
C33   N2    1.383447 A    
C24   C25   1.420714 A    
O5    C3    1.290944 A    
C5    C13   1.421064 A    
C27   C28   1.400933 A    
C19   C24   1.418635 A    
C3    C28   1.467236 S    
C7    C18   1.401645 A    
C7    H4    1.083375 S    
C10   C11   1.416787 A    
O2    Cu2   1.971707 S    
C25   C26   1.399138 A    
C29   H15   1.060205 S    
C12   C16   1.400528 A    
N3    O9    1.301329 A    
O1    C1    1.293603 A    
O6    C3    1.310016 A    
C35   C36   1.417524 A    
