data_mof_unit_4534.cif
_audit_creation_date              2013-03-05T15:47:56-0500
_audit_creation_method            fapswitch 2.2
_symmetry_space_group_name_H-M    P1
_symmetry_Int_Tables_number       1
_space_group_crystal_system       triclinic
_cell_length_a                    11.644435
_cell_length_b                    13.004466
_cell_length_c                    13.563634
_cell_angle_alpha                 92.046302
_cell_angle_beta                  76.991581
_cell_angle_gamma                 99.87455
_cell_volume                      1971.57036442

loop_
_atom_site_label
_atom_site_type_symbol
_atom_site_description
_atom_site_fract_x
_atom_site_fract_y
_atom_site_fract_z
_atom_type_partial_charge
O1    O     O_R   0.419710 0.645650 0.494620 -0.585758
O2    O     O_R   0.611450 0.658430 0.507430 -0.603113
C1    C     C_R   0.520898 0.700932 0.501527 0.802404
O3    O     O_R   0.357340 0.490460 0.641450 -0.567509
O4    O     O_R   0.549080 0.503250 0.654260 -0.586797
C2    C     C_R   0.437329 0.503111 0.695940 0.799492
Cu1   Cu    Cu3+1 0.386470 0.492430 0.492410 0.988214
Cu2   Cu    Cu3+1 0.613530 0.507570 0.507590 0.942072
O5    O     O_R   0.388550 0.341570 0.492570 -0.600630
O6    O     O_R   0.580290 0.354350 0.505380 -0.591710
O7    O     O_R   0.450920 0.496750 0.345740 -0.525647
O8    O     O_R   0.642660 0.509540 0.358550 -0.590782
C3    C     C_R   0.479070 0.299066 0.498550 0.814209
C4    C     C_R   0.563124 0.508178 0.304490 0.829372
C5    C     C_R   0.751582 0.542753 0.039080 -0.190374
H1    H     H_    0.786510 0.520343 0.184403 0.177623
H2    H     H_    0.788148 0.603339 0.846500 0.138017
H3    H     H_    0.845657 0.556466 0.002268 0.141521
C6    C     C_R   0.597730 0.518249 0.193742 -0.163191
C7    C     C_R   0.277625 0.472659 0.856423 0.267212
C8    C     C_R   0.249744 0.441188 0.957977 -0.165718
C9    C     C_R   0.337940 0.450355 0.012713 -0.180139
C10   C     C_R   0.454524 0.501989 0.972347 0.093958
C11   C     C_R   0.487250 0.528688 0.868589 0.054176
C12   C     C_R   0.541760 0.521006 0.031745 -0.007525
C13   C     C_R   0.663974 0.543834 0.983530 0.128198
C14   C     C_R   0.695653 0.574758 0.882469 -0.216096
C15   C     C_R   0.607018 0.576213 0.828962 -0.160205
C16   C     C_R   0.510336 0.526091 0.137836 0.255622
C17   C     C_R   0.717872 0.523876 0.142989 -0.232825
C18   C     C_R   0.399870 0.506205 0.808242 -0.199537
H4    H     H_    0.314206 0.414313 0.086408 0.183614
H5    H     H_    0.159809 0.407690 0.995949 0.154048
H6    H     H_    0.634280 0.615733 0.757096 0.155454
C19   C     C_R   0.466979 0.185663 0.497682 -0.051170
C20   C     C_R   0.532930 0.814315 0.502526 -0.047406
C21   C     C_R   0.652339 0.984778 0.511165 -0.209165
C22   C     C_R   0.641516 0.876686 0.510427 -0.192847
C23   C     C_R   0.435062 0.860717 0.495519 -0.244247
C24   C     C_R   0.445179 0.968731 0.496225 0.170993
C25   C     C_R   0.554689 0.031235 0.504068 0.174179
C26   C     C_R   0.564834 0.139250 0.504706 -0.262010
C27   C     C_R   0.358348 0.123286 0.489899 -0.192160
C28   C     C_R   0.347514 0.015189 0.489178 -0.202958
H7    H     H_    0.649041 0.186938 0.510702 0.149992
H8    H     H_    0.281798 0.157909 0.484353 0.153356
H9    H     H_    0.736751 0.031897 0.517254 0.135261
H10   H     H_    0.263088 0.968070 0.483128 0.139323
H11   H     H_    0.718049 0.842062 0.516020 0.155943
H12   H     H_    0.350878 0.813023 0.489463 0.158173
N1    N     N_R   0.215880 0.481050 0.481000 -0.172022
N2    N     N_R   0.784100 0.518950 0.519000 -0.179110
C29   C     C_R   0.952802 0.609962 0.579875 -0.340129
C30   C     C_R   0.832679 0.598424 0.573236 0.090367
C31   C     C_R   0.852953 0.449932 0.468444 0.031160
C32   C     C_R   0.974668 0.459042 0.472150 0.063901
C33   C     C_R   0.025014 0.540123 0.528825 0.069230
C34   C     C_R   0.146730 0.549388 0.532397 0.044722
C35   C     C_R   0.167650 0.401841 0.426300 0.175235
C36   C     C_R   0.047147 0.389602 0.420544 -0.329075
H13   H     H_    0.186083 0.610685 0.576737 0.104459
H14   H     H_    0.222795 0.347671 0.386720 0.121080
H15   H     H_    0.989098 0.673620 0.623607 0.133056
H16   H     H_    0.011051 0.326295 0.376340 0.133490
H17   H     H_    0.778828 0.654380 0.610478 0.108616
H18   H     H_    0.813546 0.388494 0.424277 0.117014
N3    N     N_R   0.406682 0.572014 0.183354 0.131243
O9    O     O_R   0.308748 0.515774 0.233024 -0.384800
O10   O     O_R   0.406373 0.669364 0.164652 -0.346038
N4    N     N_2   0.185415 0.470813 0.801610 -0.400532
H19   H     H_    0.187016 0.541110 0.767952 0.250911
C37   C     C_3   0.065982 0.414917 0.841400 -0.697291
H20   H     H_    0.012065 0.412991 0.783218 0.231378
H21   H     H_    0.021729 0.455100 0.909452 0.213661
H22   H     H_    0.069314 0.333088 0.859887 0.236565

loop_
_geom_bond_atom_site_label_1
_geom_bond_atom_site_label_2
_geom_bond_distance
_ccdc_geom_bond_type
C5    H3    1.083619 S    
C31   C32   1.413981 A    
C25   C26   1.389187 A    
Cu1   Cu2   2.671227 S    
C22   H11   1.083151 S    
C29   C30   1.403897 A    
Cu1   O7    1.960969 S    
C13   C14   1.391994 A    
C9    H4    1.076968 S    
C3    C19   1.457097 S    
C37   H22   1.111021 S    
O4    C2    1.296532 A    
O7    C4    1.285479 A    
C8    H5    1.080963 S    
H1    C17   1.083057 S    
C32   C33   1.406916 A    
C19   C26   1.400226 A    
O5    C3    1.290220 A    
C16   N3    1.442255 S    
C10   C11   1.412246 A    
N4    H19   1.031793 S    
C21   H9    1.083876 S    
C19   C27   1.404032 A    
Cu2   N2    2.006674 S    
N2    C31   1.368929 A    
C34   H13   1.082426 S    
C2    C18   1.488173 S    
C15   H6    1.074984 S    
C35   C36   1.404349 A    
C8    C9    1.383847 A    
C7    N4    1.433688 S    
O3    Cu1   1.973397 S    
N2    C30   1.364494 A    
C12   C16   1.404773 A    
N3    O9    1.300960 A    
H2    C14   1.084109 S    
O3    C2    1.299821 A    
C23   C24   1.389186 A    
C30   H17   1.079599 S    
C29   C33   1.402241 A    
C5    C13   1.400102 A    
C12   C13   1.411046 A    
C32   C36   1.402861 A    
O1    C1    1.291631 A    
C26   H7    1.084623 S    
C27   C28   1.389558 A    
C21   C22   1.389510 A    
Cu2   O8    1.973397 S    
N1    C34   1.368446 A    
C37   H21   1.111031 S    
C24   C25   1.413329 A    
O8    C4    1.301873 A    
N1    C35   1.364369 A    
C6    C16   1.417577 A    
C31   H18   1.082419 S    
C5    C17   1.394026 A    
Cu1   O5    1.966238 S    
C35   H14   1.081540 S    
O1    Cu1   1.964023 S    
C4    C6    1.469499 S    
C20   C23   1.400214 A    
O2    Cu2   1.966236 S    
C11   C15   1.416508 A    
C37   H20   1.110776 S    
O6    C3    1.291673 A    
O4    Cu2   1.960969 S    
C36   H16   1.083258 S    
C20   C22   1.403979 A    
O2    C1    1.290262 A    
C11   C18   1.430577 A    
Cu1   N1    2.006906 S    
C29   H15   1.083317 S    
C33   C34   1.413346 A    
C1    C20   1.456881 S    
C10   C12   1.417804 A    
C21   C25   1.398658 A    
C27   H8    1.083149 S    
C24   C28   1.398655 A    
C23   H12   1.084638 S    
C7    C8    1.401298 A    
Cu2   O6    1.964024 S    
C14   C15   1.391824 A    
C9    C10   1.404490 A    
N4    C37   1.448161 S    
N3    O10   1.300767 A    
C6    C17   1.404038 A    
C28   H10   1.083877 S    
C7    C18   1.425570 A    
