data_mof_unit_1239.cif
_audit_creation_date              2012-12-10T18:00:18-0500
_audit_creation_method            fapswitch 2.2
_symmetry_space_group_name_H-M    P1
_symmetry_Int_Tables_number       1
_space_group_crystal_system       triclinic
_cell_length_a                    10.872827
_cell_length_b                    9.590904
_cell_length_c                    10.7382
_cell_angle_alpha                 90.255937
_cell_angle_beta                  92.746517
_cell_angle_gamma                 89.114788
_cell_volume                      1118.35450605

loop_
_atom_site_label
_atom_site_type_symbol
_atom_type_description
_atom_site_fract_x
_atom_site_fract_y
_atom_site_fract_z
_atom_type_partial_charge
C1    C     C_R   0.870591 0.497753 0.476431 -0.224407
C2    C     C_R   0.127498 0.505002 0.497140 -0.205388
C3    C     C_R   0.262174 0.501504 0.500787 0.925798
C4    C     C_R   0.736944 0.499102 0.490289 0.858699
C5    C     C_R   0.502427 0.499417 0.260072 0.880367
C6    C     C_R   0.499046 0.499686 0.740032 0.927604
C7    C     C_3   0.388954 0.475594 0.037820 0.295148
C8    C     C_3   0.614993 0.517692 0.962047 0.238547
C9    C     C_3   0.426100 0.598625 0.957185 0.253968
C10   C     C_3   0.577578 0.395148 0.043158 0.238585
C11   C     C_3   0.461922 0.373803 0.957591 0.264874
C12   C     C_3   0.542480 0.619733 0.042552 0.158621
C13   C     C_3   0.499051 0.497161 0.875802 -0.213414
C14   C     C_3   0.504552 0.497356 0.124421 -0.241900
C15   C     C_R   0.421210 0.075764 0.420657 0.386355
C16   C     C_R   0.570646 0.925367 0.586537 0.374042
C17   C     C_R   0.577197 0.075362 0.581569 0.429905
C18   C     C_R   0.425855 0.925828 0.416440 0.394956
C19   C     C_R   0.065445 0.386895 0.535449 0.204927
C20   C     C_R   0.931681 0.619153 0.439764 0.242397
C21   C     C_R   0.939283 0.376375 0.505645 0.277744
C22   C     C_R   0.061031 0.621860 0.448315 0.356690
Cu1   Cu    Cu3+1 0.500000 0.640660 0.500000 1.072475
Cu2   Cu    Cu3+1 0.500000 0.359340 0.500000 1.113898
N1    N     N_R   0.500000 0.852070 0.500000 -0.264875
N2    N     N_R   0.500000 0.147930 0.500000 -0.261329
O1    O     O_R   0.319640 0.618740 0.499990 -0.515333
O2    O     O_R   0.680360 0.381260 0.500010 -0.499070
O3    O     O_R   0.680360 0.618740 0.500010 -0.553724
O4    O     O_R   0.319640 0.381260 0.499990 -0.527899
O5    O     O_R   0.499970 0.618770 0.316850 -0.570437
O6    O     O_R   0.500030 0.381230 0.683150 -0.516415
O7    O     O_R   0.500030 0.618770 0.683150 -0.554562
O8    O     O_R   0.499970 0.381230 0.316850 -0.524534
O9    O     O_3   0.339958 0.150593 0.342301 -0.544173
C23   C     C_3   0.216975 0.123234 0.371249 -0.155191
H1    H     H_    0.160250 0.217957 0.350331 0.187026
H2    H     H_    0.206519 0.094984 0.470634 0.175654
H3    H     H_    0.177584 0.039275 0.311447 0.162796
O10   O     O_3   0.630256 0.853285 0.682788 -0.544161
C24   C     C_3   0.566069 0.878857 0.792086 -0.205063
H4    H     H_    0.603464 0.806592 0.864245 0.247447
H5    H     H_    0.465715 0.860935 0.776736 0.181775
H6    H     H_    0.579135 0.986096 0.828893 0.178009
O11   O     O_3   0.648404 0.152539 0.667498 -0.533430
C25   C     C_3   0.768569 0.096478 0.689660 -0.138636
H7    H     H_    0.831787 0.183840 0.711026 0.192420
H8    H     H_    0.803146 0.036527 0.609072 0.180660
H9    H     H_    0.774073 0.030977 0.774428 0.165158
O12   O     O_3   0.347949 0.852398 0.335732 -0.517490
C26   C     C_3   0.372307 0.881983 0.210769 -0.140912
H10   H     H_    0.359107 0.784472 0.157224 0.215932
H11   H     H_    0.467102 0.920095 0.197717 0.179293
H12   H     H_    0.305026 0.958956 0.170212 0.154073
O13   O     O_3   0.419510 0.245533 0.912130 -0.688246
H13   H     H_    0.406588 0.188624 0.987085 0.342194
O14   O     O_3   0.588992 0.746541 0.086633 -0.758405
H14   H     H_    0.665241 0.722428 0.136632 0.334967
O15   O     O_3   0.271030 0.453431 0.079544 -0.688065
H15   H     H_    0.217491 0.442103 0.002959 0.357892
O16   O     O_3   0.732922 0.539446 0.920148 -0.691227
H16   H     H_    0.787518 0.544823 0.996560 0.341695
O17   O     O_3   0.341649 0.698644 0.909507 -0.715250
H17   H     H_    0.365780 0.788384 0.948462 0.325416
O18   O     O_3   0.656743 0.289372 0.089453 -0.693249
H18   H     H_    0.687073 0.241122 0.014812 0.350180
O19   O     O_3   0.128984 0.285114 0.604188 -0.721056
H19   H     H_    0.069553 0.227615 0.647739 0.330707
O20   O     O_3   0.868191 0.732976 0.389471 -0.719382
H20   H     H_    0.799353 0.697912 0.334783 0.324861
O21   O     O_3   0.883432 0.248511 0.497328 -0.717113
H21   H     H_    0.947003 0.175118 0.485026 0.316760
O22   O     O_3   0.124723 0.735519 0.407603 -0.661285
H22   H     H_    0.067111 0.810321 0.377816 0.365103

loop_
_geom_bond_atom_site_label_1
_geom_bond_atom_site_label_2
_ccdc_geom_bond_type
C15   C18   A    
C6    O6    A    
O13   H13   S    
C1    C21   A    
C8    C13   S    
O22   H22   S    
O9    C23   S    
O11   C25   S    
C7    C11   S    
C25   H9    S    
C21   O21   S    
C17   N2    A    
Cu1   O3    S    
C23   H1    S    
C19   C21   A    
C17   O11   S    
C24   H4    S    
C15   O9    S    
C9    C13   S    
C7    C14   S    
C16   C17   A    
Cu1   O7    S    
C2    C22   A    
Cu1   Cu2   S    
C19   O19   S    
Cu1   O1    S    
C4    O3    A    
C8    O16   S    
O15   H15   S    
C24   H5    S    
O20   H20   S    
C18   N1    A    
C7    O15   S    
C4    O2    A    
C25   H8    S    
O19   H19   S    
C10   C14   S    
C15   N2    A    
Cu2   O8    S    
C26   H10   S    
C26   H11   S    
Cu1   O5    S    
C3    O4    A    
Cu2   O6    S    
C8    C12   S    
C5    O8    A    
O12   C26   S    
C5    C14   S    
C16   O10   S    
C12   O14   S    
O10   C24   S    
C12   C14   S    
C24   H6    S    
C20   O20   S    
C20   C22   A    
C11   O13   S    
C18   O12   S    
C10   O18   S    
C16   N1    A    
C7    C9    S    
C25   H7    S    
C1    C20   A    
C2    C19   A    
C9    O17   S    
C23   H3    S    
Cu2   O2    S    
Cu2   N2    S    
C6    O7    A    
C1    C4    S    
C26   H12   S    
C3    O1    A    
C2    C3    S    
O21   H21   S    
C6    C13   S    
C11   C13   S    
O14   H14   S    
C23   H2    S    
Cu1   N1    S    
O16   H16   S    
C9    C12   S    
Cu2   O4    S    
C10   C11   S    
O17   H17   S    
C8    C10   S    
O18   H18   S    
C22   O22   S    
C5    O5    A    
