data_mof_unit_1641.cif
_audit_creation_date              2012-12-10T18:33:34-0500
_audit_creation_method            fapswitch 2.2
_symmetry_space_group_name_H-M    P1
_symmetry_Int_Tables_number       1
_space_group_crystal_system       triclinic
_cell_length_a                    8.716725
_cell_length_b                    15.134129
_cell_length_c                    13.919449
_cell_angle_alpha                 89.965612
_cell_angle_beta                  98.037723
_cell_angle_gamma                 90.992768
_cell_volume                      1817.93931407

loop_
_atom_site_label
_atom_site_type_symbol
_atom_type_description
_atom_site_fract_x
_atom_site_fract_y
_atom_site_fract_z
_atom_type_partial_charge
C1    C     C_R   0.499722 0.329988 0.499980 0.779073
C2    C     C_R   0.500082 0.670073 0.500002 0.782198
C3    C     C_R   0.615977 0.542276 0.117542 -0.420702
C4    C     C_R   0.431390 0.432367 0.886924 -0.423305
C5    C     C_R   0.612051 0.545864 0.218723 0.573822
C6    C     C_R   0.422845 0.434924 0.784585 0.581274
C7    C     C_R   0.384188 0.456164 0.199660 0.508800
C8    C     C_R   0.576442 0.566248 0.796780 0.504263
C9    C     C_R   0.371593 0.463724 0.097207 0.248195
C10   C     C_R   0.560919 0.574225 0.896529 0.267772
C11   C     C_R   0.493876 0.503161 0.054102 -0.032898
C12   C     C_R   0.495576 0.503495 0.944913 -0.039068
C13   C     C_R   0.203776 0.499902 0.475101 0.874602
C14   C     C_R   0.796211 0.500579 0.524877 0.883126
C15   C     C_2   0.037762 0.499416 0.461413 -0.332905
C16   C     C_2   0.962184 0.501909 0.538427 -0.395684
C17   C     C_R   0.443084 0.094714 0.574857 -0.181979
C18   C     C_R   0.458930 0.904492 0.412803 -0.176341
C19   C     C_R   0.444397 0.186549 0.575273 -0.179563
C20   C     C_R   0.460054 0.812666 0.412818 -0.197750
C21   C     C_R   0.499434 0.233537 0.499925 -0.028861
C22   C     C_R   0.499626 0.766634 0.499956 -0.025177
C23   C     C_R   0.554229 0.187736 0.424484 -0.204532
C24   C     C_R   0.538368 0.813554 0.587055 -0.184724
C25   C     C_R   0.554688 0.095891 0.424636 -0.172007
C26   C     C_R   0.538800 0.905369 0.586915 -0.180996
C27   C     C_R   0.498733 0.048662 0.499711 0.109536
C28   C     C_R   0.498809 0.951563 0.499804 0.112168
Cu1   Cu    Cu3+1 0.500000 0.499990 0.596430 1.001085
Cu2   Cu    Cu3+1 0.500000 0.500010 0.403570 1.007197
H1    H     H_    0.977592 0.496545 0.387576 0.211512
H2    H     H_    0.022352 0.505318 0.612139 0.164429
H3    H     H_    0.396871 0.059767 0.632688 0.129285
H4    H     H_    0.424968 0.938606 0.344954 0.121567
H5    H     H_    0.400278 0.220629 0.633726 0.192308
H6    H     H_    0.427900 0.777772 0.344893 0.140307
H7    H     H_    0.599143 0.222883 0.366308 0.140734
H8    H     H_    0.570153 0.779498 0.655116 0.186776
H9    H     H_    0.600780 0.061891 0.366790 0.123848
H10   H     H_    0.572311 0.940180 0.654759 0.129321
H11   H     H_    0.714881 0.570769 0.089483 0.212772
H12   H     H_    0.386210 0.374866 0.920319 0.221479
N1    N     N_R   0.500000 0.500020 0.258690 -0.273134
N2    N     N_R   0.500000 0.499980 0.741310 -0.270742
O1    O     O_R   0.500010 0.371450 0.581430 -0.536091
O2    O     O_R   0.499990 0.628550 0.418570 -0.574432
O3    O     O_R   0.500010 0.371460 0.418560 -0.580493
O4    O     O_R   0.499990 0.628540 0.581440 -0.545311
O5    O     O_R   0.274840 0.499990 0.562640 -0.565569
O6    O     O_R   0.725160 0.500010 0.437360 -0.528340
O7    O     O_R   0.274840 0.500000 0.399770 -0.537838
O8    O     O_R   0.725160 0.500000 0.600230 -0.581899
O9    O     O_3   0.726973 0.590742 0.279157 -0.544549
C29   C     C_3   0.729923 0.680889 0.253194 -0.312080
H13   H     H_    0.794155 0.718566 0.314870 0.187288
H14   H     H_    0.611554 0.708912 0.238416 0.141267
H15   H     H_    0.792675 0.690901 0.189763 0.156294
O10   O     O_3   0.345790 0.368779 0.727407 -0.551111
C30   C     C_3   0.190791 0.360265 0.745377 -0.337885
H16   H     H_    0.122236 0.326544 0.682342 0.185562
H17   H     H_    0.136675 0.425451 0.753788 0.142756
H18   H     H_    0.183370 0.318435 0.810195 0.169631
O11   O     O_3   0.271411 0.410458 0.240922 -0.534854
C31   C     C_3   0.286024 0.318971 0.225508 -0.251214
H19   H     H_    0.222634 0.282597 0.277403 0.171121
H20   H     H_    0.408750 0.297362 0.238633 0.130559
H21   H     H_    0.232425 0.299791 0.151215 0.184160
O12   O     O_3   0.656484 0.630575 0.752664 -0.552554
C32   C     C_3   0.816882 0.622072 0.782996 -0.293617
H22   H     H_    0.855424 0.552657 0.778156 0.144631
H23   H     H_    0.850101 0.648074 0.857702 0.179249
H24   H     H_    0.880219 0.662328 0.734173 0.171638
O13   O     O_3   0.237878 0.432265 0.041592 -0.590736
C33   C     C_3   0.140732 0.503756 0.010127 0.113667
H25   H     H_    0.160464 0.523961 0.935949 0.127575
H26   H     H_    0.160825 0.563171 0.058291 0.074592
C34   C     C_3   0.970992 0.475470 0.008203 -0.334232
H27   H     H_    0.950595 0.456261 0.082540 0.234736
H28   H     H_    0.896719 0.532560 0.984941 0.167138
C35   C     C_3   0.924073 0.398573 0.938744 -0.792279
H29   H     H_    0.940665 0.417053 0.863742 0.219018
H30   H     H_    0.799688 0.381713 0.939332 0.233430
H31   H     H_    0.993646 0.339401 0.961311 0.271585
O14   O     O_3   0.612660 0.651267 0.944998 -0.622019
C36   C     C_3   0.485041 0.705398 0.955363 0.067610
H32   H     H_    0.519456 0.748340 0.019752 0.155669
H33   H     H_    0.380218 0.667197 0.970173 0.113597
C37   C     C_3   0.445420 0.764356 0.865964 -0.326009
H34   H     H_    0.551053 0.801453 0.851694 0.233104
H35   H     H_    0.403612 0.722832 0.801520 0.219005
C38   C     C_3   0.319472 0.829780 0.880494 -0.959340
H36   H     H_    0.211920 0.793900 0.893285 0.252842
H37   H     H_    0.293218 0.871115 0.814480 0.261814
H38   H     H_    0.358989 0.873739 0.943290 0.255833

loop_
_geom_bond_atom_site_label_1
_geom_bond_atom_site_label_2
_ccdc_geom_bond_type
Cu2   O7    S    
C1    C21   S    
O13   C33   S    
C6    O10   S    
C1    O1    A    
Cu1   O5    S    
C34   H27   S    
C2    O2    A    
C33   H26   S    
C5    O9    S    
C19   C21   A    
C24   C26   A    
C36   H32   S    
C36   C37   S    
C15   C16   D    
C32   H23   S    
C13   O7    A    
C14   O8    A    
O9    C29   S    
O12   C32   S    
C33   C34   S    
C2    C22   S    
C24   H8    S    
C7    N1    A    
C4    C12   A    
C18   C20   A    
C36   H33   S    
Cu2   O6    S    
C30   H16   S    
C6    N2    A    
C17   H3    S    
C35   H31   S    
C34   H28   S    
C29   H14   S    
C30   H17   S    
C33   H25   S    
Cu1   O4    S    
C17   C27   A    
C31   H21   S    
Cu2   O3    S    
C18   C28   A    
O14   C36   S    
C4    C6    A    
C38   H36   S    
C1    O3    A    
C2    O4    A    
O10   C30   S    
C23   H7    S    
Cu1   O1    S    
C9    O13   S    
C31   H20   S    
C32   H24   S    
Cu1   Cu2   S    
C38   H37   S    
C9    C11   A    
C37   C38   S    
C18   H4    S    
C7    O11   S    
C10   C12   A    
C13   O5    A    
C35   H30   S    
C37   H35   S    
C8    O12   S    
C13   C15   S    
Cu1   N2    S    
C14   C16   S    
Cu2   N1    S    
C25   C27   A    
C34   C35   S    
C7    C9    A    
C29   H13   S    
C3    H11   S    
C30   H18   S    
Cu2   O2    S    
C8    N2    A    
C20   C22   A    
C35   H29   S    
C3    C5    A    
C11   C12   S    
C15   H1    S    
C16   H2    S    
C26   C28   A    
C31   H19   S    
C21   C23   A    
C19   H5    S    
C25   H9    S    
C38   H38   S    
C26   H10   S    
C14   O6    A    
C4    H12   S    
C10   O14   S    
C17   C19   A    
C22   C24   A    
C23   C25   A    
C5    N1    A    
C32   H22   S    
C3    C11   A    
O11   C31   S    
C20   H6    S    
C37   H34   S    
C8    C10   A    
C27   C28   S    
Cu1   O8    S    
C29   H15   S    
