data_mof_unit_3289.cif
_audit_creation_date              2013-03-05T16:47:54-0500
_audit_creation_method            fapswitch 2.2
_symmetry_space_group_name_H-M    P1
_symmetry_Int_Tables_number       1
_space_group_crystal_system       triclinic
_cell_length_a                    10.916719
_cell_length_b                    10.851891
_cell_length_c                    9.591267
_cell_angle_alpha                 89.046886
_cell_angle_beta                  92.102925
_cell_angle_gamma                 93.341274
_cell_volume                      1133.43393256

loop_
_atom_site_label
_atom_site_type_symbol
_atom_site_description
_atom_site_fract_x
_atom_site_fract_y
_atom_site_fract_z
_atom_type_partial_charge
O1    O     O_R   0.499990 0.319640 0.618810 -0.590100
O2    O     O_R   0.500000 0.319660 0.381240 -0.590602
C1    C     C_R   0.504424 0.262143 0.502615 0.817572
O3    O     O_R   0.319640 0.500000 0.618780 -0.561849
O4    O     O_R   0.319650 0.500020 0.381210 -0.565645
C2    C     C_R   0.262313 0.496138 0.497439 0.826365
Cu1   Cu    Cu3+1 0.499990 0.499990 0.640660 0.952451
Cu2   Cu    Cu3+1 0.500010 0.500010 0.359340 0.962362
O5    O     O_R   0.500000 0.680340 0.618760 -0.614376
O6    O     O_R   0.500010 0.680360 0.381190 -0.581734
O7    O     O_R   0.680350 0.499980 0.618790 -0.604924
O8    O     O_R   0.680360 0.500000 0.381220 -0.609886
C3    C     C_R   0.490067 0.736526 0.499042 0.780399
C4    C     C_R   0.737834 0.496961 0.503158 0.767995
C5    C     C_R   0.147264 0.399505 0.014980 -0.216621
H1    H     H_    0.165332 0.457048 0.924047 0.193466
C6    C     C_R   0.130491 0.456132 0.142218 -0.132519
H2    H     H_    0.134457 0.555842 0.147055 0.201550
C7    C     C_R   0.101471 0.384564 0.260553 0.094172
C8    C     C_R   0.097312 0.255554 0.252720 -0.216214
H3    H     H_    0.073754 0.198980 0.343044 0.179660
C9    C     C_R   0.117837 0.198736 0.126674 -0.187201
H4    H     H_    0.112729 0.099058 0.123143 0.225465
C10   C     C_R   0.139706 0.270017 0.005413 0.347007
C11   C     C_R   0.926269 0.442105 0.392799 -0.236723
H5    H     H_    0.868951 0.402521 0.308333 0.155603
C12   C     C_R   0.871795 0.488595 0.509511 -0.086131
C13   C     C_R   0.947669 0.527506 0.625527 0.026081
C14   C     C_R   0.074213 0.534165 0.612781 -0.171542
H6    H     H_    0.131819 0.567673 0.700220 0.166007
C15   C     C_R   0.128426 0.492958 0.494189 -0.058454
C16   C     C_R   0.053588 0.442860 0.383782 0.030802
C17   C     C_R   0.949310 0.657097 0.837669 -0.212866
H7    H     H_    0.998101 0.731237 0.781936 0.170635
C18   C     C_R   0.938027 0.665681 0.981526 0.228971
C19   C     C_R   0.877834 0.569737 0.055187 -0.166463
H8    H     H_    0.866687 0.578545 0.165705 0.157074
C20   C     C_R   0.832648 0.463094 0.986586 -0.198727
H9    H     H_    0.787852 0.388115 0.044770 0.141515
C21   C     C_R   0.848291 0.452000 0.843547 -0.059759
H10   H     H_    0.819733 0.365874 0.793265 0.143193
C22   C     C_R   0.905227 0.549736 0.767216 0.059242
H11   H     H_    0.538759 0.115951 0.288217 0.161252
C23   C     C_R   0.494546 0.106400 0.771266 -0.223307
H12   H     H_    0.543874 0.192653 0.794952 0.171843
C24   C     C_R   0.449468 0.039727 0.885756 -0.202243
H13   H     H_    0.458217 0.080950 0.987970 0.156098
C25   C     C_R   0.393053 0.921938 0.868329 0.439494
C26   C     C_R   0.392597 0.868497 0.736470 -0.215901
H14   H     H_    0.345930 0.778665 0.722869 0.187922
C27   C     C_R   0.450109 0.930658 0.623131 0.027604
C28   C     C_R   0.484026 0.057255 0.634875 0.121902
C29   C     C_R   0.506806 0.127105 0.509700 -0.107800
C30   C     C_R   0.519000 0.065663 0.384105 -0.199560
H15   H     H_    0.529336 0.893830 0.284469 0.189498
C31   C     C_R   0.509990 0.938403 0.380605 -0.139611
C32   C     C_R   0.477540 0.869751 0.499442 -0.087315
H16   H     H_    0.390298 0.335308 0.127595 0.152631
C33   C     C_R   0.635154 0.688971 0.144946 -0.147221
H17   H     H_    0.661505 0.684642 0.252870 0.189138
C34   C     C_R   0.684860 0.791049 0.072911 -0.198128
H18   H     H_    0.732343 0.866198 0.129349 0.168197
C35   C     C_R   0.687381 0.789151 0.929058 -0.185057
H19   H     H_    0.737443 0.862416 0.873413 0.169201
C36   C     C_R   0.639019 0.685618 0.858529 -0.127252
H20   H     H_    0.666916 0.678225 0.753667 0.195307
C37   C     C_R   0.566201 0.592748 0.926171 0.234626
C38   C     C_R   0.565221 0.593503 0.075456 0.253921
N1    N     N_R   0.501190 0.501210 0.147910 -0.197427
C39   C     C_R   0.439767 0.409500 0.073112 -0.060452
H21   H     H_    0.388700 0.336735 0.869327 0.185009
C40   C     C_R   0.439051 0.410087 0.925175 -0.079240
N2    N     N_R   0.501230 0.501290 0.852040 -0.205683
N3    N     N_R   0.152418 0.211387 0.873557 0.106183
O9    O     O_R   0.164320 0.277096 0.759553 -0.393027
O10   O     O_R   0.147340 0.091556 0.865343 -0.346146
N4    N     N_R   0.341318 0.854785 0.984891 0.135849
O11   O     O_R   0.331804 0.908528 0.103961 -0.364300
O12   O     O_R   0.303850 0.739182 0.973378 -0.388932
I1    I     I_    0.014632 0.821538 0.088705 -0.342328

loop_
_geom_bond_atom_site_label_1
_geom_bond_atom_site_label_2
_geom_bond_distance
_ccdc_geom_bond_type
H15   C31   1.081583 S    
C35   C36   1.388728 A    
C18   C19   1.394573 A    
Cu1   Cu2   2.698220 S    
Cu1   N2    2.027230 S    
N4    O11   1.301189 A    
C28   C29   1.430904 A    
Cu1   O7    1.987727 S    
Cu2   N1    2.028216 S    
N3    O10   1.301911 A    
C17   C22   1.408032 A    
C13   C14   1.388895 A    
O4    C2    1.297263 A    
O7    C4    1.295976 A    
C3    C32   1.460197 S    
C5    H1    1.081514 S    
C18   I1    2.108695 S    
C31   C32   1.396523 A    
C5    C6    1.398187 A    
C34   C35   1.381537 A    
O5    C3    1.295096 A    
C6    C7    1.400032 A    
C7    C8    1.401273 A    
C38   N1    1.380408 A    
C36   C37   1.411115 A    
C27   C32   1.417440 A    
C4    C12   1.469480 S    
C23   C28   1.419141 A    
C11   C16   1.395296 A    
C21   C22   1.406398 A    
C2    C15   1.459197 S    
C33   H17   1.065161 S    
N1    C39   1.365810 A    
O3    Cu1   1.972317 S    
C7    C16   1.476195 S    
C23   C24   1.393996 A    
C17   H7    1.083232 S    
C24   C25   1.396031 A    
N4    O12   1.301826 A    
C30   C31   1.379660 A    
C33   C34   1.389559 A    
N3    O9    1.301787 A    
C37   C38   1.432423 A    
O3    C2    1.301146 A    
H16   C39   1.081181 S    
C26   C27   1.416776 A    
C11   H5    1.084165 S    
C29   C30   1.400796 A    
C27   C28   1.407104 A    
O1    C1    1.290073 A    
C25   N4    1.439153 S    
C14   H6    1.084354 S    
C33   C38   1.412023 A    
H11   C30   1.083651 S    
C15   C16   1.410059 A    
Cu2   O8    1.972317 S    
C6    H2    1.082082 S    
C37   N2    1.377697 A    
Cu2   O6    1.971789 S    
C21   H10   1.083195 S    
C8    C9    1.397387 A    
C26   H14   1.080897 S    
C9    C10   1.406043 A    
C23   H12   1.075659 S    
Cu1   O5    1.964895 S    
C24   H13   1.083094 S    
C5    C10   1.407130 A    
O1    Cu1   1.971790 S    
O2    Cu2   1.964895 S    
O8    C4    1.307615 A    
C40   N2    1.365973 A    
O6    C3    1.304072 A    
O4    Cu2   1.987727 S    
C11   C12   1.401388 A    
C19   C20   1.396606 A    
O2    C1    1.312384 A    
H21   C40   1.079013 S    
C14   C15   1.393265 A    
C20   C21   1.396759 A    
C1    C29   1.467562 S    
C10   N3    1.439919 S    
C20   H9    1.082203 S    
C25   C26   1.399785 A    
C13   C22   1.479810 S    
C17   C18   1.394894 A    
C34   H18   1.082391 S    
C35   H19   1.082725 S    
C8    H3    1.083433 S    
C19   H8    1.077839 S    
C36   H20   1.067121 S    
C12   C13   1.417672 A    
C9    H4    1.080913 S    
C39   C40   1.418546 A    
