data_mof_unit_4672.cif
_audit_creation_date              2013-03-05T15:45:02-0500
_audit_creation_method            fapswitch 2.2
_symmetry_space_group_name_H-M    P1
_symmetry_Int_Tables_number       1
_space_group_crystal_system       triclinic
_cell_length_a                    9.990324
_cell_length_b                    11.067785
_cell_length_c                    13.042556
_cell_angle_alpha                 87.712464
_cell_angle_beta                  74.212974
_cell_angle_gamma                 111.066071
_cell_volume                      1279.66350094

loop_
_atom_site_label
_atom_site_type_symbol
_atom_site_description
_atom_site_fract_x
_atom_site_fract_y
_atom_site_fract_z
_atom_type_partial_charge
O1    O     O_R   0.578710 0.332530 0.490040 -0.576759
O2    O     O_R   0.421290 0.667470 0.509960 -0.567294
O3    O     O_R   0.329810 0.295070 0.521560 -0.524450
O4    O     O_R   0.670190 0.704930 0.478440 -0.522225
C1    C     C_R   0.438517 0.254114 0.510356 0.746561
C2    C     C_R   0.561876 0.745730 0.488704 0.747722
O5    O     O_R   0.604230 0.515670 0.637800 -0.557045
O6    O     O_R   0.395770 0.484330 0.362200 -0.559938
O7    O     O_R   0.355330 0.478200 0.669330 -0.533270
O8    O     O_R   0.644670 0.521800 0.330670 -0.531647
C3    C     C_R   0.471082 0.496121 0.703118 0.816316
C4    C     C_R   0.529473 0.504198 0.296986 0.816941
Cu1   Cu    Cu3+1 0.647370 0.522180 0.481340 1.163733
Cu2   Cu    Cu3+1 0.352630 0.477820 0.518660 1.164061
C5    C     C_R   0.550870 0.506372 0.180860 -0.181833
C6    C     C_R   0.452099 0.493253 0.819346 -0.182598
C7    C     C_R   0.302465 0.402214 0.005728 -0.147648
C8    C     C_R   0.702286 0.596907 0.994770 -0.150267
C9    C     C_R   0.314182 0.414989 0.896421 0.280041
C10   C     C_R   0.689803 0.584739 0.104415 0.282958
C11   C     C_R   0.574552 0.568165 0.853341 -0.094326
C12   C     C_R   0.430152 0.430092 0.146386 -0.084691
C13   C     C_R   0.571528 0.542248 0.961392 0.034953
C14   C     C_R   0.433350 0.456531 0.038587 0.037198
C15   C     C_2   0.401435 0.113345 0.529484 0.131667
C16   C     C_2   0.601769 0.885993 0.464368 0.146949
C17   C     C_2   0.502534 0.064633 0.475869 -0.107647
C18   C     C_2   0.509847 0.941093 0.520821 -0.109158
N1    N     N_2   0.131210 0.444490 0.546730 -0.121113
N2    N     N_2   0.868790 0.555510 0.453270 -0.117160
C19   C     C_2   0.081806 0.500915 0.481423 0.376025
C20   C     C_2   0.915407 0.477023 0.500926 0.370474
C21   C     C_1   0.314341 0.314826 0.219572 0.293712
N3    N     N_1   0.223252 0.223050 0.278300 -0.140888
C22   C     C_1   0.692601 0.681556 0.779392 0.291043
N4    N     N_1   0.785537 0.771909 0.720055 -0.129401
N5    N     N_R   0.821204 0.648531 0.136811 0.147457
O9    O     O_R   0.883961 0.775824 0.120569 -0.240449
O10   O     O_R   0.897231 0.581238 0.156354 -0.271177
N6    N     N_R   0.182599 0.350609 0.865149 0.145952
O11   O     O_R   0.140925 0.225999 0.859879 -0.238991
O12   O     O_R   0.083490 0.403673 0.876929 -0.264623
C23   C     C_1   0.152036 0.340055 0.081999 0.439634
N7    N     N_1   0.031618 0.290828 0.142098 -0.110309
C24   C     C_1   0.853192 0.656652 0.918896 0.428090
N8    N     N_1   0.974042 0.703995 0.859123 -0.106176
C25   C     C_1   0.423595 0.880375 0.632121 0.366381
N9    N     N_1   0.355985 0.831743 0.720512 -0.168976
C26   C     C_1   0.601130 0.134156 0.369039 0.379449
N10   N     N_1   0.678330 0.190064 0.284185 -0.164814
N11   N     N_R   0.734433 0.958081 0.375641 0.139848
O13   O     O_R   0.759532 0.910000 0.286257 -0.257981
O14   O     O_R   0.843337 0.055664 0.391708 -0.246033
N12   N     N_R   0.262622 0.033565 0.610710 0.139175
O15   O     O_R   0.211082 0.080738 0.695507 -0.243044
O16   O     O_R   0.176435 0.922421 0.592203 -0.252086
N13   N     N_R   0.808392 0.350998 0.558279 0.119162
O17   O     O_R   0.825827 0.246210 0.526659 -0.307956
O18   O     O_R   0.717515 0.341094 0.653750 -0.290724
N14   N     N_R   0.182201 0.570226 0.377413 0.125034
O19   O     O_R   0.149672 0.530756 0.291320 -0.333949
O20   O     O_R   0.285070 0.686004 0.368758 -0.284753
N15   N     N_R   0.968567 0.684558 0.414598 0.253537
O21   O     O_R   0.961880 0.745497 0.330065 -0.174561
O22   O     O_R   0.038895 0.753228 0.476219 -0.273178
N16   N     N_R   0.037239 0.395120 0.651727 0.259592
O23   O     O_R   0.017467 0.279743 0.694973 -0.174327
O24   O     O_R   0.984603 0.469612 0.711044 -0.300200

loop_
_geom_bond_atom_site_label_1
_geom_bond_atom_site_label_2
_geom_bond_distance
_ccdc_geom_bond_type
C19   N14   1.434625 S    
O5    Cu1   1.960237 S    
N2    C20   1.327806 D    
O7    Cu2   1.972782 S    
N15   O22   1.299739 A    
C18   C25   1.458277 S    
C6    C11   1.405675 A    
C11   C22   1.454831 S    
C15   C17   1.355369 D    
C3    C6    1.473207 S    
C16   C18   1.351995 D    
C25   N9    1.157761 T    
C4    C5    1.468829 S    
O6    C4    1.308323 A    
C13   C14   1.430160 A    
N1    N16   1.388244 S    
O3    C1    1.295801 A    
N6    O12   1.300513 A    
N16   O23   1.299369 A    
C5    C12   1.400992 A    
N1    C19   1.329286 D    
O2    C2    1.301588 A    
Cu1   Cu2   2.703721 S    
N15   O21   1.299237 A    
O5    C3    1.305288 A    
C10   N5    1.435144 S    
O7    C3    1.300069 A    
N13   O17   1.299934 A    
C2    C16   1.454847 S    
O3    Cu2   1.949918 S    
O8    C4    1.294680 A    
C20   N13   1.434431 S    
C8    C13   1.422786 A    
C1    C15   1.459659 S    
N2    N15   1.390476 S    
C7    C23   1.452598 S    
N14   O20   1.299815 A    
N6    O11   1.300190 A    
C7    C9    1.395474 A    
N5    O9    1.300666 A    
C21   N3    1.157886 T    
C12   C14   1.414016 A    
C11   C13   1.416867 A    
C23   N7    1.157638 T    
C6    C9    1.406460 A    
C5    C10   1.409041 A    
O2    Cu2   1.947511 S    
O1    C1    1.300350 A    
N13   O18   1.299691 A    
C7    C14   1.419587 A    
O1    Cu1   1.947511 S    
N16   O24   1.302312 A    
Cu2   N1    2.031073 S    
C17   C26   1.458244 S    
N11   O13   1.300573 A    
C8    C24   1.452139 S    
C24   N8    1.157771 T    
Cu1   N2    2.031073 S    
N5    O10   1.301318 A    
C15   N12   1.439025 S    
C8    C10   1.397936 A    
O4    C2    1.292299 A    
C26   N10   1.157733 T    
C9    N6    1.429581 S    
O4    Cu1   1.949918 S    
C12   C21   1.455348 S    
N12   O15   1.300146 A    
N14   O19   1.301134 A    
O6    Cu2   1.960240 S    
N11   O14   1.300574 A    
C16   N11   1.436623 S    
C19   C20   1.531882 S    
C22   N4    1.157914 T    
N12   O16   1.299303 A    
C17   C18   1.499908 S    
O8    Cu1   1.972784 S    
