data_mof_unit_4929.cif
_audit_creation_date              2012-10-26T19:21:08-0400
_audit_creation_method            fapswitch 2.2
_symmetry_space_group_name_H-M    P1
_symmetry_Int_Tables_number       1
_space_group_crystal_system       triclinic
_cell_length_a                    9.870398
_cell_length_b                    10.445685
_cell_length_c                    13.417102
_cell_angle_alpha                 94.01131
_cell_angle_beta                  81.343052
_cell_angle_gamma                 112.42568
_cell_volume                      1264.0420482

loop_
_atom_site_label
_atom_site_type_symbol
_atom_type_description
_atom_site_fract_x
_atom_site_fract_y
_atom_site_fract_z
_atom_type_partial_charge
C1    C     C_R   0.558130 0.751992 0.511946 0.564101
C2    C     C_R   0.369812 0.444230 0.800350 0.016807
C3    C     C_2   0.595217 0.899650 0.549873 0.076295
C4    C     C_R   0.419163 0.473899 0.690233 0.574855
C5    C     C_2   0.555983 0.003969 0.525567 -0.134398
C6    C     C_2   0.413515 0.105302 0.436022 0.067422
C7    C     C_2   0.458298 0.000741 0.452435 -0.124182
C8    C     C_2   0.909397 0.464675 0.513373 0.055949
C9    C     C_2   0.071711 0.499604 0.519320 0.235786
C10   C     C_R   0.443823 0.248531 0.484043 0.564454
C11   C     C_R   0.579747 0.519992 0.310135 0.555857
C12   C     C_R   0.444378 0.486046 0.970587 0.026950
C13   C     C_R   0.792181 0.501251 0.058080 -0.109871
C14   C     C_R   0.628706 0.533134 0.201503 0.019346
C15   C     C_R   0.220553 0.406734 0.843236 0.100024
C16   C     C_R   0.185354 0.414982 0.947435 -0.099152
C17   C     C_R   0.295636 0.459460 0.009927 -0.100182
C18   C     C_R   0.475319 0.457892 0.866459 0.015308
C19   C     C_R   0.556992 0.515326 0.033915 0.045391
C20   C     C_R   0.689379 0.494981 0.994737 0.016988
C21   C     C_R   0.710681 0.452373 0.895459 -0.078123
C22   C     C_R   0.600272 0.423208 0.835155 0.115924
C23   C     C_R   0.540111 0.554999 0.136510 0.071990
C24   C     C_R   0.758191 0.512567 0.161445 -0.126476
Cu1   Cu    Cu3+1 0.362000 0.479240 0.482530 1.060749
Cu2   Cu    Cu3+1 0.638000 0.520760 0.517470 1.059308
H1    H     H_    0.831343 0.501643 0.209999 0.146176
H2    H     H_    0.607494 0.103557 0.560152 0.183214
H3    H     H_    0.843875 0.361385 0.488645 0.106580
H4    H     H_    0.103819 0.381163 0.400985 0.199661
H5    H     H_    0.804570 0.423521 0.869070 0.163524
H6    H     H_    0.892557 0.484668 0.028573 0.123329
H7    H     H_    0.259794 0.455717 0.090031 0.154528
H8    H     H_    0.070843 0.381562 0.980948 0.132308
H9    H     H_    0.418612 0.905957 0.408112 0.190732
I1    I     I_    0.278039 0.060085 0.318735 -0.263951
I2    I     I_    0.740997 0.956687 0.661439 -0.188770
I3    I     I_    0.151661 0.639447 0.643899 -0.184671
I4    I     I_    0.975492 0.753624 0.490703 -0.132933
I5    I     I_    0.428662 0.693895 0.187055 -0.321996
I6    I     I_    0.039897 0.298055 0.762801 -0.264655
I7    I     I_    0.586655 0.254004 0.737087 -0.294384
N1    N     N_2   0.845330 0.551960 0.543750 -0.127184
N2    N     N_2   0.154690 0.448120 0.456210 -0.329535
O1    O     O_R   0.426290 0.668220 0.490680 -0.466903
O2    O     O_R   0.659360 0.703290 0.520190 -0.441921
O3    O     O_R   0.326580 0.473880 0.629020 -0.450733
O4    O     O_R   0.559660 0.508940 0.658530 -0.466849
O5    O     O_R   0.340640 0.296710 0.479810 -0.449528
O6    O     O_R   0.573710 0.331780 0.509320 -0.511006
O7    O     O_R   0.440340 0.491060 0.341470 -0.469888
O8    O     O_R   0.673420 0.526120 0.370980 -0.506266

loop_
_geom_bond_atom_site_label_1
_geom_bond_atom_site_label_2
_ccdc_geom_bond_type
C14   C23   A    
C6    C10   S    
C2    C4    S    
Cu1   O7    S    
C6    C7    D    
Cu2   O8    S    
C2    C18   A    
C5    H2    S    
Cu1   O3    S    
C13   H6    S    
C19   C23   A    
C19   C20   A    
C8    N1    D    
Cu2   O4    S    
C3    C5    D    
C24   H1    S    
H4    N2    S    
C21   C22   A    
C12   C17   A    
C2    C15   A    
C21   H5    S    
C1    O1    A    
C22   I7    S    
C17   H7    S    
C8    H3    S    
C12   C19   A    
C9    I3    S    
C6    I1    S    
Cu2   N1    S    
Cu2   O6    S    
C13   C24   A    
C11   C14   S    
Cu1   O5    S    
C1    O2    A    
C11   O7    A    
Cu2   O2    S    
C15   I6    S    
C14   C24   A    
C15   C16   A    
C10   O6    A    
Cu1   O1    S    
C20   C21   A    
Cu1   N2    S    
C4    O4    A    
C12   C18   A    
C5    C7    S    
C16   C17   A    
C9    N2    D    
I4    N1    S    
C11   O8    A    
C13   C20   A    
C16   H8    S    
Cu1   Cu2   S    
C18   C22   A    
C10   O5    A    
C7    H9    S    
C23   I5    S    
C3    I2    S    
C8    C9    S    
C1    C3    S    
C4    O3    A    
