data_mof_unit_962.cif
_audit_creation_date              2012-12-11T14:08:24-0500
_audit_creation_method            fapswitch 2.2
_symmetry_space_group_name_H-M    P1
_symmetry_Int_Tables_number       1
_space_group_crystal_system       triclinic
_cell_length_a                    28.268032
_cell_length_b                    7.187617
_cell_length_c                    17.179995
_cell_angle_alpha                 90.005119
_cell_angle_beta                  102.275501
_cell_angle_gamma                 90.000688
_cell_volume                      3410.82000818

loop_
_atom_site_label
_atom_site_type_symbol
_atom_type_description
_atom_site_fract_x
_atom_site_fract_y
_atom_site_fract_z
_atom_type_partial_charge
O1    O     O_R   0.000700 0.436510 0.857920 -0.533455
O2    O     O_R   0.999300 0.563490 0.142080 -0.533450
O3    O     O_R   0.999300 0.936510 0.642080 -0.533373
O4    O     O_R   0.000700 0.063490 0.357920 -0.533425
O5    O     O_R   0.930080 0.766380 0.721890 -0.542212
O6    O     O_R   0.069920 0.233620 0.278110 -0.542290
O7    O     O_R   0.069920 0.266380 0.778110 -0.542413
O8    O     O_R   0.930080 0.733620 0.221890 -0.542187
C1    C     C_R   0.910550 0.597274 0.708964 0.698998
C2    C     C_R   0.089429 0.402367 0.291506 0.699352
C3    C     C_R   0.089434 0.097582 0.791128 0.699762
C4    C     C_R   0.910586 0.902655 0.208419 0.699157
O9    O     O_R   0.996180 0.766230 0.862310 -0.543017
O10   O     O_R   0.003820 0.233770 0.137690 -0.543093
O11   O     O_R   0.003820 0.266230 0.637690 -0.543018
O12   O     O_R   0.996180 0.733770 0.362310 -0.542908
O13   O     O_R   0.065870 0.936460 0.783500 -0.539595
O14   O     O_R   0.934130 0.063540 0.216500 -0.539845
O15   O     O_R   0.934130 0.436460 0.716500 -0.539771
O16   O     O_R   0.065870 0.563540 0.283500 -0.539629
C5    C     C_R   0.998488 0.596457 0.894500 0.762797
C6    C     C_R   0.001510 0.403542 0.105499 0.762579
C7    C     C_R   0.001512 0.096450 0.605502 0.762742
C8    C     C_R   0.998490 0.903550 0.394498 0.763307
O17   O     O_3   0.022790 0.603020 0.723980 -0.377974
O18   O     O_3   0.977210 0.396980 0.276020 -0.377913
O19   O     O_3   0.977210 0.103020 0.776020 -0.378083
O20   O     O_3   0.022790 0.896980 0.223980 -0.378103
V1    V     V_3+5 0.995770 0.877900 0.754830 1.420819
V2    V     V_3+5 0.004230 0.122100 0.245170 1.420434
V3    V     V_3+5 0.004230 0.377900 0.745170 1.420728
V4    V     V_3+5 0.995770 0.622100 0.254830 1.420784
C9    C     C_2   0.001711 0.082711 0.519565 -0.325476
C10   C     C_2   0.998295 0.917288 0.480437 -0.325456
C11   C     C_2   0.998290 0.582715 0.980440 -0.325534
C12   C     C_2   0.001704 0.417283 0.019558 -0.325683
H1    H     H_    0.004510 0.211666 0.487890 0.153798
H2    H     H_    0.995497 0.788334 0.512112 0.153843
H3    H     H_    0.995493 0.711669 0.012125 0.153724
H4    H     H_    0.004500 0.288329 0.987873 0.153812
C13   C     C_R   0.684626 0.000232 0.020696 0.661619
C14   C     C_R   0.315812 0.994832 0.972450 0.665579
C15   C     C_R   0.315341 0.504296 0.478212 0.664167
C16   C     C_R   0.684026 0.502527 0.527628 0.659109
O21   O     O_2   0.715544 0.028734 0.972271 -0.434691
O22   O     O_2   0.284805 0.948882 0.018776 -0.436193
O23   O     O_2   0.284134 0.552305 0.523878 -0.436518
O24   O     O_2   0.714833 0.471757 0.479190 -0.435589
N1    N     N_R   0.703641 0.957095 0.098747 -0.587593
N2    N     N_R   0.296896 0.057002 0.896843 -0.584749
N3    N     N_R   0.296658 0.441217 0.402616 -0.580428
N4    N     N_R   0.703164 0.542317 0.605968 -0.588772
C17   C     C_R   0.674623 0.931351 0.151846 0.649813
C18   C     C_R   0.326166 0.108744 0.846918 0.647729
C19   C     C_R   0.326160 0.388353 0.353215 0.612957
C20   C     C_R   0.674236 0.565242 0.659445 0.656515
C21   C     C_R   0.777358 0.768418 0.146056 -0.052675
C22   C     C_R   0.217064 0.904615 0.857622 -0.050473
C23   C     C_R   0.221592 0.258424 0.358450 -0.051261
C24   C     C_R   0.783922 0.396995 0.640090 -0.053596
C25   C     C_R   0.827651 0.754620 0.173071 -0.182042
C26   C     C_R   0.166737 0.914318 0.831848 -0.184140
C27   C     C_R   0.171318 0.248736 0.331036 -0.182721
C28   C     C_R   0.834196 0.410486 0.665110 -0.183150
C29   C     C_R   0.834502 0.089000 0.161345 -0.182230
C30   C     C_R   0.171490 0.250673 0.828225 -0.180645
C31   C     C_R   0.166735 0.585120 0.334239 -0.181266
C32   C     C_R   0.827488 0.744975 0.676594 -0.180581
C33   C     C_R   0.784375 0.102208 0.134161 -0.059640
C34   C     C_R   0.221866 0.240516 0.854007 -0.054910
C35   C     C_R   0.216976 0.594367 0.361644 -0.061383
C36   C     C_R   0.777052 0.730898 0.651723 -0.056994
C37   C     C_R   0.755464 0.942272 0.126182 0.358455
C38   C     C_R   0.244980 0.067496 0.869159 0.357969
C39   C     C_R   0.244766 0.431222 0.374186 0.360394
C40   C     C_R   0.755018 0.556876 0.632986 0.359633
C41   C     C_R   0.603101 0.986051 0.046951 -0.106192
C42   C     C_R   0.397530 0.034598 0.949368 -0.109092
C43   C     C_R   0.397233 0.463330 0.456102 -0.103505
C44   C     C_R   0.602614 0.515037 0.554238 -0.108335
C45   C     C_R   0.633505 0.014725 0.991783 -0.156919
C46   C     C_R   0.366910 0.980763 0.001366 -0.170143
C47   C     C_R   0.366435 0.517350 0.507765 -0.154964
C48   C     C_R   0.632904 0.491885 0.498550 -0.160017
C49   C     C_R   0.611219 0.054936 0.910887 0.439254
C50   C     C_R   0.388936 0.914743 0.079015 0.473915
C51   C     C_R   0.388313 0.582869 0.585643 0.440709
C52   C     C_R   0.610523 0.460951 0.416936 0.442191
C53   C     C_R   0.624169 0.944638 0.127209 -0.021260
C54   C     C_R   0.376668 0.099817 0.872142 -0.001989
C55   C     C_R   0.376623 0.397801 0.378806 -0.048801
C56   C     C_R   0.623736 0.551864 0.634900 -0.008831
C57   C     C_R   0.856965 0.914960 0.181082 -0.056250
C58   C     C_R   0.143155 0.087593 0.817008 -0.057067
C59   C     C_R   0.143108 0.412061 0.318711 -0.056655
C60   C     C_R   0.856813 0.584757 0.683494 -0.056763
H5    H     H_    0.855596 0.215861 0.166477 0.135718
H6    H     H_    0.154818 0.386525 0.817564 0.135043
H7    H     H_    0.146470 0.714013 0.325560 0.135284
H8    H     H_    0.843415 0.881286 0.690199 0.135425
H9    H     H_    0.767920 0.237301 0.119459 0.128655
H10   H     H_    0.242954 0.367499 0.862813 0.134894
H11   H     H_    0.234371 0.728799 0.373104 0.128707
H12   H     H_    0.755087 0.855566 0.646423 0.135046
C61   C     C_R   0.478982 0.071921 0.920101 0.078804
C62   C     C_R   0.521796 0.963906 0.078096 0.079325
C63   C     C_R   0.521319 0.532694 0.585633 0.077406
C64   C     C_R   0.478758 0.429297 0.427058 0.072001
C65   C     C_R   0.470319 0.965320 0.052130 -0.032996
C66   C     C_R   0.530251 0.048528 0.943265 -0.018990
C67   C     C_R   0.529857 0.455756 0.450126 -0.018618
C68   C     C_R   0.469838 0.531706 0.559440 -0.017102
C69   C     C_R   0.449058 0.023877 0.974010 0.075582
C70   C     C_R   0.551599 0.999414 0.022604 0.079542
C71   C     C_R   0.551155 0.501166 0.529872 0.079518
C72   C     C_R   0.448713 0.474692 0.481046 0.077105
C73   C     C_R   0.456453 0.143951 0.844727 -0.183310
C74   C     C_R   0.544682 0.930078 0.158350 -0.193709
C75   C     C_R   0.544166 0.562600 0.666207 -0.190016
C76   C     C_R   0.456587 0.356663 0.351685 -0.157486
C77   C     C_R   0.406498 0.156358 0.821311 -0.054605
C78   C     C_R   0.594638 0.919631 0.182035 -0.064005
C79   C     C_R   0.594183 0.572689 0.690029 -0.047589
C80   C     C_R   0.406676 0.342017 0.328163 -0.066305
O25   O     O_2   0.306330 0.166952 0.772435 -0.455908
O26   O     O_2   0.694729 0.894977 0.228823 -0.449330
O27   O     O_2   0.694454 0.598553 0.736641 -0.447589
O28   O     O_2   0.306593 0.328798 0.278811 -0.462691
C81   C     C_R   0.560776 0.069923 0.888810 -0.282513
C82   C     C_R   0.439444 0.906876 0.101892 -0.261367
C83   C     C_R   0.438853 0.589477 0.609099 -0.284571
C84   C     C_R   0.560154 0.442983 0.394975 -0.277876
H13   H     H_    0.146377 0.785598 0.823901 0.135603
H14   H     H_    0.843475 0.618456 0.187537 0.135470
H15   H     H_    0.855279 0.283682 0.669571 0.135798
H16   H     H_    0.154619 0.113008 0.319991 0.134749
H17   H     H_    0.234425 0.770051 0.868760 0.131834
H18   H     H_    0.755379 0.643733 0.140266 0.135675
H19   H     H_    0.767368 0.261824 0.626046 0.128814
H20   H     H_    0.242563 0.131220 0.367919 0.133100
H21   H     H_    0.391307 0.211257 0.762560 0.191316
H22   H     H_    0.610074 0.892610 0.244307 0.211541
H23   H     H_    0.609651 0.596600 0.752543 0.197566
H24   H     H_    0.391696 0.286704 0.269406 0.207212
H25   H     H_    0.476377 0.196889 0.802570 0.124974
H26   H     H_    0.525140 0.915851 0.205428 0.133153
H27   H     H_    0.524470 0.573755 0.713247 0.123571
H28   H     H_    0.476922 0.304660 0.309870 0.126274
H29   H     H_    0.545735 0.093520 0.826840 0.162741
H30   H     H_    0.454134 0.847872 0.159294 0.185480
H31   H     H_    0.453562 0.647869 0.666667 0.162389
H32   H     H_    0.544813 0.426204 0.332606 0.160688
S1    S     S_3+6 0.643194 0.088265 0.832909 0.064786
O29   O     O_2   0.675285 0.256346 0.851010 -0.250044
O30   O     O_2   0.673850 0.920528 0.826312 -0.273919
O31   O     O_3   0.605179 0.122683 0.744351 -0.511764
H33   H     H_    0.593960 0.996878 0.725262 0.326495
S2    S     S_3+6 0.356588 0.838396 0.151759 0.058613
O32   O     O_2   0.326162 0.995537 0.171848 -0.271838
O33   O     O_2   0.324594 0.676907 0.119383 -0.273920
O34   O     O_3   0.394666 0.769878 0.236014 -0.527789
H34   H     H_    0.373780 0.748164 0.274691 0.362725
S3    S     S_3+6 0.355724 0.661473 0.657707 0.072298
O35   O     O_2   0.324613 0.824833 0.624878 -0.253021
O36   O     O_2   0.324026 0.507841 0.677132 -0.272863
O37   O     O_3   0.393316 0.729180 0.742635 -0.508656
H35   H     H_    0.403541 0.612711 0.772316 0.323750
S4    S     S_3+6 0.642201 0.450121 0.337674 0.068443
O38   O     O_2   0.673609 0.619465 0.339882 -0.243906
O39   O     O_2   0.673527 0.279031 0.346685 -0.279713
O40   O     O_3   0.603865 0.443295 0.248090 -0.509720
H36   H     H_    0.594856 0.310631 0.239164 0.330899

loop_
_geom_bond_atom_site_label_1
_geom_bond_atom_site_label_2
_ccdc_geom_bond_type
O17   V3    S    
C51   S3    S    
C61   C66   A    
N1    C17   A    
O1    C5    A    
C30   H6    S    
O19   V1    S    
O13   V1    S    
C63   C68   A    
C64   C76   A    
C83   H31   S    
C11   C12   D    
C14   C46   A    
C44   C48   A    
O15   V3    S    
C75   C79   A    
O34   H34   S    
O4    V2    S    
C30   C34   A    
C42   C54   A    
O7    C3    A    
C41   C53   A    
C32   C60   A    
C62   C70   A    
C23   H20   S    
C26   H13   S    
C73   H25   S    
O31   H33   S    
S3    O36   D    
N3    C39   S    
C18   C54   A    
N2    C38   S    
C74   C78   A    
O4    C8    A    
C25   C57   A    
C31   C35   A    
C53   C78   A    
C75   H27   S    
C81   H29   S    
C27   C59   A    
O1    V3    S    
C15   C47   A    
C66   C81   A    
O2    V4    S    
C14   O22   S    
C20   O27   S    
C21   C37   A    
O3    V1    S    
C73   C77   A    
C34   C38   A    
C19   C55   A    
S2    O34   S    
C49   C81   A    
O3    C7    A    
C1    O15   A    
S4    O40   S    
C82   H30   S    
S3    O35   D    
C2    O16   A    
C52   S4    S    
O2    C6    A    
C33   C37   A    
O14   V2    S    
C41   C45   A    
O40   H36   S    
S1    O30   D    
C66   C70   A    
C43   C55   A    
C65   C69   A    
C30   C58   A    
C16   N4    A    
S4    O39   D    
C28   H15   S    
O12   C8    A    
C43   C72   A    
C62   C74   A    
S2    O33   D    
C61   C73   A    
O10   V2    S    
C63   C75   A    
C25   H14   S    
O5    V1    S    
C18   O25   S    
O7    V3    S    
O8    V4    S    
C77   H21   S    
C12   H4    S    
S3    O37   S    
C28   C60   A    
C56   C79   A    
O18   V4    S    
C50   C82   A    
C36   H12   S    
C7    C9    S    
C46   C50   A    
C24   C40   A    
C8    C10   S    
O9    V1    S    
C76   C80   A    
C32   C36   A    
C52   C84   A    
C44   C56   A    
C11   H3    S    
C32   H8    S    
O5    C1    A    
C42   C46   A    
C44   C71   A    
C74   H26   S    
O8    C4    A    
C13   C45   A    
C9    C10   D    
O9    C5    A    
C36   C40   A    
C49   S1    S    
S1    O31   S    
O11   V3    S    
C50   S2    S    
C1    C60   S    
C63   C71   A    
C51   C83   A    
C22   C26   A    
C14   N2    A    
C22   H17   S    
S4    O38   D    
O6    V2    S    
C31   C59   A    
C76   H28   S    
C33   H9    S    
C55   C80   A    
C26   C58   A    
C17   C53   A    
S2    O32   D    
C84   H32   S    
C54   C77   A    
N1    C37   S    
C4    C57   S    
C42   C69   A    
C78   H22   S    
O10   C6    A    
C79   H23   S    
C41   C70   A    
C23   C39   A    
C68   C72   A    
C22   C38   A    
O16   V4    S    
C61   C69   A    
C35   H11   S    
C3    O13   A    
C10   H2    S    
C48   C52   A    
C3    C58   S    
C16   C48   A    
C47   C51   A    
O6    C2    A    
C34   H10   S    
C21   C25   A    
C5    C11   S    
C31   H7    S    
O12   V4    S    
C13   N1    A    
C6    C12   S    
C23   C27   A    
C64   C67   A    
N4    C40   S    
C24   C28   A    
C27   H16   S    
C64   C72   A    
O20   V2    S    
C29   H5    S    
N2    C18   A    
C35   C39   A    
C15   N3    A    
O37   H35   S    
C2    C59   S    
C29   C33   A    
O11   C7    A    
C29   C57   A    
C21   H18   S    
N3    C19   A    
C68   C83   A    
C9    H1    S    
C17   O26   S    
C24   H19   S    
C43   C47   A    
N4    C20   A    
C67   C84   A    
C20   C56   A    
C19   O28   S    
C4    O14   A    
C65   C82   A    
C13   O21   S    
C80   H24   S    
C67   C71   A    
S1    O29   D    
C15   O23   S    
C45   C49   A    
C16   O24   S    
C62   C65   A    
