data_mof_unit_26.cif
_audit_creation_date              2013-03-05T15:47:14-0500
_audit_creation_method            fapswitch 2.2
_symmetry_space_group_name_H-M    P1
_symmetry_Int_Tables_number       1
_space_group_crystal_system       triclinic
_cell_length_a                    27.740288
_cell_length_b                    11.083539
_cell_length_c                    9.778674
_cell_angle_alpha                 110.531206
_cell_angle_beta                  98.150258
_cell_angle_gamma                 91.649967
_cell_volume                      2777.13129529

loop_
_atom_site_label
_atom_site_type_symbol
_atom_site_description
_atom_site_fract_x
_atom_site_fract_y
_atom_site_fract_z
_atom_type_partial_charge
O1    O     O_R   0.504520 0.332330 0.577400 -0.547392
O2    O     O_R   0.495480 0.667670 0.422600 -0.565515
O3    O     O_R   0.490210 0.295500 0.332650 -0.589534
O4    O     O_R   0.509790 0.704500 0.667350 -0.592679
C1    C     C_R   0.496282 0.254566 0.442521 0.901958
C2    C     C_R   0.502190 0.744772 0.558356 0.896037
O5    O     O_R   0.437420 0.518430 0.622370 -0.552781
O6    O     O_R   0.562580 0.481570 0.377630 -0.568531
O7    O     O_R   0.423110 0.481600 0.377610 -0.552383
O8    O     O_R   0.576890 0.518400 0.622390 -0.588891
C3    C     C_R   0.407565 0.501619 0.501802 0.882521
C4    C     C_R   0.592292 0.496730 0.498005 0.953926
Cu1   Cu    Cu3+1 0.508480 0.521810 0.644910 0.965262
Cu2   Cu    Cu3+1 0.491520 0.478190 0.355090 0.961208
C5    C     C_R   0.179063 0.397170 0.525302 0.525488
C6    C     C_R   0.827857 0.587289 0.613825 0.533697
O9    O     O_2   0.203387 0.290924 0.512166 -0.564035
O10   O     O_2   0.807544 0.690658 0.698776 -0.570144
N1    N     N_R   0.203510 0.509510 0.535267 -0.434551
N2    N     N_R   0.799034 0.477591 0.524817 -0.429987
C7    C     C_R   0.180086 0.619720 0.552975 0.652070
C8    C     C_R   0.819448 0.369333 0.444323 0.662880
C9    C     C_R   0.289146 0.590360 0.646537 0.391688
C10   C     C_R   0.718306 0.382317 0.536616 0.372250
C11   C     C_R   0.339000 0.592609 0.635234 0.244924
C12   C     C_R   0.666759 0.379702 0.511248 0.218572
C13   C     C_R   0.320417 0.425739 0.388801 0.349481
C14   C     C_R   0.672984 0.587549 0.478894 0.345801
C15   C     C_R   0.270589 0.431248 0.397062 -0.270400
C16   C     C_R   0.723305 0.576558 0.476871 -0.308449
C17   C     C_R   0.254772 0.511320 0.525809 0.136577
C18   C     C_R   0.746533 0.478208 0.512251 0.157269
C19   C     C_R   0.104184 0.505002 0.551100 -0.116924
C20   C     C_R   0.900198 0.481493 0.539780 -0.118351
C21   C     C_R   0.128737 0.391504 0.527337 0.024638
C22   C     C_R   0.878501 0.593418 0.616671 0.024755
C23   C     C_R   0.102651 0.274921 0.506764 -0.192248
C24   C     C_R   0.907872 0.708485 0.696190 -0.184308
C25   C     C_R   0.130451 0.622661 0.572309 -0.211483
C26   C     C_R   0.870702 0.365879 0.459342 -0.224943
C27   C     C_R   0.354977 0.507209 0.507864 -0.299363
C28   C     C_R   0.644726 0.487345 0.494136 -0.233468
C29   C     C_R   0.974237 0.370794 0.484429 -0.137358
C30   C     C_R   0.029246 0.614674 0.588224 -0.108271
C31   C     C_R   0.979534 0.606854 0.605934 0.140673
C32   C     C_R   0.026194 0.377665 0.509367 0.110033
C33   C     C_R   0.951418 0.486036 0.543409 0.011918
C34   C     C_R   0.053245 0.499528 0.551014 0.008631
C35   C     C_R   0.944122 0.254663 0.401010 0.299012
C36   C     C_R   0.054735 0.732850 0.602653 0.325546
C37   C     C_R   0.893097 0.251570 0.393431 0.374786
C38   C     C_R   0.106072 0.737874 0.604255 0.371050
O11   O     O_2   0.790234 0.267014 0.346999 -0.485555
O12   O     O_2   0.204562 0.724420 0.547395 -0.483510
C39   C     C_R   0.052190 0.267932 0.497225 -0.176814
C40   C     C_R   0.957560 0.715110 0.689963 -0.153686
C41   C     C_2   0.491773 0.117070 0.416277 -0.461217
C42   C     C_2   0.507290 0.881367 0.588210 -0.390506
C43   C     C_2   0.495334 0.071622 0.528475 0.385093
C44   C     C_2   0.482810 0.933489 0.497586 0.365452
N3    N     N_2   0.478780 0.445430 0.137360 -0.295045
N4    N     N_2   0.521220 0.554570 0.862640 -0.294706
C45   C     C_2   0.503999 0.511418 0.081406 -0.107339
C46   C     C_2   0.495470 0.490058 0.918962 -0.035102
O13   O     O_3   0.335190 0.341206 0.263219 -0.555693
C47   C     C_3   0.336391 0.217963 0.275230 0.099987
H1    H     H_    0.299039 0.178793 0.276122 0.159287
H2    H     H_    0.361091 0.221969 0.377496 0.133472
C48   C     C_3   0.355660 0.125312 0.142897 -0.787603
H3    H     H_    0.393615 0.159189 0.141574 0.252163
H4    H     H_    0.355578 0.027606 0.150279 0.198192
H5    H     H_    0.332068 0.119166 0.038537 0.254798
O14   O     O_3   0.649832 0.691251 0.459478 -0.579569
C49   C     C_3   0.677692 0.810269 0.541406 0.090091
H6    H     H_    0.701453 0.834598 0.470620 0.153408
H7    H     H_    0.700664 0.809953 0.644748 0.169170
C50   C     C_3   0.643155 0.915198 0.587380 -0.849502
H8    H     H_    0.621882 0.897948 0.667742 0.241399
H9    H     H_    0.664159 0.011259 0.640184 0.213092
H10   H     H_    0.617581 0.913888 0.488804 0.250684
H11   H     H_    0.534895 0.936686 0.680472 0.130089
H12   H     H_    0.485815 0.052711 0.302177 0.101919
H13   H     H_    0.466972 0.417794 0.846155 0.186682
H14   H     H_    0.532228 0.584414 0.154418 0.175851
H15   H     H_    0.548087 0.622489 0.934236 0.190817
H16   H     H_    0.452178 0.376751 0.065605 0.210653
H17   H     H_    0.244070 0.370474 0.304108 0.185871
H18   H     H_    0.744985 0.647394 0.453163 0.175809
H19   H     H_    0.120988 0.187627 0.494698 0.194200
H20   H     H_    0.892488 0.794667 0.761290 0.180820
O15   O     O_3   0.637370 0.272216 0.500420 -0.611604
C51   C     C_3   0.647630 0.162056 0.383115 0.139696
H21   H     H_    0.671169 0.101873 0.429811 0.190619
H22   H     H_    0.666306 0.185727 0.300444 0.159620
C52   C     C_3   0.600333 0.081787 0.298801 -0.882167
H23   H     H_    0.575870 0.140431 0.252442 0.263033
H24   H     H_    0.608265 0.995953 0.206590 0.214531
H25   H     H_    0.581884 0.048182 0.373655 0.232972
O16   O     O_3   0.372190 0.674627 0.752714 -0.562788
C53   C     C_3   0.379565 0.792311 0.729971 0.141372
H26   H     H_    0.344960 0.840893 0.728917 0.173655
H27   H     H_    0.393510 0.776488 0.624063 0.150440
C54   C     C_3   0.417286 0.881834 0.855765 -0.793048
H28   H     H_    0.452374 0.836464 0.859761 0.261643
H29   H     H_    0.423574 0.974823 0.839118 0.218743
H30   H     H_    0.404026 0.901165 0.962624 0.234942
O17   O     O_3   0.741078 0.285980 0.573544 -0.562331
C55   C     C_3   0.738930 0.306194 0.723171 0.056383
H31   H     H_    0.700578 0.291847 0.739605 0.168569
H32   H     H_    0.754771 0.405232 0.796696 0.149860
C56   C     C_3   0.768535 0.208764 0.767952 -0.782691
H33   H     H_    0.807412 0.223354 0.757285 0.240067
H34   H     H_    0.766351 0.221608 0.884692 0.220418
H35   H     H_    0.753981 0.108786 0.695755 0.243335
O18   O     O_3   0.273757 0.671855 0.772700 -0.558833
C57   C     C_3   0.274992 0.608487 0.875434 0.077235
H36   H     H_    0.312735 0.584284 0.906150 0.171499
H37   H     H_    0.249864 0.518349 0.829815 0.151059
C58   C     C_3   0.258434 0.697737 0.015140 -0.774888
H38   H     H_    0.220380 0.721201 0.988821 0.237724
H39   H     H_    0.259763 0.649624 0.097768 0.216226
H40   H     H_    0.282839 0.788726 0.063302 0.250986
O19   O     O_3   0.865354 0.135398 0.316734 -0.523409
C59   C     C_3   0.861603 0.069329 0.415363 0.140883
H41   H     H_    0.846580 0.130093 0.514750 0.139178
H42   H     H_    0.897942 0.040474 0.451309 0.149657
C60   C     C_3   0.827161 0.947584 0.337435 -0.722501
H43   H     H_    0.841283 0.883741 0.238484 0.251599
H44   H     H_    0.824220 0.894524 0.413864 0.185782
H45   H     H_    0.790263 0.973534 0.302474 0.262360
O20   O     O_3   0.131642 0.854203 0.627584 -0.545507
C61   C     C_3   0.155126 0.906313 0.776987 0.066589
H46   H     H_    0.181941 0.841570 0.803062 0.188584
H47   H     H_    0.128306 0.922196 0.854739 0.091652
C62   C     C_3   0.182553 0.035678 0.804743 -0.708891
H48   H     H_    0.156680 0.104107 0.783429 0.224604
H49   H     H_    0.201215 0.077275 0.921502 0.194388
H50   H     H_    0.210393 0.022306 0.730623 0.277534
O21   O     O_3   0.963383 0.143218 0.319962 -0.585781
C63   C     C_3   0.966789 0.147005 0.178829 0.119864
H51   H     H_    0.990878 0.232615 0.187776 0.138472
H52   H     H_    0.929953 0.149766 0.117822 0.165143
C64   C     C_3   0.988749 0.025790 0.089755 -0.798080
H53   H     H_    0.965258 0.938355 0.077004 0.260903
H54   H     H_    0.991442 0.027727 0.978472 0.187647
H55   H     H_    0.025913 0.021203 0.146646 0.251858
O22   O     O_3   0.027076 0.826097 0.571412 -0.554402
C65   C     C_3   0.039195 0.951849 0.678137 0.113906
H56   H     H_    0.069961 0.000688 0.651117 0.207021
H57   H     H_    0.048005 0.951221 0.792476 0.104780
C66   C     C_3   0.995862 0.032300 0.672077 -0.860790
H58   H     H_    0.963773 0.991802 0.702710 0.238799
H59   H     H_    0.005671 0.133273 0.750119 0.204528
H60   H     H_    0.985662 0.032999 0.558468 0.275815
H61   H     H_    0.034440 0.176332 0.485483 0.200874
H62   H     H_    0.979003 0.804008 0.757248 0.156389
O23   O     O_3   0.438311 0.871299 0.412858 -0.584714
C67   C     C_3   0.440139 0.828792 0.259706 0.064453
H63   H     H_    0.477250 0.803882 0.233095 0.137699
H64   H     H_    0.427344 0.903850 0.215818 0.143923
C68   C     C_3   0.404281 0.710093 0.179392 -0.733284
H65   H     H_    0.366560 0.734546 0.197167 0.237034
H66   H     H_    0.405609 0.675452 0.058854 0.224527
H67   H     H_    0.413625 0.631610 0.221302 0.281939
O24   O     O_3   0.508242 0.152965 0.676302 -0.568222
C69   C     C_3   0.559914 0.177401 0.715116 0.094376
H68   H     H_    0.572645 0.265810 0.697776 0.219761
H69   H     H_    0.579957 0.097711 0.649849 0.123829
C70   C     C_3   0.574876 0.199254 0.878540 -0.811822
H70   H     H_    0.563317 0.112857 0.902136 0.241322
H71   H     H_    0.615218 0.218228 0.909285 0.206538
H72   H     H_    0.557671 0.283725 0.947158 0.263099

loop_
_geom_bond_atom_site_label_1
_geom_bond_atom_site_label_2
_geom_bond_distance
_ccdc_geom_bond_type
C36   O22   1.396724 S    
C62   H50   1.110704 S    
C47   H2    1.115500 S    
O24   C69   1.422449 S    
C64   H55   1.111373 S    
C37   O19   1.383686 S    
C70   H70   1.109649 S    
C2    C42   1.436391 S    
C52   H23   1.110558 S    
C65   C66   1.523854 S    
O22   C65   1.413526 S    
C40   H62   1.076157 S    
N1    C17   1.438083 S    
C60   H44   1.110806 S    
C68   H65   1.110604 S    
C52   H25   1.105866 S    
O19   C59   1.413055 S    
C56   H34   1.110508 S    
C50   H8    1.110283 S    
C57   H36   1.114402 S    
C39   H61   1.076937 S    
C19   C25   1.409712 A    
C49   H7    1.116837 S    
O1    C1    1.280821 A    
N1    C7    1.368777 A    
C10   C12   1.413895 A    
C7    O12   1.349142 S    
C66   H60   1.109668 S    
C47   C48   1.520019 S    
C13   C15   1.397842 A    
C42   C44   1.338380 D    
O18   C57   1.410756 S    
C64   H54   1.108858 S    
O21   C63   1.411647 S    
C55   H31   1.113398 S    
C5    O9    1.350082 S    
O14   C49   1.415517 S    
C31   C33   1.416216 A    
C14   C28   1.403290 A    
O4    Cu1   1.957380 S    
C48   H4    1.110262 S    
C53   H26   1.114639 S    
C4    C28   1.466116 S    
C67   C68   1.521669 S    
C67   H64   1.107466 S    
O23   C67   1.412589 S    
Cu1   N4    2.006703 S    
C56   H33   1.110750 S    
C31   C40   1.406775 A    
C57   H37   1.114493 S    
C61   H46   1.112900 S    
C35   C37   1.405660 A    
C49   C50   1.513975 S    
C32   C39   1.409560 A    
C36   C38   1.421239 A    
C66   H58   1.109277 S    
C63   C64   1.520357 S    
C56   H35   1.110859 S    
N4    C46   1.297383 D    
C43   O24   1.396837 S    
C6    N2    1.370952 A    
C58   H39   1.110636 S    
C25   C38   1.419662 A    
C43   C44   1.473484 S    
Cu1   Cu2   2.671089 S    
C69   H69   1.109079 S    
C70   H71   1.110697 S    
O2    C2    1.285400 A    
C14   O14   1.389462 S    
C5    C21   1.398930 A    
C68   H66   1.110757 S    
C11   O16   1.383175 S    
O5    C3    1.292593 A    
C8    O11   1.349047 S    
C50   H9    1.110421 S    
N4    H15   1.030726 S    
C32   C34   1.422107 A    
C49   H6    1.111919 S    
C57   C58   1.520535 S    
C62   H48   1.110682 S    
C47   H1    1.114208 S    
C63   H51   1.114998 S    
O4    C2    1.286492 A    
C42   H11   1.079513 S    
C11   C27   1.413292 A    
O15   C51   1.420478 S    
C29   C35   1.424223 A    
C12   O15   1.387889 S    
Cu2   N3    2.006701 S    
C51   C52   1.517965 S    
C9    C17   1.406308 A    
C53   C54   1.520439 S    
C48   H5    1.110719 S    
C5    N1    1.366485 A    
O7    Cu2   1.941137 S    
C10   C18   1.407847 A    
C46   H13   1.085029 S    
C13   O13   1.382589 S    
C13   C27   1.409339 A    
O16   C53   1.411971 S    
C7    C25   1.415859 A    
O6    C4    1.292816 A    
C8    C26   1.411546 A    
C53   H27   1.114926 S    
C54   H29   1.111095 S    
C10   O17   1.383538 S    
C65   H56   1.108560 S    
O7    C3    1.294222 A    
O3    Cu2   1.957379 S    
O8    C4    1.291515 A    
C59   C60   1.520660 S    
C6    O10   1.350007 S    
N2    C8    1.372217 A    
C35   O21   1.382283 S    
C69   H68   1.107807 S    
C70   H72   1.109255 S    
C20   C26   1.407252 A    
O1    Cu1   1.962655 S    
O17   C55   1.410717 S    
C16   H18   1.082523 S    
C60   H43   1.110684 S    
C68   H67   1.106691 S    
C30   C31   1.417944 A    
C12   C28   1.406402 A    
C59   H42   1.113083 S    
N2    C18   1.444548 S    
C58   H40   1.110989 S    
C30   C36   1.422744 A    
C44   O23   1.394920 S    
C62   H49   1.110669 S    
O6    Cu2   1.949994 S    
C21   C23   1.398689 A    
C38   O20   1.383011 S    
N3    C45   1.297493 D    
C65   H57   1.112640 S    
O3    C1    1.297512 A    
O8    Cu1   1.941143 S    
C58   H38   1.110836 S    
C52   H24   1.110465 S    
C63   H52   1.114799 S    
C23   H19   1.083556 S    
C26   C37   1.411584 A    
C24   H20   1.083401 S    
C55   C56   1.520899 S    
C1    C41   1.452416 S    
C45   H14   1.085051 S    
C22   C24   1.399969 A    
C64   H53   1.111376 S    
C60   H45   1.110837 S    
C15   C17   1.400163 A    
C6    C22   1.400425 A    
C16   C18   1.401748 A    
C50   H10   1.108321 S    
C51   H22   1.118234 S    
C67   H63   1.116106 S    
C61   C62   1.521193 S    
C14   C16   1.407040 A    
C51   H21   1.110866 S    
C19   C21   1.410509 A    
C55   H32   1.115344 S    
C3    C27   1.470591 S    
C54   H30   1.108884 S    
C20   C22   1.408396 A    
C66   H59   1.110596 S    
C48   H3    1.110943 S    
O2    Cu2   1.962656 S    
C29   C32   1.422549 A    
C15   H17   1.083288 S    
C41   C43   1.351663 D    
N3    H16   1.030786 S    
C9    O18   1.382041 S    
C45   C46   1.503913 S    
C23   C39   1.387714 A    
C30   C34   1.412874 A    
O5    Cu1   1.949994 S    
C9    C11   1.403121 A    
C24   C40   1.389271 A    
C69   C70   1.522961 S    
C61   H47   1.112046 S    
O13   C47   1.412376 S    
C54   H28   1.110400 S    
C19   C34   1.412500 A    
C41   H12   1.078751 S    
C20   C33   1.415243 A    
C29   C33   1.413564 A    
O20   C61   1.417380 S    
C59   H41   1.115204 S    
