data_mof_unit_2151.cif
_audit_creation_date              2012-12-10T17:37:24-0500
_audit_creation_method            fapswitch 2.2
_symmetry_space_group_name_H-M    P1
_symmetry_Int_Tables_number       1
_space_group_crystal_system       triclinic
_cell_length_a                    12.027659
_cell_length_b                    12.916557
_cell_length_c                    16.884683
_cell_angle_alpha                 90.780453
_cell_angle_beta                  79.614032
_cell_angle_gamma                 92.408653
_cell_volume                      2577.82913228

loop_
_atom_site_label
_atom_site_type_symbol
_atom_type_description
_atom_site_fract_x
_atom_site_fract_y
_atom_site_fract_z
_atom_type_partial_charge
C1    C     C_R   0.521345 0.700341 0.498466 0.853503
C2    C     C_R   0.563111 0.131561 0.490316 -0.210619
C3    C     C_R   0.445165 0.975314 0.506610 0.013798
C4    C     C_R   0.554221 0.024932 0.493655 0.013320
C5    C     C_R   0.967378 0.399179 0.428006 -0.301149
C6    C     C_R   0.032402 0.599856 0.572802 -0.313870
C7    C     C_R   0.849789 0.409279 0.434481 0.056391
C8    C     C_R   0.150102 0.590293 0.565869 0.047114
C9    C     C_R   0.852011 0.543466 0.531166 -0.018689
C10   C     C_R   0.147846 0.456032 0.469247 -0.035184
C11   C     C_R   0.970698 0.536227 0.526502 0.086078
C12   C     C_R   0.478695 0.299719 0.501160 0.933352
C13   C     C_R   0.029118 0.463102 0.474081 0.077871
C14   C     C_R   0.482934 0.503778 0.653760 0.954832
C15   C     C_R   0.517657 0.500888 0.346193 0.948909
C16   C     C_R   0.469761 0.522137 0.739755 -0.307733
C17   C     C_R   0.534968 0.516398 0.259938 -0.301800
C18   C     C_R   0.536101 0.469057 0.784441 0.563008
C19   C     C_R   0.456540 0.472647 0.216112 0.560055
C20   C     C_R   0.530049 0.492005 0.865338 -0.215677
C21   C     C_R   0.467069 0.494818 0.135115 -0.218005
C22   C     C_R   0.459474 0.569691 0.902005 -0.055490
C23   C     C_R   0.466359 0.188807 0.502665 -0.127958
C24   C     C_R   0.554089 0.563322 0.097612 -0.062185
C25   C     C_R   0.386866 0.616702 0.859240 -0.252643
C26   C     C_R   0.637954 0.599293 0.139383 -0.252649
C27   C     C_R   0.394421 0.596790 0.777412 0.429435
C28   C     C_R   0.627152 0.579680 0.221169 0.423256
C29   C     C_2   0.461049 0.601581 0.985330 0.365676
C30   C     C_2   0.558057 0.597079 0.014566 0.367914
C31   C     C_3   0.674373 0.718348 0.296249 0.135508
C32   C     C_3   0.706541 0.806711 0.235457 -0.426209
C33   C     C_3   0.693412 0.912452 0.276653 -0.893155
C34   C     C_R   0.533519 0.811381 0.497057 -0.141563
C35   C     C_3   0.384942 0.740314 0.701033 0.114650
C36   C     C_3   0.376259 0.830776 0.761497 -0.406612
C37   C     C_3   0.416778 0.933177 0.719951 -0.895422
C38   C     C_3   0.695681 0.713598 0.954069 0.075261
C39   C     C_3   0.667046 0.755577 0.875978 -0.358857
C40   C     C_3   0.716207 0.865504 0.859061 -0.952781
C41   C     C_3   0.347050 0.726960 0.049470 0.071001
C42   C     C_3   0.374683 0.758099 0.131903 -0.354433
C43   C     C_3   0.342578 0.869133 0.154195 -0.931616
C44   C     C_3   0.841912 0.970108 0.507363 0.084661
C45   C     C_R   0.652810 0.967975 0.486160 0.512787
C46   C     C_3   0.812731 0.952477 0.599357 -0.352178
C47   C     C_3   0.870302 0.858073 0.624016 -0.984350
C48   C     C_3   0.147239 0.035308 0.533206 0.072750
C49   C     C_3   0.098523 0.091086 0.612318 -0.372471
C50   C     C_3   0.035003 0.187057 0.597714 -0.916937
C51   C     C_R   0.346188 0.032499 0.520610 0.499744
C52   C     C_R   0.640640 0.859773 0.486794 -0.342832
C53   C     C_R   0.359113 0.140791 0.519118 -0.322844
C54   C     C_R   0.436659 0.868554 0.506577 -0.254553
F1    F     F_    0.606668 0.395238 0.749844 -0.646245
F2    F     F_    0.369691 0.408907 0.251706 -0.660428
H1    H     H_    0.196548 0.639852 0.601691 0.154853
H2    H     H_    0.354010 0.829436 0.514326 0.213395
H3    H     H_    0.287088 0.189096 0.532214 0.179100
H4    H     H_    0.713221 0.812084 0.478927 0.165687
H5    H     H_    0.193538 0.399929 0.429114 0.161772
H6    H     H_    0.806138 0.599114 0.571578 0.120997
H7    H     H_    0.720265 0.732743 0.346954 0.179875
H8    H     H_    0.582233 0.718577 0.322183 0.102042
H9    H     H_    0.795713 0.799992 0.204511 0.241099
H10   H     H_    0.650909 0.801772 0.189624 0.205402
H11   H     H_    0.605615 0.919884 0.310062 0.266726
H12   H     H_    0.803254 0.359632 0.398715 0.135368
H13   H     H_    0.711824 0.974423 0.230670 0.266604
H14   H     H_    0.753848 0.922955 0.318933 0.276121
H15   H     H_    0.343807 0.762273 0.650371 0.179904
H16   H     H_    0.475375 0.727242 0.675076 0.102962
H17   H     H_    0.287027 0.836925 0.792474 0.238536
H18   H     H_    0.429397 0.816980 0.807319 0.204068
H19   H     H_    0.503899 0.927374 0.684994 0.258125
H20   H     H_    0.417092 0.995536 0.765826 0.267725
H21   H     H_    0.358812 0.954158 0.679075 0.282794
H22   H     H_    0.788897 0.720018 0.950229 0.180845
H23   H     H_    0.009589 0.341795 0.387211 0.160873
H24   H     H_    0.658834 0.763271 0.006174 0.101450
H25   H     H_    0.700806 0.704257 0.824636 0.242986
H26   H     H_    0.574031 0.757377 0.881137 0.198417
H27   H     H_    0.683420 0.917935 0.909843 0.269963
H28   H     H_    0.691020 0.894549 0.803516 0.270934
H29   H     H_    0.810015 0.866518 0.850311 0.265682
H30   H     H_    0.257228 0.743418 0.049078 0.180358
H31   H     H_    0.398640 0.776484 0.001489 0.100049
H32   H     H_    0.328252 0.704784 0.178780 0.249789
H33   H     H_    0.466704 0.752640 0.130753 0.199172
H34   H     H_    0.990156 0.656542 0.614178 0.159554
H35   H     H_    0.388955 0.923803 0.108388 0.265833
H36   H     H_    0.365318 0.889561 0.213527 0.268931
H37   H     H_    0.250104 0.877095 0.158359 0.267200
H38   H     H_    0.918743 0.021216 0.494859 0.145505
H39   H     H_    0.866617 0.898909 0.472156 0.135401
H40   H     H_    0.839399 0.022262 0.631364 0.224736
H41   H     H_    0.720337 0.940197 0.620433 0.225912
H42   H     H_    0.837766 0.786962 0.596758 0.260122
H43   H     H_    0.851731 0.850029 0.690453 0.275292
H44   H     H_    0.963259 0.865626 0.604338 0.267779
H45   H     H_    0.328512 0.673196 0.888054 0.173056
H46   H     H_    0.083007 0.977991 0.518935 0.146611
H47   H     H_    0.164473 0.087614 0.480067 0.138982
H48   H     H_    0.040669 0.036697 0.652155 0.224031
H49   H     H_    0.167404 0.115496 0.645258 0.239832
H50   H     H_    0.093264 0.244977 0.561846 0.260817
H51   H     H_    0.999065 0.222991 0.656351 0.280680
H52   H     H_    0.964817 0.166591 0.565258 0.265181
H53   H     H_    0.708947 0.647235 0.109895 0.176416
H54   H     H_    0.405975 0.459441 0.102108 0.208715
H55   H     H_    0.581589 0.449686 0.899105 0.204684
H56   H     H_    0.645850 0.170662 0.478686 0.217147
N1    N     N_R   0.206400 0.519440 0.514690 -0.109454
N2    N     N_R   0.793600 0.480560 0.485310 -0.101446
O1    O     O_R   0.421320 0.658850 0.503920 -0.642805
O2    O     O_3   0.326181 0.649745 0.735427 -0.629082
O3    O     O_3   0.662505 0.607187 0.963815 -0.649583
O4    O     O_3   0.358802 0.619089 0.035772 -0.649972
O5    O     O_3   0.757290 0.022101 0.477196 -0.670458
O6    O     O_3   0.241976 0.978744 0.542562 -0.672921
O7    O     O_R   0.578680 0.341150 0.496080 -0.628291
O8    O     O_R   0.609840 0.646370 0.494500 -0.642277
O9    O     O_R   0.390160 0.353630 0.505500 -0.629705
O10   O     O_R   0.394600 0.506990 0.621070 -0.591285
O11   O     O_R   0.605400 0.493010 0.378930 -0.594403
O12   O     O_R   0.583120 0.494520 0.611640 -0.578687
O13   O     O_R   0.416880 0.505480 0.388360 -0.581533
O14   O     O_3   0.708521 0.621493 0.262030 -0.615474
Zn1   Zn    Zn3+2 0.374120 0.508330 0.506290 0.975617
Zn2   Zn    Zn3+2 0.625880 0.491670 0.493710 0.981932

loop_
_geom_bond_atom_site_label_1
_geom_bond_atom_site_label_2
_ccdc_geom_bond_type
C19   F2    S    
C22   C29   S    
C41   C42   S    
C40   H28   S    
C35   C36   S    
O7    Zn2   S    
C49   H48   S    
C21   H54   S    
C53   H3    S    
C48   O6    S    
C41   H30   S    
C12   C23   S    
C2    H56   S    
C47   H42   S    
N1    Zn1   S    
C9    N2    A    
C7    N2    A    
C36   C37   S    
C19   C21   A    
C24   C26   A    
C54   H2    S    
C38   C39   S    
C3    C54   A    
O12   Zn2   S    
C47   H43   S    
C1    O8    A    
C52   H4    S    
C17   C19   A    
C7    H12   S    
C38   O3    S    
O11   Zn2   S    
C12   O7    A    
C22   C25   A    
C41   O4    S    
C5    H23   S    
C5    C13   A    
C33   H13   S    
C27   O2    S    
C45   O5    S    
C16   C27   A    
C37   H19   S    
C35   H15   S    
C15   O13   A    
O9    Zn1   S    
C50   H52   S    
N2    Zn2   S    
C40   H27   S    
C31   O14   S    
C44   C46   S    
C1    C34   S    
C23   C53   A    
C4    C45   A    
C41   H31   S    
C14   O10   A    
C9    H6    S    
C31   H7    S    
C39   H25   S    
C6    C11   A    
C5    C7    A    
C3    C51   A    
C6    C8    A    
C38   H22   S    
C45   C52   A    
C6    H34   S    
C48   H47   S    
C37   H21   S    
C43   H35   S    
C47   H44   S    
C51   C53   A    
C40   H29   S    
C2    C4    A    
O13   Zn1   S    
C29   C30   D    
C8    H1    S    
C20   H55   S    
C31   C32   S    
C48   H46   S    
C51   O6    S    
C35   O2    S    
C9    C11   A    
C26   H53   S    
C10   N1    A    
C36   H18   S    
C8    N1    A    
C33   H14   S    
C48   C49   S    
C46   H41   S    
C20   C22   A    
C35   H16   S    
C34   C54   A    
C50   H51   S    
C14   C16   S    
C10   H5    S    
C42   H32   S    
C42   C43   S    
C3    C4    A    
C39   C40   S    
C33   H11   S    
C32   H10   S    
O1    Zn1   S    
C15   C17   S    
C46   C47   S    
C17   C28   A    
C34   C52   A    
C31   H8    S    
C37   H20   S    
C39   H26   S    
C10   C13   A    
C14   O12   A    
C49   H49   S    
C30   O3    S    
C25   C27   A    
C29   O4    S    
C26   C28   A    
C43   H36   S    
C44   O5    S    
C42   H33   S    
C32   C33   S    
C44   H39   S    
C11   C13   A    
C25   H45   S    
C12   O9    A    
C38   H24   S    
C18   F1    S    
C43   H37   S    
O10   Zn1   S    
C18   C20   A    
C24   C30   S    
C44   H38   S    
C36   H17   S    
C46   H40   S    
C16   C18   A    
C49   C50   S    
C15   O11   A    
C21   C24   A    
C2    C23   A    
C50   H50   S    
C1    O1    A    
O8    Zn2   S    
C28   O14   S    
C32   H9    S    
