data_mof_unit_2455.cif
_audit_creation_date              2013-03-05T16:23:14-0500
_audit_creation_method            fapswitch 2.2
_symmetry_space_group_name_H-M    P1
_symmetry_Int_Tables_number       1
_space_group_crystal_system       triclinic
_cell_length_a                    27.595378
_cell_length_b                    10.493538
_cell_length_c                    9.816893
_cell_angle_alpha                 91.451799
_cell_angle_beta                  90.366188
_cell_angle_gamma                 89.987424
_cell_volume                      2841.73803268

loop_
_atom_site_label
_atom_site_type_symbol
_atom_site_description
_atom_site_fract_x
_atom_site_fract_y
_atom_site_fract_z
_atom_type_partial_charge
O1    O     O_R   0.500000 0.313960 0.616610 -0.584702
O2    O     O_R   0.500000 0.686040 0.383390 -0.584695
O3    O     O_R   0.500020 0.313950 0.383350 -0.627925
O4    O     O_R   0.499980 0.686050 0.616650 -0.628226
C1    C     C_R   0.500329 0.257934 0.498473 0.887746
C2    C     C_R   0.499672 0.742065 0.501527 0.886949
O5    O     O_R   0.428750 0.500030 0.616610 -0.598545
O6    O     O_R   0.571250 0.499970 0.383390 -0.598568
O7    O     O_R   0.428770 0.500020 0.383360 -0.634549
O8    O     O_R   0.571230 0.499980 0.616640 -0.634251
C3    C     C_R   0.406390 0.495012 0.499263 0.848624
C4    C     C_R   0.593598 0.505192 0.500764 0.848732
Zn1   Zn    Zn3+2 0.499990 0.500010 0.655740 0.978253
Zn2   Zn    Zn3+2 0.500010 0.499990 0.344260 0.978161
C5    C     C_R   0.176489 0.370177 0.510378 0.524920
C6    C     C_R   0.823473 0.633958 0.499047 0.517794
O9    O     O_2   0.201116 0.267145 0.552574 -0.514144
O10   O     O_2   0.799076 0.736620 0.454912 -0.518852
N1    N     N_R   0.201464 0.476007 0.474087 -0.367016
N2    N     N_R   0.798348 0.527424 0.532394 -0.364263
C7    C     C_R   0.178691 0.582017 0.427816 0.539497
C8    C     C_R   0.820893 0.421224 0.579067 0.540792
C9    C     C_R   0.276388 0.554766 0.580045 -0.085312
C10   C     C_R   0.724031 0.447713 0.423334 -0.082638
C11   C     C_R   0.326611 0.557677 0.586514 -0.199842
C12   C     C_R   0.673823 0.444017 0.415193 -0.201388
C13   C     C_R   0.330587 0.396575 0.402423 -0.042693
C14   C     C_R   0.668782 0.606181 0.597971 -0.040918
C15   C     C_R   0.279961 0.396640 0.395792 -0.062914
C16   C     C_R   0.719362 0.606828 0.606399 -0.066163
C17   C     C_R   0.253104 0.475704 0.483507 0.246305
C18   C     C_R   0.746758 0.527512 0.520320 0.247709
C19   C     C_R   0.101183 0.483506 0.472367 -0.138645
C20   C     C_R   0.898584 0.521158 0.540782 -0.133644
C21   C     C_R   0.125603 0.370223 0.507522 -0.008803
C22   C     C_R   0.874328 0.634883 0.506353 -0.025152
C23   C     C_R   0.098332 0.260709 0.535756 0.129625
C24   C     C_R   0.901671 0.745601 0.482464 0.137684
C25   C     C_R   0.127729 0.587695 0.423363 -0.044907
C26   C     C_R   0.871821 0.415949 0.586422 -0.044193
C27   C     C_R   0.353918 0.481421 0.496501 -0.114195
C28   C     C_R   0.646006 0.520254 0.503928 -0.114054
H1    H     H_    0.260977 0.334379 0.323686 0.185503
H2    H     H_    0.737898 0.669677 0.678860 0.184200
C29   C     C_R   0.973882 0.399909 0.566151 0.032800
C30   C     C_R   0.025858 0.605013 0.449035 0.031438
C31   C     C_R   0.975850 0.617874 0.479694 0.061322
C32   C     C_R   0.024027 0.387384 0.536726 0.068128
C33   C     C_R   0.949558 0.512574 0.528350 0.018506
C34   C     C_R   0.050248 0.492408 0.486718 0.020402
C35   C     C_R   0.947605 0.307977 0.640198 0.023895
C36   C     C_R   0.051752 0.696264 0.373020 0.022872
C37   C     C_R   0.896595 0.311771 0.642514 0.097291
C38   C     C_R   0.102704 0.691253 0.366893 0.095216
O11   O     O_2   0.793743 0.321277 0.616682 -0.515758
O12   O     O_2   0.205662 0.681455 0.387872 -0.513767
C39   C     C_R   0.048172 0.269577 0.544754 -0.241258
C40   C     C_R   0.951957 0.736193 0.473927 -0.220489
H3    H     H_    0.656618 0.379063 0.342199 0.158966
H4    H     H_    0.344228 0.621862 0.659500 0.158889
H5    H     H_    0.745373 0.387147 0.355882 0.151844
H6    H     H_    0.255452 0.615160 0.648699 0.150800
H7    H     H_    0.028648 0.181197 0.553453 0.160126
H8    H     H_    0.972156 0.823835 0.468061 0.154903
C41   C     C_3   0.537314 0.043240 0.570186 0.112203
C42   C     C_3   0.462697 0.956755 0.429819 0.112447
C43   C     C_3   0.541588 0.954394 0.444468 -0.175388
C44   C     C_3   0.458423 0.045599 0.555539 -0.175365
H9    H     H_    0.575721 0.913802 0.402667 0.182723
H10   H     H_    0.424289 0.086183 0.597348 0.182802
C45   C     C_3   0.499859 0.876872 0.504071 -0.025218
C46   C     C_3   0.500150 0.123123 0.495933 -0.025244
C47   C     C_3   0.496556 0.964356 0.631710 -0.203992
C48   C     C_3   0.503455 0.035638 0.368295 -0.203969
H11   H     H_    0.494478 0.934758 0.739018 0.171791
H12   H     H_    0.505534 0.065234 0.260986 0.171753
C49   C     C_3   0.496948 0.387228 0.043648 0.181484
C50   C     C_3   0.503051 0.612771 0.956353 0.181377
C51   C     C_3   0.536613 0.434838 0.949493 -0.213486
C52   C     C_3   0.463387 0.565162 0.050508 -0.213780
H13   H     H_    0.566796 0.379408 0.902851 0.145603
H14   H     H_    0.433204 0.620591 0.097150 0.145508
N3    N     N_3   0.499960 0.500030 0.863290 -0.095986
N4    N     N_3   0.500040 0.499970 0.136710 -0.096003
C53   C     C_3   0.460762 0.450257 0.950123 0.006641
C54   C     C_3   0.539237 0.549744 0.049877 0.006743
C55   C     C_2   0.358058 0.303712 0.315793 0.394688
H15   H     H_    0.395800 0.283201 0.337272 0.064682
O13   O     O_2   0.338546 0.247064 0.220069 -0.565916
C56   C     C_2   0.640762 0.699231 0.682936 0.393763
H16   H     H_    0.603059 0.718919 0.660073 0.064567
O14   O     O_2   0.659764 0.756931 0.778771 -0.567426
N5    N     N_3   0.578607 0.095406 0.646045 -0.439184
H17   H     H_    0.598121 0.018305 0.683508 0.208010
H18   H     H_    0.565075 0.145745 0.730796 0.198859
N6    N     N_3   0.421403 0.904589 0.353961 -0.439172
H19   H     H_    0.401889 0.981690 0.316497 0.206783
H20   H     H_    0.434934 0.854248 0.269211 0.198801
N7    N     N_3   0.493256 0.259221 0.095880 -0.435471
H21   H     H_    0.494589 0.195551 0.012393 0.189488
H22   H     H_    0.458775 0.250503 0.138035 0.195898
N8    N     N_3   0.506738 0.740781 0.904125 -0.435601
H23   H     H_    0.505387 0.804450 0.987611 0.189487
H24   H     H_    0.541225 0.749524 0.862015 0.196854
C57   C     C_2   0.415866 0.391012 0.890697 0.467050
H25   H     H_    0.381397 0.439900 0.900723 0.058773
O15   O     O_2   0.417985 0.288948 0.828692 -0.567892
C58   C     C_2   0.584131 0.609002 0.109304 0.467670
H26   H     H_    0.618602 0.560128 0.099270 0.058477
O16   O     O_2   0.582007 0.711062 0.171316 -0.567805
N9    N     N_3   0.120853 0.138718 0.551158 -0.368734
H27   H     H_    0.106380 0.075989 0.477129 0.162441
H28   H     H_    0.111628 0.104698 0.646802 0.197293
N10   N     N_3   0.878798 0.868210 0.471590 -0.370003
H29   H     H_    0.866751 0.895293 0.568845 0.195895
H30   H     H_    0.903695 0.937435 0.442609 0.165583
N11   N     N_3   0.870163 0.211942 0.706569 -0.370502
H31   H     H_    0.880159 0.208703 0.809253 0.184282
H32   H     H_    0.878703 0.124992 0.658303 0.178467
N12   N     N_3   0.128802 0.788767 0.298014 -0.368802
H33   H     H_    0.117772 0.789895 0.196043 0.182937
H34   H     H_    0.121139 0.877011 0.344603 0.185615
N13   N     N_3   0.972555 0.220007 0.725876 -0.472984
H35   H     H_    0.963270 0.239556 0.827325 0.195153
H36   H     H_    0.961899 0.126985 0.699477 0.165278
N14   N     N_3   0.026266 0.784834 0.289247 -0.468005
H37   H     H_    0.037464 0.877594 0.314822 0.165651
H38   H     H_    0.034448 0.765048 0.187079 0.194987

loop_
_geom_bond_atom_site_label_1
_geom_bond_atom_site_label_2
_geom_bond_distance
_ccdc_geom_bond_type
C42   C44   1.532893 S    
C55   H15   1.083949 S    
N14   H37   1.045352 S    
C38   N12   1.436860 S    
C13   C15   1.398142 A    
C35   N13   1.437110 S    
N9    H27   1.045522 S    
Zn2   N4    2.037496 S    
C52   N4    1.491725 S    
N1    C17   1.427435 S    
N10   H29   1.045509 S    
C32   C39   1.407933 A    
C31   C33   1.416696 A    
O5    C3    1.303241 A    
C57   O15   1.219996 D    
N5    H17   1.045066 S    
C48   H12   1.107624 S    
O1    C1    1.286969 A    
C21   C23   1.408189 A    
N4    C54   1.484602 S    
C1    C46   1.414234 S    
N11   H32   1.044970 S    
C24   N10   1.439047 S    
C37   N11   1.436798 S    
N13   H36   1.045373 S    
C25   C38   1.410811 A    
C50   N8    1.453699 S    
C29   C35   1.423885 A    
C42   C48   1.532781 S    
C30   C36   1.423963 A    
C41   C47   1.532782 S    
C58   H26   1.084440 S    
C14   C28   1.418105 A    
O4    Zn1   1.999092 S    
C4    C28   1.454918 S    
C24   C40   1.394047 A    
C50   N3    1.478453 S    
C9    H6    1.082961 S    
C42   C45   1.518787 S    
N12   H34   1.044533 S    
C41   C43   1.532901 S    
N6    H20   1.045128 S    
O6    Zn2   2.000666 S    
C49   N7    1.453702 S    
C11   H4    1.083783 S    
C16   C18   1.396641 A    
C12   H3    1.083749 S    
C43   C45   1.537284 S    
C6    N2    1.363594 A    
C50   C54   1.515342 S    
C41   N5    1.456526 S    
C49   C53   1.515343 S    
N5    H18   1.045128 S    
C15   H1    1.083658 S    
C47   H11   1.107622 S    
C16   H2    1.083662 S    
O2    C2    1.286965 A    
C53   C57   1.494821 S    
C5    C21   1.404314 A    
C36   C38   1.408626 A    
C39   H7    1.078182 S    
C49   C51   1.529250 S    
C40   H8    1.078490 S    
C2    C45   1.414203 S    
N13   H35   1.045213 S    
C46   C48   1.537622 S    
C11   C27   1.400502 A    
C45   C47   1.537612 S    
C36   N14   1.437306 S    
C49   N4    1.478449 S    
C44   C47   1.554078 S    
C44   C46   1.537286 S    
C43   H9    1.110382 S    
C9    C17   1.397100 A    
C5    N1    1.363357 A    
O7    Zn2   2.005418 S    
C10   C18   1.397582 A    
C52   C53   1.539209 S    
C13   C27   1.418156 A    
C56   O14   1.221325 D    
N7    H21   1.045032 S    
C7    C25   1.408022 A    
C29   C33   1.415877 A    
O6    C4    1.303355 A    
C8    C26   1.407896 A    
N6    H19   1.045071 S    
C50   C52   1.529238 S    
N9    H28   1.045894 S    
C43   C48   1.554088 S    
C19   C25   1.412401 A    
N8    H24   1.044975 S    
O7    C3    1.300317 A    
O3    Zn2   1.999094 S    
O8    C4    1.300058 A    
C10   H5    1.082932 S    
C52   H14   1.110352 S    
N3    C53   1.484608 S    
N2    C8    1.364128 A    
C55   O13   1.221350 D    
C20   C26   1.412336 A    
O4    C2    1.286994 A    
O1    Zn1   1.980184 S    
N12   H33   1.044783 S    
C12   C28   1.400359 A    
C42   N6    1.456530 S    
N2    C18   1.427829 S    
C29   C32   1.420773 A    
C5    O9    1.349487 S    
C30   C34   1.415869 A    
C30   C31   1.419986 A    
C20   C33   1.415363 A    
N14   H38   1.045164 S    
N7    H22   1.044991 S    
C54   C58   1.494819 S    
C10   C12   1.387784 A    
O3    C1    1.287002 A    
O8    Zn1   2.005422 S    
C7    O12   1.349551 S    
N10   H30   1.045872 S    
C8    O11   1.349514 S    
C41   C46   1.518808 S    
C57   H25   1.084445 S    
Zn1   N3    2.037495 S    
C51   H13   1.110350 S    
C22   C24   1.410900 A    
C19   C34   1.416331 A    
C14   C16   1.397685 A    
C15   C17   1.396706 A    
N11   H31   1.044787 S    
C13   C55   1.487750 S    
C31   C40   1.407905 A    
C51   N3    1.491726 S    
C56   H16   1.083905 S    
C32   C34   1.418256 A    
C19   C21   1.415564 A    
C58   O16   1.219999 D    
C3    C27   1.455010 S    
C20   C22   1.415484 A    
C9    C11   1.387279 A    
N8    H23   1.045032 S    
O2    Zn2   1.980182 S    
C23   C39   1.390512 A    
C23   N9    1.433895 S    
O5    Zn1   2.000660 S    
C6    O10   1.349491 S    
C26   C37   1.411049 A    
C44   H10   1.110382 S    
C14   C56   1.487835 S    
C35   C37   1.408493 A    
C51   C54   1.539220 S    
C6    C22   1.404746 A    
N1    C7    1.363954 A    
