data_mof_unit_1657.cif
_audit_creation_date              2013-03-05T15:47:39-0500
_audit_creation_method            fapswitch 2.2
_symmetry_space_group_name_H-M    P1
_symmetry_Int_Tables_number       1
_space_group_crystal_system       triclinic
_cell_length_a                    10.178006
_cell_length_b                    10.716036
_cell_length_c                    10.723643
_cell_angle_alpha                 92.525937
_cell_angle_beta                  95.621068
_cell_angle_gamma                 81.537284
_cell_volume                      1150.78463194

loop_
_atom_site_label
_atom_site_type_symbol
_atom_site_description
_atom_site_fract_x
_atom_site_fract_y
_atom_site_fract_z
_atom_type_partial_charge
O1    O     O_R   0.568940 0.489540 0.307530 -0.613970
O2    O     O_R   0.348880 0.522880 0.340350 -0.614124
C1    C     C_R   0.444545 0.512542 0.267184 0.932985
O3    O     O_R   0.610030 0.298130 0.483570 -0.612428
O4    O     O_R   0.389960 0.331470 0.516390 -0.621710
C2    C     C_R   0.502122 0.258636 0.508598 0.867653
Zn1   Zn    Zn3+2 0.646940 0.477740 0.478080 0.910869
Zn2   Zn    Zn3+2 0.353060 0.522260 0.521920 0.921082
O5    O     O_R   0.651120 0.477120 0.659650 -0.610467
O6    O     O_R   0.431060 0.510460 0.692470 -0.603719
O7    O     O_R   0.610040 0.668530 0.483610 -0.622475
O8    O     O_R   0.389970 0.701870 0.516430 -0.619072
C3    C     C_R   0.555377 0.499205 0.733696 0.899698
C4    C     C_R   0.502324 0.741976 0.502784 0.866774
C5    C     C_3   0.654387 0.054702 0.516496 -0.001574
C6    C     C_3   0.655483 0.910176 0.497017 0.023958
C7    C     C_3   0.445300 0.083986 0.635322 0.036249
C8    C     C_3   0.425183 0.080787 0.394130 -0.476872
C9    C     C_3   0.505433 0.122244 0.515255 0.033223
C10   C     C_3   0.508819 0.878091 0.509226 0.055384
C11   C     C_3   0.453712 0.937785 0.633912 0.038256
C12   C     C_3   0.418950 0.938332 0.392286 -0.076142
C13   C     C_2   0.415592 0.538399 0.135740 -0.387742
C14   C     C_2   0.513264 0.571751 0.074871 -0.150994
C15   C     C_2   0.585304 0.511423 0.869265 0.010622
C16   C     C_2   0.497039 0.583811 0.940311 0.225914
N1    N     N_2   0.157300 0.551950 0.551120 -0.043106
C17   C     C_2   0.076298 0.480106 0.489756 0.314755
N2    N     N_2   0.842730 0.448000 0.448950 -0.206861
C18   C     C_2   0.943338 0.459047 0.531393 0.172820
C19   C     C_3   0.746911 0.096028 0.631462 -0.885565
H1    H     H_    0.754315 0.034021 0.711795 0.243522
H2    H     H_    0.849312 0.095826 0.603766 0.235159
H3    H     H_    0.713134 0.192287 0.668456 0.236914
C20   C     C_3   0.272057 0.913483 0.373910 -0.869729
H4    H     H_    0.265669 0.813909 0.344454 0.261890
H5    H     H_    0.219119 0.938150 0.458977 0.246245
H6    H     H_    0.217123 0.970647 0.296220 0.230649
C21   C     C_3   0.301719 0.147417 0.655183 -0.935351
H7    H     H_    0.300070 0.247640 0.686381 0.270833
H8    H     H_    0.232192 0.141020 0.569739 0.261061
H9    H     H_    0.262926 0.101309 0.731949 0.228965
H10   H     H_    0.351856 0.912443 0.635673 0.182597
C22   C     C_3   0.375354 0.673600 0.891582 -0.908490
H11   H     H_    0.366653 0.761022 0.951623 0.231428
H12   H     H_    0.378146 0.703626 0.795123 0.256315
H13   H     H_    0.284535 0.629581 0.897270 0.238489
H14   H     H_    0.610891 0.581079 0.122376 0.170894
C23   C     C_3   0.709500 0.432194 0.928551 -1.006593
H15   H     H_    0.763660 0.371761 0.858011 0.254475
H16   H     H_    0.778067 0.494574 0.976235 0.248533
H17   H     H_    0.682322 0.368345 0.997609 0.259102
H18   H     H_    0.317523 0.529553 0.089367 0.155465
C24   C     C_3   0.935845 0.425330 0.664590 -0.822710
H19   H     H_    0.036893 0.392871 0.710477 0.207728
H20   H     H_    0.888884 0.508164 0.718156 0.248298
H21   H     H_    0.878690 0.345095 0.666629 0.251914
C25   C     C_3   0.112159 0.416447 0.366306 -0.895407
H22   H     H_    0.043580 0.348549 0.331420 0.190724
H23   H     H_    0.107081 0.488956 0.294546 0.231732
H24   H     H_    0.210557 0.359057 0.373061 0.280580
H25   H     H_    0.854120 0.471723 0.359015 0.156653
H26   H     H_    0.696871 0.084937 0.432509 0.158094
C26   C     C_3   0.116574 0.630369 0.657700 -0.703573
H27   H     H_    0.175407 0.709901 0.668809 0.226306
H28   H     H_    0.010270 0.671942 0.643805 0.191770
H29   H     H_    0.135064 0.574589 0.743638 0.209099
H30   H     H_    0.674162 0.889113 0.396916 0.115397
C27   C     C_3   0.778626 0.829756 0.567035 -0.843582
H31   H     H_    0.760916 0.804182 0.661889 0.250364
H32   H     H_    0.811372 0.742182 0.512735 0.247680
H33   H     H_    0.868150 0.878153 0.573368 0.230113
H34   H     H_    0.507205 0.116252 0.718429 0.170644
C28   C     C_3   0.529948 0.883503 0.755701 -1.001564
H35   H     H_    0.558679 0.779994 0.747056 0.244025
H36   H     H_    0.621217 0.925290 0.783814 0.253701
H37   H     H_    0.465806 0.905635 0.833976 0.249561
H38   H     H_    0.323695 0.136385 0.384136 0.209273
H39   H     H_    0.474118 0.102938 0.310865 0.139226
H40   H     H_    0.463029 0.896732 0.305922 0.148160

loop_
_geom_bond_atom_site_label_1
_geom_bond_atom_site_label_2
_geom_bond_distance
_ccdc_geom_bond_type
Zn1   N2    2.023970 S    
C1    C13   1.442049 S    
C20   H4    1.108721 S    
C16   C22   1.516426 S    
C21   H8    1.107583 S    
C5    C9    1.579996 S    
C2    C9    1.461737 S    
C18   C24   1.500510 S    
C28   H36   1.100003 S    
C20   H5    1.107002 S    
C14   C16   1.445547 S    
O4    C2    1.292305 A    
O7    C4    1.280471 A    
C25   H23   1.109818 S    
C5    C6    1.552173 S    
C8    C9    1.549106 S    
C7    C21   1.548812 S    
C27   H32   1.108432 S    
O5    C3    1.305087 A    
C24   H19   1.109739 S    
C8    H39   1.114582 S    
C23   H16   1.110238 S    
C28   H37   1.109611 S    
C13   C14   1.339513 D    
C19   H2    1.111032 S    
C6    H30   1.115967 S    
C22   H13   1.105696 S    
C6    C10   1.599044 S    
C25   H24   1.093107 S    
O1    Zn1   1.922909 S    
C7    H34   1.112546 S    
C3    C15   1.460016 S    
O3    Zn1   2.018968 S    
C22   H12   1.100952 S    
C13   H18   1.085839 S    
C21   H9    1.111154 S    
C24   H20   1.109191 S    
C28   H35   1.106901 S    
C14   H14   1.087396 S    
C26   H29   1.106102 S    
C4    C10   1.468091 S    
C20   H6    1.111241 S    
O3    C2    1.289167 A    
C21   H7    1.108968 S    
C15   C16   1.366058 D    
C11   C28   1.543280 S    
C7    C11   1.555880 S    
O1    C1    1.288863 A    
C26   H28   1.106216 S    
C27   H33   1.108014 S    
Zn1   O7    2.022936 S    
N2    C18   1.301264 D    
C12   C20   1.549145 S    
C19   H1    1.101050 S    
Zn2   O8    2.018969 S    
C23   H17   1.110660 S    
C19   H3    1.107189 S    
C8    H38   1.111860 S    
O8    C4    1.302606 A    
C22   H11   1.110681 S    
Zn1   O5    1.943670 S    
N2    H25   1.029744 S    
C8    C12   1.536353 S    
O2    Zn2   1.943668 S    
C6    C27   1.559519 S    
C10   C12   1.580768 S    
O6    C3    1.288869 A    
O4    Zn2   2.022937 S    
C5    C19   1.565265 S    
C17   C25   1.514226 S    
C26   H27   1.107439 S    
C17   C18   1.516161 S    
O2    C1    1.298530 A    
C25   H22   1.109460 S    
C12   H40   1.115285 S    
C7    C9    1.573288 S    
C27   H31   1.103303 S    
C15   C23   1.515638 S    
N1    C26   1.445645 S    
C10   C11   1.574014 S    
Zn2   O6    1.922911 S    
C23   H15   1.108557 S    
N1    C17   1.319592 D    
Zn2   N1    2.023852 S    
C5    H26   1.116404 S    
C11   H10   1.111746 S    
C24   H21   1.108831 S    
