data_mof_unit_1332.cif
_audit_creation_date              2012-10-26T18:51:17-0400
_audit_creation_method            fapswitch 2.2
_symmetry_space_group_name_H-M    P1
_symmetry_Int_Tables_number       1
_space_group_crystal_system       triclinic
_cell_length_a                    15.031236
_cell_length_b                    13.919805
_cell_length_c                    23.420812
_cell_angle_alpha                 90.290412
_cell_angle_beta                  83.289158
_cell_angle_gamma                 89.673832
_cell_volume                      4866.64572413

loop_
_atom_site_label
_atom_site_type_symbol
_atom_type_description
_atom_site_fract_x
_atom_site_fract_y
_atom_site_fract_z
_atom_type_partial_charge
C1    C     C_R   0.328460 0.500282 0.502465 0.590908
C2    C     C_R   0.530836 0.430612 0.704082 -0.131607
C3    C     C_R   0.435858 0.440719 0.244073 0.266165
C4    C     C_R   0.526781 0.435990 0.764051 0.247649
C5    C     C_R   0.502654 0.492353 0.208612 0.166188
C6    C     C_R   0.494158 0.520623 0.792922 0.199166
C7    C     C_R   0.829079 0.479558 0.446000 0.177464
C8    C     C_R   0.171966 0.496249 0.554018 0.226411
C9    C     C_R   0.769620 0.500917 0.496175 -0.005296
C10   C     C_R   0.231232 0.502728 0.502634 0.012344
C11   C     C_R   0.803516 0.530851 0.546242 -0.121671
C12   C     C_R   0.671799 0.499632 0.497168 0.554884
C13   C     C_R   0.197887 0.516086 0.450144 -0.141892
C14   C     C_R   0.895686 0.533837 0.548116 -0.023685
C15   C     C_R   0.105755 0.518262 0.447896 -0.027759
C16   C     C_R   0.498966 0.499635 0.391205 0.569039
C17   C     C_R   0.501631 0.500946 0.609114 0.584010
C18   C     C_R   0.954163 0.522677 0.496979 -0.009779
C19   C     C_R   0.047135 0.522784 0.499294 -0.017183
C20   C     C_R   0.919815 0.507833 0.443878 0.019155
C21   C     C_R   0.081388 0.523820 0.553079 0.013400
C22   C     C_R   0.930063 0.551179 0.600021 -0.064562
C23   C     C_R   0.582538 0.509801 0.233802 0.244108
C24   C     C_R   0.071675 0.519689 0.395034 -0.061117
C25   C     C_R   0.022362 0.548534 0.603078 0.273542
C26   C     C_R   0.979373 0.517092 0.392071 0.277971
C27   C     C_R   0.428505 0.796648 0.529696 0.324688
C28   C     C_R   0.552492 0.202818 0.458143 0.361295
C29   C     C_R   0.570692 0.795767 0.469682 0.337341
C30   C     C_R   0.443880 0.203551 0.539874 0.360350
C31   C     C_R   0.573565 0.899020 0.473297 -0.007721
C32   C     C_R   0.428025 0.105354 0.527770 -0.004123
C33   C     C_R   0.424342 0.899786 0.524908 -0.005650
C34   C     C_R   0.468117 0.599562 0.761132 0.251800
C35   C     C_R   0.568013 0.104319 0.469013 -0.003062
C36   C     C_R   0.498689 0.949923 0.498892 -0.005339
C37   C     C_R   0.498233 0.052633 0.498539 0.013689
C38   C     C_R   0.649086 0.954568 0.450515 -0.048307
C39   C     C_R   0.351338 0.056385 0.550527 -0.071856
C40   C     C_R   0.347924 0.956063 0.546626 -0.045878
C41   C     C_R   0.644450 0.054596 0.445547 -0.071499
C42   C     C_R   0.560263 0.566702 0.877803 0.493575
C43   C     C_R   0.409294 0.517264 0.128839 0.466490
C44   C     C_R   0.414159 0.498043 0.887741 0.498403
C45   C     C_R   0.577320 0.522103 0.293278 -0.072819
C46   C     C_R   0.552262 0.583673 0.119100 0.474511
C47   C     C_R   0.406715 0.507129 0.948543 0.026950
C48   C     C_R   0.555990 0.587019 0.058231 0.027584
C49   C     C_R   0.482200 0.543321 0.973073 -0.066602
C50   C     C_R   0.482426 0.547720 0.033372 -0.067450
C51   C     C_R   0.557686 0.575739 0.937438 -0.000312
C52   C     C_R   0.406641 0.517777 0.069280 0.001409
C53   C     C_R   0.328215 0.482673 0.986063 0.235681
C54   C     C_R   0.628976 0.626110 0.021144 0.239155
C55   C     C_R   0.330025 0.488350 0.045581 -0.049106
C56   C     C_R   0.473793 0.592511 0.701380 -0.111595
C57   C     C_R   0.628896 0.617874 0.961630 -0.056650
C58   C     C_R   0.499419 0.497874 0.328591 -0.064898
C59   C     C_R   0.501429 0.506887 0.672383 -0.070495
C60   C     C_R   0.431299 0.450667 0.303960 -0.120275
Cu1   Cu    Cu3+1 0.500000 0.597420 0.500000 1.147641
Cu2   Cu    Cu3+1 0.500000 0.402580 0.500000 1.195429
H1    H     H_    0.378502 0.415238 0.331412 0.178392
H2    H     H_    0.382096 0.305408 0.684317 0.387133
H3    H     H_    0.713088 0.922859 0.435441 0.213164
H4    H     H_    0.294186 0.095745 0.571581 0.175878
H5    H     H_    0.284298 0.924690 0.561868 0.212412
H6    H     H_    0.700949 0.093198 0.423914 0.184358
H7    H     H_    0.271533 0.467184 0.073981 0.234291
H8    H     H_    0.685385 0.644810 0.933560 0.231522
H9    H     H_    0.794764 0.381197 0.218634 0.412078
H10   H     H_    0.371086 0.841633 0.769380 0.404573
H11   H     H_    0.637425 0.539403 0.311964 0.229414
H12   H     H_    0.559378 0.368102 0.682173 0.225590
H13   H     H_    0.456552 0.654660 0.677489 0.213566
H14   H     H_    0.375922 0.188094 0.244359 0.393224
H15   H     H_    0.652204 0.316635 0.867225 0.388184
H16   H     H_    0.776815 0.278021 0.464151 0.333515
H17   H     H_    0.208483 0.291299 0.549886 0.329413
H18   H     H_    0.757895 0.545901 0.584720 0.128751
H19   H     H_    0.243806 0.519057 0.410822 0.117527
H20   H     H_    0.884770 0.567606 0.638374 0.178915
H21   H     H_    0.117363 0.523853 0.355722 0.182828
H22   H     H_    0.089926 0.419188 0.001894 0.399194
H23   H     H_    0.847386 0.746004 0.005664 0.397475
H24   H     H_    0.014290 0.714477 0.724089 0.398442
H25   H     H_    0.996899 0.638958 0.254040 0.401777
H26   H     H_    0.319597 0.636547 0.643185 0.398781
H27   H     H_    0.603599 0.308822 0.314616 0.393880
H28   H     H_    0.714542 0.605637 0.393330 0.386269
N1    N     N_R   0.489742 0.527713 0.854428 -0.373433
N2    N     N_R   0.489357 0.527884 0.150864 -0.386465
N3    N     N_R   0.500000 0.743810 0.500000 -0.278892
N4    N     N_R   0.500000 0.256190 0.500000 -0.264643
O1    O     O_R   0.370260 0.582280 0.500010 -0.442410
O2    O     O_2   0.331954 0.511299 0.163940 -0.411889
O3    O     O_2   0.347930 0.459259 0.861403 -0.334065
O4    O     O_2   0.606251 0.639775 0.146427 -0.347663
O5    O     O_2   0.195557 0.521240 0.921804 -0.164077
O6    O     O_2   0.235769 0.351539 0.933149 -0.163433
O7    O     O_3   0.144377 0.438904 0.018890 -0.491922
O8    O     O_2   0.695156 0.770425 0.079816 -0.171530
O9    O     O_2   0.771032 0.613705 0.080520 -0.149147
O10   O     O_3   0.796942 0.716376 0.988433 -0.496156
O11   O     O_2   0.054832 0.524026 0.712734 -0.160301
O12   O     O_R   0.629740 0.417720 0.499990 -0.464977
O13   O     O_2   0.152729 0.635301 0.653912 -0.203426
O14   O     O_3   0.990694 0.689990 0.689068 -0.492068
O15   O     O_2   0.943697 0.460106 0.286885 -0.173997
O16   O     O_2   0.853944 0.594325 0.331629 -0.224752
O17   O     O_3   0.018551 0.626054 0.291634 -0.490073
O18   O     O_2   0.322446 0.809210 0.629956 -0.258986
O19   O     O_2   0.254953 0.749031 0.547117 -0.260056
O20   O     O_3   0.345911 0.634027 0.602472 -0.470834
O21   O     O_2   0.560005 0.130836 0.350166 -0.231983
O22   O     O_2   0.447876 0.253881 0.378618 -0.262724
O23   O     O_R   0.629740 0.582280 0.499990 -0.461943
O24   O     O_3   0.614522 0.304927 0.355433 -0.404500
O25   O     O_2   0.677450 0.803682 0.368999 -0.225926
O26   O     O_2   0.744286 0.747571 0.453063 -0.298770
O27   O     O_3   0.653040 0.631745 0.397825 -0.487366
O28   O     O_2   0.421604 0.132479 0.648011 -0.236936
O29   O     O_2   0.546427 0.239216 0.621067 -0.281023
O30   O     O_3   0.385183 0.312647 0.642081 -0.418035
O31   O     O_2   0.684519 0.443389 0.138207 -0.218220
O32   O     O_2   0.751064 0.562474 0.198701 -0.145106
O33   O     O_3   0.731524 0.388140 0.235600 -0.456859
O34   O     O_R   0.370260 0.417720 0.500010 -0.475027
O35   O     O_2   0.351995 0.686780 0.840688 -0.211495
O36   O     O_2   0.502479 0.754862 0.822458 -0.215487
O37   O     O_3   0.392014 0.783691 0.746887 -0.465530
O38   O     O_2   0.415811 0.316697 0.156855 -0.225658
O39   O     O_2   0.283702 0.350596 0.226705 -0.200518
O40   O     O_3   0.409527 0.242643 0.258432 -0.448816
O41   O     O_2   0.485285 0.298254 0.841534 -0.207531
O42   O     O_2   0.599205 0.258060 0.761322 -0.200481
O43   O     O_3   0.643844 0.371411 0.841514 -0.476117
O44   O     O_2   0.749617 0.429425 0.354053 -0.186820
O45   O     O_R   0.499980 0.582290 0.417880 -0.452436
O46   O     O_2   0.883713 0.337830 0.370385 -0.212917
O47   O     O_3   0.738687 0.303063 0.435762 -0.474996
O48   O     O_2   0.259542 0.460888 0.645701 -0.175644
O49   O     O_2   0.116664 0.378211 0.642753 -0.210124
O50   O     O_3   0.251823 0.318509 0.574257 -0.473982
O51   O     O_R   0.500020 0.417710 0.582120 -0.426948
O52   O     O_R   0.500020 0.582290 0.582120 -0.481067
O53   O     O_R   0.499980 0.417710 0.417880 -0.435999
O54   O     O_2   0.632989 0.596147 0.843125 -0.406295
S1    S     S_3+6 0.224622 0.447686 0.962738 0.122266
S2    S     S_3+6 0.428121 0.707968 0.795091 0.087309
S3    S     S_3+6 0.383703 0.337146 0.218961 0.099632
S4    S     S_3+6 0.563041 0.336392 0.802156 0.089876
S5    S     S_3+6 0.800978 0.387102 0.399027 0.091144
S6    S     S_3+6 0.199270 0.414137 0.607138 0.108625
S7    S     S_3+6 0.724202 0.682574 0.044757 0.122085
S8    S     S_3+6 0.059045 0.598117 0.666090 0.116004
S9    S     S_3+6 0.944782 0.547789 0.324456 0.111818
S10   S     S_3+6 0.337654 0.745550 0.577500 0.070456
S11   S     S_3+6 0.542269 0.222385 0.384124 0.101015
S12   S     S_3+6 0.661943 0.743258 0.422267 0.073280
S13   S     S_3+6 0.449846 0.221272 0.614419 0.087470
S14   S     S_3+6 0.689642 0.477639 0.198689 0.126740

loop_
_geom_bond_atom_site_label_1
_geom_bond_atom_site_label_2
_ccdc_geom_bond_type
C12   O12   A    
C34   C56   A    
C23   C45   A    
H23   O10   S    
C14   C18   A    
C17   O51   A    
O31   S14   D    
O39   S3    D    
C1    O34   A    
O15   S9    D    
C34   S2    S    
C47   C49   A    
C27   C33   A    
C27   S10   S    
C48   C54   A    
O5    S1    D    
O28   S13   D    
O18   S10   D    
C60   H1    S    
C22   H20   S    
C45   H11   S    
C36   C37   A    
C35   C37   A    
C24   H21   S    
H15   O43   S    
C18   C19   A    
O29   S13   D    
C11   C14   A    
Cu1   N3    S    
C43   C52   A    
H25   O17   S    
C58   C60   A    
O41   S4    D    
C13   H19   S    
C33   C36   A    
C22   C25   A    
C26   S9    S    
C28   N4    A    
C42   N1    A    
C32   C39   A    
O20   S10   S    
C15   C19   A    
C28   C35   A    
O25   S12   D    
C49   C51   A    
Cu2   O51   S    
O14   S8    S    
O36   S2    D    
C50   C52   A    
O43   S4    S    
C51   C57   A    
C57   H8    S    
C29   S12   S    
C8    S6    S    
O13   S8    D    
C2    H12   S    
C44   C47   A    
C42   C51   A    
C47   C53   A    
C23   S14   S    
C3    C60   A    
C29   N3    A    
C48   C50   A    
C46   O4    S    
C42   O54   S    
C56   H13   S    
C25   S8    S    
C53   S1    S    
H22   O7    S    
H9    O33   S    
O24   S11   S    
O42   S4    D    
C43   O2    S    
C41   H6    S    
C53   C55   A    
C4    S4    S    
C46   C48   A    
C45   C58   A    
C33   C40   A    
Cu1   O23   S    
O22   S11   D    
C4    C6    A    
H16   O47   S    
C54   S7    S    
H14   O40   S    
C2    C59   A    
Cu1   O45   S    
O49   S6    D    
H2    O30   S    
O27   S12   S    
C28   S11   S    
C6    C34   A    
O21   S11   D    
C2    C4    A    
Cu1   O52   S    
C44   O3    S    
H17   O50   S    
C7    S5    S    
C38   H3    S    
C1    O1    A    
C8    C21   A    
H26   O20   S    
C16   C58   S    
C32   C37   A    
O48   S6    D    
C9    C11   A    
C55   H7    S    
O16   S9    D    
C17   C59   S    
O44   S5    D    
O9    S7    D    
C15   C24   A    
C49   C50   A    
O33   S14   S    
Cu2   O53   S    
C16   O53   A    
C13   C15   A    
O19   S10   D    
H28   O27   S    
C27   N3    A    
C16   O45   A    
C39   C40   A    
C40   H5    S    
H10   O37   S    
O30   S13   S    
C7    C9    A    
C21   C25   A    
C19   C21   A    
H24   O14   S    
C1    C10   S    
C24   C26   A    
C3    C5    A    
C10   C13   A    
Cu1   O1    S    
C31   C38   A    
Cu2   O12   S    
Cu2   O34   S    
O6    S1    D    
C5    C23   A    
C3    S3    S    
C43   N2    A    
C30   S13   S    
C56   C59   A    
C14   C22   A    
Cu2   N4    S    
C17   O52   A    
O17   S9    S    
O35   S2    D    
C29   C31   A    
C30   C32   A    
C52   C55   A    
O47   S5    S    
C20   C26   A    
C38   C41   A    
O40   S3    S    
O7    S1    S    
C39   H4    S    
C18   C20   A    
O10   S7    S    
O50   S6    S    
Cu1   Cu2   S    
C35   C41   A    
C9    C12   S    
C44   N1    A    
C5    N2    S    
C11   H18   S    
C12   O23   A    
O11   S8    D    
C46   N2    A    
H27   O24   S    
C8    C10   A    
C7    C20   A    
C30   N4    A    
O26   S12   D    
O38   S3    D    
C31   C36   A    
O37   S2    S    
O46   S5    D    
O32   S14   D    
O8    S7    D    
C6    N1    S    
C54   C57   A    
