data_mof_unit_2784.cif
_audit_creation_date              2012-12-10T17:46:31-0500
_audit_creation_method            fapswitch 2.2
_symmetry_space_group_name_H-M    P1
_symmetry_Int_Tables_number       1
_space_group_crystal_system       triclinic
_cell_length_a                    20.892906
_cell_length_b                    22.085732
_cell_length_c                    14.75394
_cell_angle_alpha                 89.999794
_cell_angle_beta                  128.167604
_cell_angle_gamma                 89.998206
_cell_volume                      5352.48242576

loop_
_atom_site_label
_atom_site_type_symbol
_atom_type_description
_atom_site_fract_x
_atom_site_fract_y
_atom_site_fract_z
_atom_type_partial_charge
C1    C     C_R   0.600943 0.913141 0.629336 0.854786
C2    C     C_R   0.399504 0.087320 0.370751 0.856450
C3    C     C_R   0.399070 0.913130 0.370679 0.854902
C4    C     C_R   0.600502 0.087314 0.629260 0.856350
C5    C     C_R   0.100929 0.413133 0.629312 0.855339
C6    C     C_R   0.899477 0.587302 0.370716 0.856422
C7    C     C_R   0.899049 0.413147 0.370655 0.855110
C8    C     C_R   0.100526 0.587296 0.629284 0.856739
C9    C     C_R   0.204175 0.818056 0.825200 -0.160971
C10   C     C_R   0.797957 0.185695 0.166474 -0.161166
C11   C     C_R   0.795911 0.818083 0.174839 -0.160863
C12   C     C_R   0.201684 0.185699 0.833487 -0.161088
C13   C     C_R   0.704039 0.318136 0.825077 -0.161039
C14   C     C_R   0.298195 0.685617 0.166645 -0.161031
C15   C     C_R   0.296136 0.318187 0.175040 -0.161127
C16   C     C_R   0.701919 0.685651 0.833408 -0.161119
C17   C     C_R   0.322448 0.005566 0.665931 -0.283383
C18   C     C_R   0.677548 0.005575 0.334064 -0.283422
C19   C     C_R   0.822448 0.505614 0.665929 -0.283376
C20   C     C_R   0.177548 0.505602 0.334070 -0.283430
C21   C     C_R   0.351517 0.003964 0.603018 0.185684
C22   C     C_R   0.648483 0.003957 0.396981 0.185678
C23   C     C_R   0.851518 0.503985 0.603017 0.185724
C24   C     C_R   0.148483 0.503962 0.396986 0.185733
C25   C     C_R   0.487185 0.998175 0.775069 0.053920
C26   C     C_R   0.512812 0.998191 0.224929 0.054000
C27   C     C_R   0.987182 0.498183 0.775070 0.053360
C28   C     C_R   0.012812 0.498199 0.224930 0.053783
C29   C     C_R   0.460752 0.998843 0.844403 -0.018204
C30   C     C_R   0.539244 0.998852 0.155593 -0.018098
C31   C     C_R   0.960747 0.498881 0.844403 -0.018241
C32   C     C_R   0.039242 0.498887 0.155594 -0.018191
C33   C     C_R   0.375599 0.000613 0.786280 0.062306
C34   C     C_R   0.624397 0.000626 0.213715 0.062246
C35   C     C_R   0.875593 0.500657 0.786277 0.062362
C36   C     C_R   0.124396 0.500672 0.213717 0.062323
C37   C     C_R   0.515540 0.998609 0.968306 0.056987
C38   C     C_R   0.484456 0.998605 0.031689 0.057077
C39   C     C_R   0.015534 0.498661 0.968306 0.056980
C40   C     C_R   0.984451 0.498651 0.031689 0.057036
C41   C     C_R   0.399521 0.999034 0.969398 -0.245851
C42   C     C_R   0.600475 0.999061 0.030595 -0.245598
C43   C     C_R   0.899517 0.499085 0.969399 -0.245806
C44   C     C_R   0.100466 0.499143 0.030596 -0.246137
C45   C     C_R   0.345256 0.999364 0.849339 -0.001245
C46   C     C_R   0.654741 0.999386 0.150654 -0.001307
C47   C     C_R   0.845248 0.499410 0.849337 -0.001339
C48   C     C_R   0.154736 0.499460 0.150653 -0.001153
C49   C     C_R   0.647332 0.143216 0.691478 -0.166992
C50   C     C_R   0.350229 0.858400 0.307295 -0.157201
C51   C     C_R   0.352700 0.143243 0.308575 -0.167030
C52   C     C_R   0.649810 0.858426 0.692738 -0.157057
C53   C     C_R   0.147418 0.643166 0.691545 -0.166959
C54   C     C_R   0.850165 0.358441 0.307247 -0.156949
C55   C     C_R   0.852604 0.643185 0.308463 -0.167035
C56   C     C_R   0.149794 0.358417 0.692688 -0.157122
C57   C     C_R   0.679583 0.247791 0.681810 -0.209626
C58   C     C_R   0.325420 0.752177 0.314571 -0.213101
C59   C     C_R   0.320615 0.247855 0.318355 -0.209493
C60   C     C_R   0.674694 0.752219 0.685484 -0.213163
C61   C     C_R   0.179686 0.747733 0.681903 -0.209571
C62   C     C_R   0.825252 0.252240 0.314449 -0.213205
C63   C     C_R   0.820363 0.747761 0.318122 -0.209567
C64   C     C_R   0.174413 0.252158 0.685443 -0.213014
C65   C     C_R   0.654866 0.190186 0.632570 -0.023421
C66   C     C_R   0.350094 0.808582 0.367554 0.008528
C67   C     C_R   0.345268 0.190235 0.367553 -0.023415
C68   C     C_R   0.649982 0.808620 0.632488 0.008542
C69   C     C_R   0.154918 0.690146 0.632620 -0.023368
C70   C     C_R   0.850020 0.308623 0.367497 0.008605
C71   C     C_R   0.845099 0.690164 0.367386 -0.023360
C72   C     C_R   0.149745 0.308540 0.632386 0.008519
C73   C     C_R   0.674061 0.154444 0.805488 -0.071348
C74   C     C_R   0.314013 0.852344 0.188566 -0.163525
C75   C     C_R   0.325904 0.154466 0.194533 -0.071523
C76   C     C_R   0.686019 0.852365 0.811466 -0.163608
C77   C     C_R   0.174251 0.654354 0.805615 -0.071341
C78   C     C_R   0.813888 0.352409 0.188491 -0.163726
C79   C     C_R   0.825814 0.654391 0.194418 -0.071369
C80   C     C_R   0.186232 0.352455 0.811506 -0.163939
C81   C     C_R   0.709872 0.210773 0.859761 0.025391
C82   C     C_R   0.286529 0.794649 0.133255 0.049307
C83   C     C_R   0.290151 0.210822 0.140314 0.025486
C84   C     C_R   0.713548 0.794676 0.866783 0.049325
C85   C     C_R   0.210061 0.710686 0.859897 0.025468
C86   C     C_R   0.786355 0.294728 0.133136 0.049297
C87   C     C_R   0.789996 0.710717 0.140132 0.025411
C88   C     C_R   0.213591 0.294750 0.866857 0.049343
C89   C     C_R   0.700899 0.258933 0.790401 0.119316
C90   C     C_R   0.301136 0.744221 0.203528 0.122182
C91   C     C_R   0.299245 0.258993 0.209729 0.119240
C92   C     C_R   0.698970 0.744256 0.796521 0.122239
C93   C     C_R   0.201051 0.758857 0.790526 0.119249
C94   C     C_R   0.800934 0.244297 0.203386 0.122206
C95   C     C_R   0.799013 0.758887 0.209508 0.119287
C96   C     C_R   0.198806 0.244276 0.796558 0.122243
C97   C     C_R   0.745857 0.222820 0.977551 0.068618
C98   C     C_R   0.251482 0.783356 0.014590 0.073749
C99   C     C_R   0.254073 0.222869 0.022494 0.068745
C100  C     C_R   0.748593 0.783383 0.985443 0.073817
C101  C     C_R   0.246063 0.722731 0.977695 0.068690
C102  C     C_R   0.751305 0.283445 0.014462 0.073769
C103  C     C_R   0.754007 0.722762 0.022337 0.068692
C104  C     C_R   0.248694 0.283486 0.985569 0.073598
C105  C     C_R   0.219977 0.829212 0.929973 -0.147598
C106  C     C_R   0.777839 0.175905 0.059278 -0.163457
C107  C     C_R   0.780103 0.829237 0.070058 -0.147650
C108  C     C_R   0.221918 0.175953 0.940755 -0.163353
C109  C     C_R   0.719841 0.329304 0.929853 -0.147629
C110  C     C_R   0.278067 0.675820 0.059440 -0.163101
C111  C     C_R   0.280261 0.329339 0.070207 -0.147413
C112  C     C_R   0.722016 0.675853 0.940596 -0.163271
Cu1   Cu    Cu3+1 0.526640 0.000000 0.436960 1.059567
Cu2   Cu    Cu3+1 0.473360 0.000000 0.563040 1.059594
Cu3   Cu    Cu3+1 0.026640 0.500000 0.436960 1.059597
Cu4   Cu    Cu3+1 0.973360 0.500000 0.563040 1.059573
H1    H     H_    0.186981 0.855360 0.766674 0.183372
H2    H     H_    0.816253 0.147421 0.223738 0.179759
H3    H     H_    0.813113 0.855386 0.233369 0.183328
H4    H     H_    0.183242 0.147412 0.776203 0.179784
H5    H     H_    0.686880 0.355438 0.766559 0.183326
H6    H     H_    0.316513 0.647349 0.223930 0.179820
H7    H     H_    0.313381 0.355489 0.233586 0.183340
H8    H     H_    0.683625 0.647382 0.776136 0.179685
H9    H     H_    0.372686 0.999031 0.012127 0.222680
H10   H     H_    0.627308 0.999064 0.987863 0.222802
H11   H     H_    0.872689 0.499086 0.012135 0.222822
H12   H     H_    0.127293 0.499203 0.987863 0.222791
H13   H     H_    0.176699 0.785146 0.631674 0.171076
H14   H     H_    0.831677 0.213099 0.364048 0.157931
H15   H     H_    0.823354 0.785172 0.368357 0.171061
H16   H     H_    0.167848 0.212982 0.635815 0.157940
H17   H     H_    0.676627 0.285191 0.631583 0.171056
H18   H     H_    0.331860 0.713045 0.364197 0.157842
H19   H     H_    0.323650 0.285264 0.368625 0.171039
H20   H     H_    0.668273 0.713088 0.635869 0.157853
H21   H     H_    0.205151 0.873915 0.940497 0.174739
H22   H     H_    0.786848 0.130799 0.040816 0.194618
H23   H     H_    0.794919 0.873937 0.059507 0.174684
H24   H     H_    0.212870 0.130873 0.959279 0.194358
H25   H     H_    0.705045 0.374015 0.940385 0.174843
H26   H     H_    0.287071 0.630712 0.040974 0.194594
H27   H     H_    0.295114 0.374029 0.059697 0.174907
H28   H     H_    0.713002 0.630747 0.959050 0.194598
H29   H     H_    0.449998 0.996445 0.188631 0.192450
H30   H     H_    0.549998 0.996407 0.811368 0.192568
H31   H     H_    0.950000 0.496436 0.188635 0.192529
H32   H     H_    0.049992 0.496398 0.811370 0.192634
H33   H     H_    0.257743 0.011651 0.618842 0.186210
H34   H     H_    0.742250 0.011668 0.381151 0.186212
H35   H     H_    0.757748 0.511728 0.618838 0.186252
H36   H     H_    0.242250 0.511696 0.381161 0.186201
N1    N     N_R   0.433280 1.000000 0.657760 -0.230754
N2    N     N_R   0.566720 0.000000 0.342240 -0.230772
N3    N     N_R   0.933280 0.500000 0.657760 -0.230725
N4    N     N_R   0.066720 0.500000 0.342240 -0.230758
O1    O     O_R   0.600040 0.935040 0.546740 -0.561649
O2    O     O_R   0.399960 0.064960 0.453260 -0.578425
O3    O     O_R   0.399960 0.935040 0.453260 -0.561604
O4    O     O_R   0.600040 0.064960 0.546740 -0.578438
O5    O     O_R   0.100040 0.435040 0.546740 -0.561649
O6    O     O_R   0.899960 0.564960 0.453260 -0.578497
O7    O     O_R   0.899960 0.435040 0.453260 -0.561629
O8    O     O_R   0.100040 0.564960 0.546740 -0.578454
O9    O     O_R   0.555010 0.935070 0.653220 -0.549656
O10   O     O_R   0.444990 0.064930 0.346780 -0.554866
O11   O     O_R   0.444990 0.935070 0.346780 -0.549619
O12   O     O_R   0.555010 0.064930 0.653220 -0.554809
O13   O     O_R   0.055010 0.435070 0.653220 -0.549582
O14   O     O_R   0.944990 0.564930 0.346780 -0.554887
O15   O     O_R   0.944990 0.435070 0.346780 -0.549570
O16   O     O_R   0.055010 0.564930 0.653220 -0.554871
C113  C     C_2   0.314122 0.906102 0.129287 0.862246
O17   O     O_2   0.355629 0.906169 0.097028 -0.560681
O18   O     O_R   0.266672 0.956549 0.109121 -0.692863
H37   H     H_    0.234313 0.951067 0.138710 0.294980
C114  C     C_2   0.647606 0.114591 0.857537 0.868012
O19   O     O_2   0.673137 0.062877 0.884973 -0.564877
O20   O     O_R   0.595304 0.137580 0.878161 -0.727384
H38   H     H_    0.583029 0.107230 0.916939 0.322776
C115  C     C_2   0.685779 0.906074 0.870728 0.862169
O21   O     O_2   0.644221 0.906041 0.902908 -0.560563
O22   O     O_R   0.733186 0.956572 0.891013 -0.692969
H39   H     H_    0.765640 0.951148 0.861558 0.294937
C116  C     C_2   0.352195 0.114552 0.142343 0.867936
O23   O     O_2   0.326660 0.062834 0.115057 -0.564548
O24   O     O_R   0.404322 0.137491 0.121364 -0.727511
H40   H     H_    0.416451 0.107111 0.082459 0.322830
C117  C     C_2   0.814018 0.406160 0.129227 0.862273
O25   O     O_2   0.855551 0.406213 0.097008 -0.560626
O26   O     O_R   0.766528 0.456598 0.108974 -0.692892
H41   H     H_    0.734118 0.451109 0.138484 0.294979
C118  C     C_2   0.147859 0.614466 0.857702 0.867764
O27   O     O_2   0.173306 0.562720 0.884935 -0.564389
O28   O     O_R   0.095697 0.637461 0.878576 -0.727548
H42   H     H_    0.083392 0.607082 0.917271 0.322797
C119  C     C_2   0.186545 0.406373 0.870832 0.862626
O29   O     O_2   0.145227 0.406732 0.903391 -0.560854
O30   O     O_R   0.234119 0.456664 0.890609 -0.692845
H43   H     H_    0.266305 0.450940 0.860800 0.294977
C120  C     C_2   0.852240 0.614526 0.142354 0.867850
O31   O     O_2   0.826750 0.562800 0.115018 -0.564677
O32   O     O_R   0.904458 0.637518 0.121582 -0.727498
H44   H     H_    0.916750 0.607150 0.082853 0.322786
C121  C     C_2   0.383655 0.810851 0.489947 0.884399
O33   O     O_2   0.453570 0.827580 0.564165 -0.583122
O34   O     O_R   0.336279 0.790220 0.520864 -0.715450
H45   H     H_    0.365818 0.792986 0.606909 0.349948
C122  C     C_2   0.626095 0.184853 0.512692 0.910132
O35   O     O_2   0.555464 0.171082 0.434911 -0.579116
O36   O     O_R   0.678943 0.199413 0.487977 -0.703248
H46   H     H_    0.652399 0.194930 0.403070 0.349758
C123  C     C_2   0.616388 0.810882 0.510077 0.884462
O37   O     O_2   0.546458 0.827586 0.435870 -0.583183
O38   O     O_R   0.663753 0.790265 0.479130 -0.715420
H47   H     H_    0.634183 0.793022 0.393074 0.349929
C124  C     C_2   0.374062 0.184892 0.487439 0.910036
O39   O     O_2   0.444678 0.171064 0.565185 -0.579058
O40   O     O_R   0.321257 0.199508 0.512207 -0.703199
H48   H     H_    0.347814 0.195012 0.597116 0.349816
C125  C     C_2   0.883686 0.310844 0.489944 0.884280
O41   O     O_2   0.953591 0.327612 0.564096 -0.583285
O42   O     O_R   0.836430 0.290101 0.520991 -0.715560
H49   H     H_    0.866051 0.292826 0.607065 0.349880
C126  C     C_2   0.126037 0.684852 0.512679 0.910149
O43   O     O_2   0.055384 0.671098 0.434962 -0.579083
O44   O     O_R   0.178806 0.699442 0.487835 -0.703293
H50   H     H_    0.152188 0.694995 0.402898 0.349762
C127  C     C_2   0.116038 0.310728 0.509921 0.884160
O45   O     O_2   0.046196 0.327638 0.435822 -0.583206
O46   O     O_R   0.163178 0.289797 0.478796 -0.715573
H51   H     H_    0.133544 0.292519 0.392719 0.349950
C128  C     C_2   0.873942 0.684855 0.487304 0.910169
O47   O     O_2   0.944589 0.671094 0.565044 -0.579078
O48   O     O_R   0.821143 0.699432 0.512100 -0.703244
H52   H     H_    0.847733 0.694967 0.597025 0.349760
C129  C     C_2   0.256743 0.996872 0.793680 0.836010
O49   O     O_2   0.229906 0.026313 0.833754 -0.582366
O50   O     O_R   0.204775 0.958890 0.699222 -0.781029
H53   H     H_    0.146353 0.961115 0.670029 0.333989
C130  C     C_2   0.743254 0.996889 0.206313 0.835944
O51   O     O_2   0.770087 0.026317 0.166220 -0.582398
O52   O     O_R   0.795228 0.958915 0.300789 -0.780997
H54   H     H_    0.853650 0.961140 0.329984 0.333990
C131  C     C_2   0.756734 0.496898 0.793686 0.835891
O53   O     O_2   0.729912 0.526264 0.833858 -0.582331
O54   O     O_R   0.704750 0.458973 0.699131 -0.781042
H55   H     H_    0.646330 0.461180 0.669952 0.333984
C132  C     C_2   0.243249 0.496987 0.206300 0.836140
O55   O     O_2   0.270064 0.526435 0.166204 -0.582576
O56   O     O_R   0.295241 0.459011 0.300763 -0.781000
H56   H     H_    0.353661 0.461256 0.329953 0.333957
C133  C     C_2   0.709371 0.007404 0.523100 0.877665
O57   O     O_2   0.736254 0.960947 0.580178 -0.584054
O58   O     O_R   0.742628 0.063522 0.575487 -0.746903
H57   H     H_    0.785388 0.060200 0.662208 0.333518
C134  C     C_2   0.290631 0.007438 0.476900 0.877699
O59   O     O_2   0.263744 0.960996 0.419787 -0.584084
O60   O     O_R   0.257382 0.063565 0.424554 -0.746861
H58   H     H_    0.214621 0.060261 0.337831 0.333544
C135  C     C_2   0.209372 0.507391 0.523110 0.877675
O61   O     O_2   0.236257 0.460927 0.580162 -0.584199
O62   O     O_R   0.242628 0.563501 0.575530 -0.746889
H59   H     H_    0.285385 0.560165 0.662248 0.333578
C136  C     C_2   0.790633 0.507467 0.476899 0.877641
O63   O     O_2   0.763757 0.461029 0.419771 -0.584134
O64   O     O_R   0.757377 0.563596 0.424571 -0.746904
H60   H     H_    0.714627 0.560299 0.337846 0.333556

loop_
_geom_bond_atom_site_label_1
_geom_bond_atom_site_label_2
_ccdc_geom_bond_type
C3    O3    A    
O32   H44   S    
C88   C96   A    
C6    C55   S    
C14   H6    S    
C7    O15   A    
Cu3   N4    S    
C33   C45   A    
C120  O31   D    
C62   H14   S    
Cu4   O7    S    
C53   C77   A    
O42   H49   S    
C48   C132  S    
Cu1   N2    S    
O38   H47   S    
C11   H3    S    
C76   C84   A    
C79   C87   A    
C3    O11   A    
O62   H59   S    
C4    O4    A    
C121  O33   D    
C58   H18   S    
C99   C108  A    
C62   C70   A    
C132  O55   D    
C127  O45   D    
C98   C105  A    
C57   C89   A    
C32   C36   A    
Cu4   O6    S    
O50   H53   S    
C51   C75   A    
C134  O59   D    
C23   N3    A    
C50   C74   A    
C62   C94   A    
C22   N2    A    
C133  O57   D    
C61   C93   A    
C116  O24   S    
C10   C94   A    
C9    C105  A    
O52   H54   S    
C129  O50   S    
C63   C95   A    
C37   C42   A    
C70   C125  S    
C55   C79   A    
Cu4   O16   S    
C117  O26   S    
C130  O51   D    
C42   C46   A    
Cu3   O8    S    
C110  H26   S    
C18   H34   S    
C77   C118  S    
C14   C90   A    
Cu4   N3    S    
C13   C109  A    
C86   C94   A    
C77   C85   A    
C59   C67   A    
C115  O21   D    
C12   H4    S    
C85   C93   A    
C58   C66   A    
C40   C43   A    
Cu2   O2    S    
C64   H16   S    
C29   C33   A    
C31   C39   A    
C27   H32   S    
C56   C72   A    
C87   C95   A    
C24   C135  S    
C19   H35   S    
O48   H52   S    
C25   H30   S    
C34   C46   A    
C63   H15   S    
C136  O63   D    
C2    O10   A    
Cu2   N1    S    
C65   C122  S    
C97   C102  A    
C52   C68   A    
C61   H13   S    
O60   H58   S    
C73   C114  S    
C60   C92   A    
C78   C86   A    
C123  O38   S    
C99   C104  A    
C53   C69   A    
O30   H43   S    
C83   C99   A    
C131  O53   D    
C80   C88   A    
C27   N3    A    
C120  O32   S    
C57   H17   S    
C75   C116  S    
C78   C117  S    
C17   C33   A    
C74   C82   A    
Cu3   O14   S    
C5    O13   A    
C73   C81   A    
C88   C104  A    
C3    C50   S    
C126  O43   D    
O34   H45   S    
C121  O34   S    
C25   C29   A    
C126  O44   S    
C132  O56   S    
C30   C38   A    
C72   C127  S    
C82   C98   A    
C25   N1    A    
O26   H41   S    
C84   C100  A    
C75   C83   A    
C15   C111  A    
C28   C32   A    
C8    O16   A    
C64   C96   A    
C74   C113  S    
Cu3   O15   S    
C8    O8    A    
C115  O22   S    
C43   H11   S    
C39   C40   A    
C12   C108  A    
C66   C121  S    
C30   C34   A    
C51   C67   A    
C22   C133  S    
C79   C120  S    
C101  C110  A    
C123  O37   D    
C7    O7    A    
C23   C136  S    
C100  C103  A    
C17   C21   A    
C4    O12   A    
C103  C112  A    
C130  O52   S    
C5    O5    A    
Cu3   O5    S    
C26   H29   S    
C19   C23   A    
O22   H39   S    
O36   H46   S    
C37   C38   A    
C10   H2    S    
C41   H9    S    
C125  O41   D    
C13   H5    S    
C108  H24   S    
O44   H50   S    
C54   C70   A    
C67   C124  S    
C56   C80   A    
C2    O2    A    
C9    H1    S    
C118  O28   S    
C122  O35   D    
O56   H56   S    
C7    C54   S    
C59   C91   A    
C119  O30   S    
C84   C92   A    
C68   C123  S    
C128  O48   S    
C113  O18   S    
C49   C65   A    
C38   C41   A    
C24   N4    A    
C87   C103  A    
C97   C106  A    
C106  H22   S    
C63   C71   A    
C26   C30   A    
C5    C56   S    
C131  O54   S    
C27   C31   A    
C11   C107  A    
C128  O47   D    
C49   C73   A    
C26   N2    A    
C16   C92   A    
O58   H57   S    
C86   C102  A    
C9    C93   A    
C136  O64   S    
C47   C131  S    
C32   C40   A    
C85   C101  A    
C16   C112  A    
Cu2   O9    S    
C135  O62   S    
Cu1   Cu2   S    
C6    O14   A    
C11   C95   A    
C117  O25   D    
O40   H48   S    
C60   H20   S    
C44   H12   S    
C100  C107  A    
C21   N1    A    
C13   C89   A    
C1    O9    A    
C18   C22   A    
C6    O6    A    
C17   H33   S    
C57   C65   A    
C52   C76   A    
C69   C126  S    
C8    C53   S    
Cu1   O11   S    
C104  C111  A    
O54   H55   S    
C50   C66   A    
Cu2   O12   S    
C39   C44   A    
C111  H27   S    
O20   H38   S    
C124  O40   S    
C98   C101  A    
C83   C91   A    
C82   C90   A    
C4    C49   S    
C58   C90   A    
O64   H60   S    
C61   C69   A    
Cu1   O1    S    
C112  H28   S    
C105  H21   S    
C1    O1    A    
C124  O39   D    
C81   C89   A    
Cu1   O10   S    
C127  O46   S    
O18   H37   S    
C19   C35   A    
C118  O27   D    
C21   C134  S    
C116  O23   D    
C135  O61   D    
C81   C97   A    
C18   C34   A    
C14   C110  A    
C80   C119  S    
C59   H19   S    
C122  O36   S    
C54   C78   A    
C114  O20   S    
Cu4   O13   S    
C36   C48   A    
C31   C35   A    
C64   C72   A    
Cu1   O4    S    
C16   H8    S    
C119  O29   D    
C1    C52   S    
C45   C129  S    
Cu2   O3    S    
C10   C106  A    
C2    C51   S    
C42   H10   S    
C15   C91   A    
O28   H42   S    
C20   C36   A    
C44   C48   A    
O24   H40   S    
C20   H36   S    
C60   C68   A    
C125  O42   S    
C114  O19   D    
C133  O58   S    
C29   C37   A    
O46   H51   S    
C28   N4    A    
C41   C45   A    
C12   C96   A    
C102  C109  A    
C109  H25   S    
C15   H7    S    
C46   C130  S    
C134  O60   S    
C35   C47   A    
C129  O49   D    
C113  O17   D    
C43   C47   A    
C20   C24   A    
C107  H23   S    
C55   C71   A    
C76   C115  S    
Cu3   Cu4   S    
C71   C128  S    
C28   H31   S    
