data_mof_unit_3803.cif
_audit_creation_date              2012-12-11T14:38:30-0500
_audit_creation_method            fapswitch 2.2
_symmetry_space_group_name_H-M    P1
_symmetry_Int_Tables_number       1
_space_group_crystal_system       triclinic
_cell_length_a                    19.57454
_cell_length_b                    11.137358
_cell_length_c                    19.646524
_cell_angle_alpha                 89.970316
_cell_angle_beta                  96.803356
_cell_angle_gamma                 89.927668
_cell_volume                      4252.94878276

loop_
_atom_site_label
_atom_site_type_symbol
_atom_type_description
_atom_site_fract_x
_atom_site_fract_y
_atom_site_fract_z
_atom_type_partial_charge
C1    C     C_R   0.724541 0.954963 0.360625 0.547691
C2    C     C_3   0.178297 0.485939 0.469481 -0.224607
C3    C     C_3   0.447921 0.662053 0.616589 -0.363540
C4    C     C_3   0.078448 0.049957 0.421266 -0.024732
C5    C     C_3   0.052140 0.163148 0.383441 -0.363293
C6    C     C_3   0.921527 0.049393 0.578453 -0.024582
C7    C     C_3   0.947911 0.162111 0.616531 -0.363329
C8    C     C_3   0.321689 0.985698 0.530419 -0.224652
C9    C     C_3   0.678297 0.985940 0.469481 -0.224549
C10   C     C_3   0.762888 0.293724 0.554292 -0.273323
C11   C     C_3   0.237172 0.293686 0.445816 -0.273526
C12   C     C_3   0.262888 0.793723 0.554292 -0.273298
C13   C     C_3   0.737173 0.793686 0.445816 -0.273577
C14   C     C_3   0.761966 0.428272 0.566751 0.025458
C15   C     C_3   0.238044 0.428221 0.433230 0.025367
C16   C     C_3   0.261966 0.928272 0.566751 0.025564
C17   C     C_R   0.275473 0.955000 0.639350 0.546640
C18   C     C_3   0.738045 0.928220 0.433229 0.025235
C19   C     C_3   0.745203 0.391463 0.435515 0.073932
C20   C     C_3   0.254779 0.391492 0.564487 0.074341
C21   C     C_3   0.245203 0.891462 0.435515 0.074024
C22   C     C_3   0.754779 0.891493 0.564487 0.074263
C23   C     C_3   0.803286 0.482779 0.452359 -0.255937
C24   C     C_3   0.196687 0.483051 0.547545 -0.256083
C25   C     C_3   0.303286 0.982778 0.452360 -0.255764
C26   C     C_3   0.696687 0.983051 0.547545 -0.256092
C27   C     C_3   0.766813 0.275874 0.477652 -0.262426
C28   C     C_R   0.224541 0.454964 0.360626 0.547260
C29   C     C_3   0.233185 0.275957 0.522454 -0.262490
C30   C     C_3   0.266812 0.775873 0.477652 -0.262491
C31   C     C_3   0.733185 0.775958 0.522454 -0.262405
C32   C     C_3   0.552507 0.273400 0.948671 -0.234469
C33   C     C_3   0.576528 0.273553 0.025876 -0.239465
C34   C     C_3   0.055071 0.735263 0.952976 -0.249936
C35   C     C_3   0.071783 0.736812 0.031013 -0.218065
C36   C     C_3   0.436302 0.193883 0.972268 -0.226979
C37   C     C_3   0.555805 0.051587 0.030933 -0.231098
C38   C     C_3   0.928166 0.737008 0.968932 -0.217684
C39   C     C_R   0.775473 0.455000 0.639350 0.546950
C40   C     C_3   0.008884 0.540536 0.039244 -0.234988
C41   C     C_3   0.531964 0.050627 0.952882 -0.240103
C42   C     C_3   0.459948 0.195404 0.049296 -0.225456
C43   C     C_3   0.991104 0.540482 0.960903 -0.235210
C44   C     C_3   0.944891 0.735613 0.046972 -0.249727
C45   C     C_R   0.536280 0.180386 0.338631 0.538502
C46   C     C_R   0.463725 0.180356 0.661371 0.528707
C47   C     C_R   0.036278 0.680386 0.338631 0.531364
C48   C     C_R   0.963723 0.680356 0.661370 0.531171
C49   C     C_3   0.498276 0.173033 0.931016 0.054427
C50   C     C_3   0.676232 0.438336 0.459043 0.164110
C51   C     C_3   0.538640 0.174834 0.062488 0.045550
C52   C     C_3   0.985573 0.671927 0.933915 0.053842
C53   C     C_3   0.014399 0.672032 0.066097 0.053753
C54   C     C_1   0.763308 0.429518 0.905235 -0.015419
C55   C     C_1   0.237433 0.427786 0.095375 -0.011440
C56   C     C_1   0.262381 0.927292 0.904494 -0.011413
C57   C     C_1   0.738281 0.926101 0.095931 -0.018163
C58   C     C_1   0.749478 0.410360 0.035550 -0.056372
C59   C     C_1   0.251932 0.406784 0.965361 -0.052314
C60   C     C_1   0.247773 0.906365 0.034483 -0.051887
C61   C     C_3   0.323757 0.438044 0.540926 0.164114
C62   C     C_1   0.752711 0.904979 0.965884 -0.055237
C63   C     C_1   0.755555 0.419360 0.964891 -0.053489
C64   C     C_1   0.245636 0.416470 0.035919 -0.050400
C65   C     C_1   0.254072 0.915911 0.963922 -0.050214
C66   C     C_1   0.746673 0.914384 0.036528 -0.055112
C67   C     C_1   0.744312 0.395261 0.095454 -0.019163
C68   C     C_1   0.256735 0.392279 0.905367 -0.013152
C69   C     C_1   0.243066 0.892073 0.094516 -0.013853
C70   C     C_1   0.757161 0.891084 0.905759 -0.017764
C71   C     C_R   0.738160 0.358805 0.362577 0.562499
C72   C     C_3   0.176231 0.938335 0.459043 0.164062
C73   C     C_R   0.261817 0.358822 0.637438 0.560685
C74   C     C_R   0.238160 0.858804 0.362577 0.561703
C75   C     C_R   0.761817 0.858823 0.637438 0.560958
C76   C     C_R   0.722239 0.953959 0.163421 0.536548
C77   C     C_R   0.277937 0.954271 0.836756 0.544528
C78   C     C_R   0.222002 0.454477 0.163185 0.543825
C79   C     C_R   0.778146 0.454784 0.837021 0.542391
C80   C     C_R   0.560993 0.182048 0.136942 0.548494
C81   C     C_R   0.470360 0.178927 0.857965 0.534044
C82   C     C_R   0.034250 0.679087 0.140087 0.540503
C83   C     C_3   0.823757 0.938045 0.540926 0.164162
C84   C     C_R   0.965746 0.678999 0.859918 0.540317
C85   C     C_R   0.736233 0.359195 0.164025 0.539662
C86   C     C_R   0.264078 0.358112 0.836363 0.546242
C87   C     C_R   0.235881 0.858144 0.163599 0.545789
C88   C     C_R   0.764183 0.857783 0.836520 0.543957
C89   C     C_1   0.485145 0.172986 0.594279 -0.040963
C90   C     C_1   0.514865 0.173009 0.405727 -0.042414
C91   C     C_1   0.985139 0.672986 0.594276 -0.041401
C92   C     C_1   0.014858 0.673008 0.405724 -0.041178
C93   C     C_1   0.504461 0.169968 0.464912 -0.080399
C94   C     C_3   0.821689 0.485699 0.530419 -0.224559
C95   C     C_1   0.495550 0.169959 0.535095 -0.080042
C96   C     C_1   0.004452 0.669968 0.464908 -0.080162
C97   C     C_1   0.995541 0.669959 0.535092 -0.080262
C98   C     C_3   0.689191 0.471238 0.535579 -0.196306
C99   C     C_3   0.310795 0.470964 0.464371 -0.196634
C100  C     C_3   0.189191 0.971238 0.535579 -0.196382
C101  C     C_3   0.810795 0.970962 0.464370 -0.196561
C102  C     C_3   0.578450 0.549960 0.421266 -0.024789
C103  C     C_3   0.552145 0.663164 0.383452 -0.362689
C104  C     C_3   0.421527 0.549397 0.578450 -0.024551
Cr1   Cr    Cr6+3 0.765780 0.160710 0.267420 1.002310
Cr2   Cr    Cr6+3 0.383970 0.323720 0.751490 1.024265
Cr3   Cr    Cr6+3 0.116030 0.823720 0.248510 1.023687
Cr4   Cr    Cr6+3 0.883970 0.823720 0.751490 1.023399
Cr5   Cr    Cr6+3 0.234220 0.160710 0.732580 1.007118
Cr6   Cr    Cr6+3 0.265780 0.660710 0.267420 1.008775
Cr7   Cr    Cr6+3 0.734220 0.660710 0.732580 1.005369
Cr8   Cr    Cr6+3 0.612200 0.009560 0.248850 1.007114
Cr9   Cr    Cr6+3 0.387800 0.009560 0.751150 1.008068
Cr10  Cr    Cr6+3 0.112200 0.509560 0.248850 1.007120
Cr11  Cr    Cr6+3 0.887800 0.509560 0.751150 1.007081
Cr12  Cr    Cr6+3 0.616030 0.323720 0.248510 1.020858
H1    H     H_    0.682369 0.567225 0.543202 0.153530
H2    H     H_    0.131001 0.430883 0.456992 0.137209
H3    H     H_    0.368995 0.930453 0.542957 0.137136
H4    H     H_    0.631001 0.930885 0.456991 0.137133
H5    H     H_    0.849817 0.458251 0.427808 0.119214
H6    H     H_    0.150157 0.458779 0.572122 0.119165
H7    H     H_    0.349816 0.958252 0.427809 0.119686
H8    H     H_    0.650157 0.958779 0.572121 0.118978
H9    H     H_    0.530610 0.363376 0.934194 0.149505
H10   H     H_    0.632852 0.256582 0.034270 0.113969
H11   H     H_    0.053170 0.829167 0.933359 0.141015
H12   H     H_    0.317552 0.566933 0.456675 0.153518
H13   H     H_    0.122348 0.692107 0.045628 0.119035
H14   H     H_    0.597318 0.259177 0.919595 0.118360
H15   H     H_    0.567111 0.363933 0.047100 0.147553
H16   H     H_    0.096436 0.687403 0.929526 0.116799
H17   H     H_    0.077272 0.832003 0.048068 0.149165
H18   H     H_    0.410455 0.280781 0.957426 0.138783
H19   H     H_    0.612082 0.034803 0.039972 0.124901
H20   H     H_    0.922626 0.832180 0.951751 0.149645
H21   H     H_    0.058561 0.492384 0.052588 0.149480
H22   H     H_    0.445657 0.283295 0.070605 0.147450
H23   H     H_    0.182369 0.067225 0.543202 0.153525
H24   H     H_    0.576718 0.033627 0.924168 0.121570
H25   H     H_    0.946786 0.829559 0.066457 0.141356
H26   H     H_    0.031404 0.490910 0.936790 0.127520
H27   H     H_    0.494619 0.976171 0.940906 0.144343
H28   H     H_    0.432516 0.124182 0.075094 0.132122
H29   H     H_    0.941433 0.492531 0.947610 0.149694
H30   H     H_    0.903542 0.687994 0.070502 0.117924
H31   H     H_    0.529812 0.977319 0.055647 0.147586
H32   H     H_    0.397282 0.121750 0.960658 0.125178
H33   H     H_    0.968592 0.491180 0.063417 0.128067
H34   H     H_    0.817554 0.066931 0.456672 0.153608
H35   H     H_    0.877622 0.692445 0.954392 0.119938
H36   H     H_    0.648892 0.428171 0.562901 0.072554
H37   H     H_    0.351120 0.427765 0.437085 0.073291
H38   H     H_    0.148892 0.928172 0.562902 0.072713
H39   H     H_    0.851120 0.927761 0.437085 0.072919
H40   H     H_    0.639197 0.361491 0.452916 0.103884
H41   H     H_    0.360787 0.361024 0.547106 0.104425
H42   H     H_    0.139197 0.861489 0.452917 0.104167
H43   H     H_    0.860788 0.861027 0.547107 0.104287
H44   H     H_    0.339295 0.074861 0.549232 0.109210
H45   H     H_    0.821211 0.254574 0.471159 0.148134
H46   H     H_    0.660701 0.075158 0.450552 0.108731
H47   H     H_    0.839294 0.574864 0.549231 0.109061
H48   H     H_    0.160700 0.575157 0.450553 0.109002
H49   H     H_    0.285755 0.070177 0.432063 0.150942
H50   H     H_    0.714210 0.070407 0.567727 0.150611
H51   H     H_    0.785756 0.570177 0.432061 0.150794
H52   H     H_    0.214210 0.570407 0.567727 0.150666
H53   H     H_    0.806921 0.249142 0.584825 0.200194
H54   H     H_    0.193182 0.249217 0.415294 0.200438
H55   H     H_    0.306921 0.749141 0.584825 0.200188
H56   H     H_    0.178771 0.254960 0.528923 0.148110
H57   H     H_    0.693183 0.749216 0.415294 0.200421
H58   H     H_    0.714753 0.255641 0.569574 0.103718
H59   H     H_    0.285355 0.255424 0.430646 0.104305
H60   H     H_    0.214753 0.755641 0.569575 0.103844
H61   H     H_    0.785356 0.755423 0.430647 0.103989
H62   H     H_    0.734475 0.201601 0.458429 0.118681
H63   H     H_    0.265483 0.201528 0.541798 0.118794
H64   H     H_    0.234473 0.701601 0.458430 0.118546
H65   H     H_    0.765482 0.701529 0.541799 0.118810
H66   H     H_    0.565288 0.555737 0.474780 0.101975
H67   H     H_    0.321211 0.754574 0.471160 0.148132
H68   H     H_    0.551199 0.472039 0.395341 0.167128
H69   H     H_    0.568420 0.664496 0.331187 0.174094
H70   H     H_    0.495069 0.665666 0.379128 0.094532
H71   H     H_    0.572383 0.743893 0.412064 0.138264
H72   H     H_    0.434500 0.555823 0.524893 0.102144
H73   H     H_    0.448895 0.471102 0.604024 0.166740
H74   H     H_    0.431787 0.662791 0.668918 0.173002
H75   H     H_    0.504991 0.664316 0.620779 0.093692
H76   H     H_    0.427624 0.743209 0.588296 0.138488
H77   H     H_    0.065288 0.055752 0.474780 0.102046
H78   H     H_    0.678771 0.754960 0.528923 0.148098
H79   H     H_    0.051197 0.972028 0.395350 0.167070
H80   H     H_    0.068414 0.164463 0.331174 0.173523
H81   H     H_    0.995064 0.165648 0.379117 0.094166
H82   H     H_    0.072377 0.243887 0.412043 0.138410
H83   H     H_    0.934513 0.055723 0.524899 0.102094
H84   H     H_    0.948890 0.971140 0.604076 0.166830
H85   H     H_    0.931764 0.162948 0.668852 0.173280
H86   H     H_    0.004981 0.164373 0.620732 0.093881
H87   H     H_    0.927620 0.243214 0.588187 0.138385
H88   H     H_    0.868996 0.430457 0.542957 0.137112
O1    O     O_R   0.783100 0.287550 0.345460 -0.545597
O2    O     O_R   0.454350 0.284910 0.836260 -0.524709
O3    O     O_R   0.045650 0.784910 0.163740 -0.525397
O4    O     O_R   0.954350 0.784910 0.836260 -0.525509
O5    O     O_R   0.677950 0.374280 0.185410 -0.510170
O6    O     O_R   0.322050 0.374280 0.814590 -0.495718
O7    O     O_R   0.177950 0.874280 0.185410 -0.499753
O8    O     O_R   0.822050 0.874280 0.814590 -0.498974
O9    O     O_3   0.664670 0.164660 0.254930 -0.278510
O10   O     O_3   0.335330 0.164660 0.745070 -0.260934
O11   O     O_3   0.164670 0.664660 0.254930 -0.263678
O12   O     O_R   0.216900 0.287550 0.654540 -0.546882
O13   O     O_3   0.835330 0.664660 0.745070 -0.262887
O14   O     O_R   0.760020 0.037400 0.337700 -0.516250
O15   O     O_R   0.239980 0.037400 0.662300 -0.517871
O16   O     O_R   0.260020 0.537400 0.337700 -0.517455
O17   O     O_R   0.739980 0.537400 0.662300 -0.517555
O18   O     O_R   0.666600 0.921990 0.332020 -0.524692
O19   O     O_R   0.333400 0.921990 0.667980 -0.525713
O20   O     O_R   0.166600 0.421990 0.332020 -0.525116
O21   O     O_R   0.833400 0.421990 0.667980 -0.525229
O22   O     O_R   0.557260 0.082670 0.312540 -0.492830
O23   O     O_R   0.283100 0.787550 0.345460 -0.546329
O24   O     O_R   0.442740 0.082670 0.687460 -0.498697
O25   O     O_R   0.057260 0.582670 0.312540 -0.496942
O26   O     O_R   0.942740 0.582670 0.687460 -0.497086
O27   O     O_R   0.548410 0.285740 0.316480 -0.523202
O28   O     O_R   0.451590 0.285740 0.683520 -0.527862
O29   O     O_R   0.048410 0.785740 0.316480 -0.526611
O30   O     O_R   0.951590 0.785740 0.683520 -0.526414
O31   O     O_R   0.680500 0.375040 0.327000 -0.462657
O32   O     O_R   0.319500 0.375040 0.673000 -0.463072
O33   O     O_R   0.180500 0.875040 0.327000 -0.463048
O34   O     O_R   0.716900 0.787550 0.654540 -0.546708
O35   O     O_R   0.819500 0.875040 0.673000 -0.462700
O36   O     O_R   0.780350 0.286720 0.192720 -0.507205
O37   O     O_R   0.219650 0.286720 0.807280 -0.509046
O38   O     O_R   0.280350 0.786720 0.192720 -0.506823
O39   O     O_R   0.719650 0.786720 0.807280 -0.508996
O40   O     O_R   0.757470 0.036630 0.196110 -0.496157
O41   O     O_R   0.242530 0.036630 0.803890 -0.495781
O42   O     O_R   0.257470 0.536630 0.196110 -0.494735
O43   O     O_R   0.742530 0.536630 0.803890 -0.495729
O44   O     O_R   0.663840 0.921160 0.179280 -0.517088
O45   O     O_R   0.554710 0.081900 0.170950 -0.504192
O46   O     O_R   0.336160 0.921160 0.820720 -0.509650
O47   O     O_R   0.163840 0.421160 0.179280 -0.513514
O48   O     O_R   0.836160 0.421160 0.820720 -0.513045
O49   O     O_3   0.650400 0.539183 0.419819 -0.568282
O50   O     O_3   0.349607 0.538777 0.580080 -0.568126
O51   O     O_3   0.150398 0.039181 0.419818 -0.568237
O52   O     O_3   0.849605 0.038782 0.580076 -0.568154
O53   O     O_R   0.445290 0.081900 0.829050 -0.505308
O54   O     O_R   0.054710 0.581900 0.170950 -0.508457
O55   O     O_R   0.945290 0.581900 0.829050 -0.508552
O56   O     O_R   0.545650 0.284910 0.163740 -0.521574

loop_
_geom_bond_atom_site_label_1
_geom_bond_atom_site_label_2
_ccdc_geom_bond_type
C10   C27   S    
C10   H58   S    
C4    H79   S    
C61   O50   S    
C8    C25   S    
C35   C53   S    
C68   C86   S    
C30   H67   S    
C6    C7    S    
C84   O55   A    
C19   C71   S    
C103  H69   S    
C27   H62   S    
C57   C66   T    
Cr4   O4    S    
Cr5   O12   S    
C70   C88   S    
C9    C18   S    
C35   H17   S    
Cr10  O25   S    
C32   H14   S    
C42   H22   S    
C2    H2    S    
C72   H42   S    
Cr8   O45   S    
C23   H5    S    
C46   C89   S    
C76   O44   A    
C10   H53   S    
C13   H57   S    
Cr3   O33   S    
C59   C64   S    
C74   O23   A    
Cr2   O32   S    
C13   C18   S    
C98   H1    S    
C43   H29   S    
C22   C75   S    
C57   C76   S    
C102  O49   S    
C24   H52   S    
C41   H27   S    
C7    H86   S    
C61   H41   S    
Cr6   O23   S    
Cr7   O17   S    
C6    H83   S    
C37   C51   S    
C43   C52   S    
Cr9   O53   S    
Cr3   O7    S    
C54   C63   T    
C101  H39   S    
C56   C65   T    
Cr2   O6    S    
C101  H34   S    
C92   C96   T    
C104  O50   S    
C82   O54   A    
C62   C70   T    
C34   C35   S    
C79   O48   A    
C49   C81   S    
C20   C61   S    
C52   C84   S    
C84   O4    A    
C51   C80   S    
Cr9   O19   S    
Cr11  O26   S    
C7    H87   S    
C83   H43   S    
C14   C39   S    
C39   O17   A    
C75   O35   A    
C44   C53   S    
C36   H32   S    
C40   C43   S    
C81   O53   A    
C20   C24   S    
C50   H40   S    
C16   C17   S    
C41   H24   S    
C48   C91   S    
C20   C73   S    
C44   H30   S    
C37   H19   S    
C73   O12   A    
C1    O14   A    
C80   O56   A    
C71   O31   A    
Cr6   O16   S    
C35   H13   S    
Cr1   O40   S    
Cr3   O3    S    
C69   C87   S    
C42   C51   S    
C12   H60   S    
C48   O26   A    
C33   H15   S    
C8    C16   S    
C87   O7    A    
Cr3   O29   S    
Cr5   O41   S    
C93   C95   S    
C48   O30   A    
C31   H65   S    
C78   O47   A    
Cr2   O2    S    
C61   C99   S    
C103  H70   S    
C26   H8    S    
Cr9   O10   S    
C88   O39   A    
C3    C104  S    
C104  H72   S    
C41   C49   S    
C82   O3    A    
Cr4   O8    S    
C9    C26   S    
C14   C98   S    
C12   H55   S    
C20   C29   S    
C55   C64   T    
C4    H77   S    
Cr2   O10   S    
Cr4   O30   S    
C67   C85   S    
Cr7   O34   S    
C50   C98   S    
C22   C31   S    
C62   C66   S    
C21   C72   S    
C102  C103  S    
C102  H66   S    
Cr12  O9    S    
C12   C16   S    
Cr1   O9    S    
C36   H18   S    
Cr5   O10   S    
C10   C14   S    
C3    H74   S    
C2    H48   S    
C38   H20   S    
C55   C78   S    
C34   H11   S    
Cr9   O24   S    
C5    H81   S    
Cr11  O48   S    
C25   H49   S    
C21   C74   S    
C37   H31   S    
Cr9   O46   S    
C85   O5    A    
C1    O18   A    
C18   C101  S    
C79   O43   A    
C32   H9    S    
C89   C95   T    
C19   C23   S    
C2    C24   S    
C96   C97   S    
C38   C44   S    
Cr12  O5    S    
Cr5   O15   S    
C100  H23   S    
C3    H75   S    
C59   C68   T    
C25   H7    S    
Cr6   O38   S    
Cr11  O13   S    
Cr4   O35   S    
Cr5   O37   S    
C28   O20   A    
C40   H21   S    
C24   H6    S    
C1    C18   S    
C6    O52   S    
C30   H64   S    
Cr8   O9    S    
C91   C97   T    
C2    C15   S    
Cr10  O54   S    
C99   H12   S    
C5    H80   S    
C23   H51   S    
Cr4   O13   S    
Cr12  O56   S    
Cr7   O43   S    
C60   C65   S    
C40   C53   S    
C11   C15   S    
C80   O45   A    
Cr12  O27   S    
C42   H28   S    
C94   H88   S    
C72   O51   S    
C8    H44   S    
C38   H35   S    
C19   C27   S    
C90   C93   T    
C54   C79   S    
C44   H25   S    
C100  H38   S    
C58   C63   S    
Cr8   O44   S    
C21   C25   S    
C26   H50   S    
Cr7   O39   S    
C83   C101  S    
C12   C30   S    
Cr8   O18   S    
Cr10  O11   S    
C13   C31   S    
Cr11  O21   S    
C16   C100  S    
C86   O6    A    
C15   C99   S    
C4    C5    S    
C87   O38   A    
C17   O15   A    
C36   C42   S    
C72   C100  S    
C31   H78   S    
Cr1   O1    S    
C5    H82   S    
C47   O25   A    
C71   O1    A    
C33   C51   S    
C45   O27   A    
C21   C30   S    
C98   H36   S    
C34   C52   S    
C47   C92   S    
C23   C94   S    
C83   O52   S    
C85   O36   A    
C102  H68   S    
C32   C33   S    
C76   O40   A    
C74   O33   A    
Cr6   O11   S    
C7    H85   S    
C50   O49   S    
Cr11  O55   S    
C3    H76   S    
C27   H45   S    
C22   C83   S    
C6    H84   S    
C19   C50   S    
Cr6   O42   S    
C15   C28   S    
C29   H63   S    
C60   C69   T    
C86   O37   A    
C13   H61   S    
Cr10  O47   S    
C99   H37   S    
Cr12  O31   S    
C17   O19   A    
C33   H10   S    
C78   O42   A    
Cr1   O36   S    
Cr2   O28   S    
C40   H33   S    
C75   O34   A    
C77   O41   A    
C45   O22   A    
C73   O32   A    
C29   H56   S    
C37   C41   S    
C9    H46   S    
C11   H59   S    
C32   C49   S    
C39   O21   A    
C56   C77   S    
C22   C26   S    
C34   H16   S    
C58   C67   T    
C46   O28   A    
Cr3   O11   S    
C11   C29   S    
C11   H54   S    
C28   O16   A    
Cr1   O14   S    
C88   O8    A    
C9    H4    S    
C46   O24   A    
C53   C82   S    
C43   H26   S    
C77   O46   A    
Cr7   O13   S    
C4    O51   S    
Cr10  O20   S    
C38   C52   S    
C104  H73   S    
C94   H47   S    
C14   C94   S    
C103  H71   S    
C45   C90   S    
C36   C49   S    
C8    H3    S    
C81   O2    A    
C47   O29   A    
Cr8   O22   S    
