data_mof_unit_183.cif
_audit_creation_date              2013-03-05T15:58:35-0500
_audit_creation_method            fapswitch 2.2
_symmetry_space_group_name_H-M    P1
_symmetry_Int_Tables_number       1
_space_group_crystal_system       triclinic
_cell_length_a                    15.107743
_cell_length_b                    13.70521
_cell_length_c                    10.640267
_cell_angle_alpha                 90.196853
_cell_angle_beta                  91.138407
_cell_angle_gamma                 90.411299
_cell_volume                      2202.61253866

loop_
_atom_site_label
_atom_site_type_symbol
_atom_site_description
_atom_site_fract_x
_atom_site_fract_y
_atom_site_fract_z
_atom_type_partial_charge
O1    O     O_R   0.370260 0.582280 0.500030 -0.574984
O2    O     O_R   0.629740 0.417720 0.499970 -0.574977
O3    O     O_R   0.629740 0.582280 0.499970 -0.597641
O4    O     O_R   0.370260 0.417720 0.500030 -0.597626
C1    C     C_R   0.328993 0.499518 0.499711 0.839071
C2    C     C_R   0.671006 0.500482 0.500287 0.839068
O5    O     O_R   0.499980 0.582260 0.316850 -0.585139
O6    O     O_R   0.500020 0.417740 0.683150 -0.585144
O7    O     O_R   0.500020 0.582260 0.683150 -0.594685
O8    O     O_R   0.499980 0.417740 0.316850 -0.594700
C3    C     C_R   0.498562 0.499858 0.259048 0.774898
C4    C     C_R   0.501443 0.500142 0.740951 0.774808
Cu1   Cu    Cu3+1 0.500000 0.597420 0.500000 0.930631
Cu2   Cu    Cu3+1 0.500000 0.402580 0.500000 0.930638
C5    C     C_3   0.437315 0.561695 0.038595 -0.164621
C6    C     C_3   0.562699 0.438304 0.961404 -0.164575
C7    C     C_3   0.518307 0.590741 0.960320 -0.131513
C8    C     C_3   0.481707 0.409259 0.039679 -0.131599
C9    C     C_3   0.420659 0.471247 0.953798 -0.191704
C10   C     C_3   0.579356 0.528753 0.046200 -0.191593
H1    H     H_    0.356007 0.447412 0.912407 0.125419
H2    H     H_    0.644009 0.552587 0.087586 0.125379
H3    H     H_    0.386476 0.613249 0.071781 0.133010
H4    H     H_    0.613532 0.386735 0.928238 0.132974
H5    H     H_    0.533572 0.665053 0.925203 0.137579
H6    H     H_    0.466441 0.334947 0.074796 0.137589
C11   C     C_3   0.501572 0.500312 0.877783 0.034324
C12   C     C_3   0.498441 0.499688 0.122217 0.034279
C13   C     C_R   0.811434 0.460813 0.393734 0.089096
C14   C     C_R   0.188563 0.539183 0.606257 0.089114
C15   C     C_R   0.767328 0.502011 0.497047 -0.129233
C16   C     C_R   0.232671 0.497990 0.502943 -0.129315
C17   C     C_R   0.815180 0.543545 0.599388 0.149758
C18   C     C_R   0.184819 0.456465 0.400592 0.149797
C19   C     C_R   0.907956 0.543925 0.599333 0.083252
C20   C     C_R   0.092043 0.456082 0.400645 0.083326
C21   C     C_R   0.953110 0.500435 0.498966 -0.010433
C22   C     C_R   0.046889 0.499570 0.501015 -0.010442
C23   C     C_R   0.904975 0.457996 0.396574 0.106657
C24   C     C_R   0.095023 0.542005 0.603411 0.106659
C25   C     C_R   0.956467 0.587207 0.698820 -0.187947
C26   C     C_R   0.043533 0.412799 0.301161 -0.187964
C27   C     C_R   0.048137 0.586185 0.701003 -0.218423
C28   C     C_R   0.951862 0.413816 0.298981 -0.218419
H7    H     H_    0.923915 0.622538 0.776290 0.181680
H8    H     H_    0.076086 0.377466 0.223693 0.181649
H9    H     H_    0.081333 0.621087 0.780270 0.156222
H10   H     H_    0.918665 0.378911 0.219717 0.156225
C29   C     C_R   0.445727 0.793126 0.579251 0.010472
C30   C     C_R   0.554272 0.206874 0.420749 0.010476
C31   C     C_R   0.554319 0.793578 0.420836 0.009666
C32   C     C_R   0.445681 0.206422 0.579164 0.009673
N1    N     N_R   0.500000 0.743810 0.500000 -0.185734
N2    N     N_R   0.500000 0.256190 0.500000 -0.185733
C33   C     C_R   0.555585 0.896631 0.418908 -0.006096
C34   C     C_R   0.444415 0.103369 0.581092 -0.006099
C35   C     C_R   0.444445 0.896170 0.581148 -0.006431
C36   C     C_R   0.555555 0.103830 0.418852 -0.006430
C37   C     C_R   0.500007 0.948188 0.500013 0.087779
C38   C     C_R   0.499993 0.051812 0.499986 0.087779
C39   C     C_R   0.610858 0.949150 0.338155 -0.200726
C40   C     C_R   0.389142 0.050850 0.661845 -0.200724
C41   C     C_R   0.389157 0.948234 0.661874 -0.201862
C42   C     C_R   0.610843 0.051766 0.338126 -0.201862
H11   H     H_    0.403363 0.752099 0.641059 0.132932
H12   H     H_    0.596637 0.247901 0.358941 0.132930
H13   H     H_    0.596719 0.752900 0.359091 0.131569
H14   H     H_    0.403281 0.247100 0.640909 0.131573
H15   H     H_    0.654109 0.910884 0.274996 0.137429
H16   H     H_    0.345891 0.089116 0.725004 0.137432
H17   H     H_    0.345911 0.909611 0.725036 0.136205
H18   H     H_    0.654089 0.090389 0.274964 0.136204
C43   C     C_3   0.759951 0.422472 0.279226 -0.880128
H19   H     H_    0.784067 0.458761 0.193124 0.219863
H20   H     H_    0.768854 0.342383 0.270911 0.229927
H21   H     H_    0.688058 0.436760 0.280992 0.230655
C44   C     C_3   0.240045 0.577514 0.720773 -0.880102
H22   H     H_    0.311938 0.563226 0.719008 0.230657
H23   H     H_    0.231143 0.657604 0.729098 0.229917
H24   H     H_    0.215925 0.541219 0.806870 0.219871
N3    N     N_2   0.770698 0.582109 0.705502 -0.442346
H25   H     H_    0.717044 0.625725 0.685740 0.275035
C45   C     C_3   0.754449 0.511558 0.803056 -0.724915
H26   H     H_    0.706242 0.455537 0.768644 0.223727
H27   H     H_    0.727309 0.549332 0.885973 0.228622
H28   H     H_    0.817046 0.475402 0.832696 0.239150
N4    N     N_2   0.229311 0.417914 0.294477 -0.442324
H29   H     H_    0.282971 0.374313 0.314250 0.275039
C46   C     C_3   0.245565 0.488481 0.196948 -0.725135
H30   H     H_    0.293487 0.544719 0.231532 0.223823
H31   H     H_    0.182919 0.524349 0.166956 0.239182
H32   H     H_    0.273050 0.450792 0.114233 0.228637

loop_
_geom_bond_atom_site_label_1
_geom_bond_atom_site_label_2
_geom_bond_distance
_ccdc_geom_bond_type
C14   C16   1.414724 A    
N4    H29   1.029372 S    
C33   C37   1.407894 A    
C43   H20   1.110255 S    
C43   H19   1.110506 S    
C20   C26   1.402906 A    
C8    H6    1.110280 S    
O3    C2    1.286636 A    
N3    H25   1.029387 S    
C44   H22   1.105546 S    
O5    C3    1.283935 A    
C30   N2    1.368102 A    
C29   H11   1.082779 S    
O1    C1    1.290354 A    
C19   C21   1.411214 A    
C35   C37   1.408034 A    
C13   C43   1.522385 S    
C36   C38   1.408034 A    
C7    C10   1.546128 S    
C29   C35   1.412598 A    
C40   H16   1.083311 S    
C8    C9    1.546119 S    
C26   H8    1.082859 S    
O7    Cu1   1.960512 S    
C14   C44   1.522393 S    
C24   C27   1.406319 A    
C15   C17   1.411033 A    
C46   H31   1.111302 S    
C9    C11   1.530259 S    
C18   C20   1.401621 A    
C32   H14   1.082629 S    
O6    C4    1.283933 A    
C1    C16   1.456310 S    
C6    C11   1.533141 S    
C5    H3    1.109357 S    
C2    C15   1.456295 S    
C37   C38   1.420201 A    
C6    H4    1.109351 S    
Cu1   Cu2   2.670322 S    
C13   C15   1.414736 A    
C25   C27   1.384834 A    
O2    C2    1.290351 A    
C26   C28   1.384848 A    
C19   C25   1.402913 A    
N3    C45   1.444384 S    
C32   N2    1.368055 A    
C35   C41   1.406226 A    
Cu1   N1    2.006306 S    
C44   H23   1.110267 S    
C36   C42   1.406226 A    
C4    C11   1.455876 S    
C30   C36   1.412596 A    
C8    C12   1.533088 S    
O8    Cu2   1.960514 S    
C10   C12   1.530275 S    
C34   C38   1.407895 A    
C31   N1    1.368056 A    
C7    C11   1.533096 S    
C39   C42   1.406382 A    
C5    C9    1.546886 S    
C21   C22   1.416672 A    
C45   H26   1.110593 S    
C6    C10   1.546884 S    
C13   C23   1.413726 A    
C40   C41   1.406382 A    
C14   C24   1.413717 A    
C31   H13   1.082629 S    
C46   H32   1.108298 S    
C30   H12   1.082780 S    
C45   H27   1.108504 S    
C10   H2    1.109978 S    
N4    C46   1.444346 S    
C43   H21   1.105540 S    
C34   C40   1.406341 A    
O1    Cu1   1.969555 S    
C44   H24   1.110517 S    
C39   H15   1.083312 S    
C5    C7    1.544389 S    
O6    Cu2   1.959092 S    
Cu2   N2    2.006306 S    
C41   H17   1.083358 S    
O4    C1    1.286639 A    
O3    Cu1   1.972518 S    
C23   C28   1.406325 A    
C7    H5    1.110279 S    
C20   C22   1.411219 A    
C21   C23   1.418510 A    
C22   C24   1.418516 A    
C5    C12   1.533135 S    
C17   N3    1.427205 S    
C3    C12   1.455881 S    
C29   N1    1.368102 A    
C33   C39   1.406342 A    
C17   C19   1.401620 A    
C31   C33   1.412588 A    
C18   N4    1.427215 S    
C42   H18   1.083358 S    
O4    Cu2   1.972518 S    
O2    Cu2   1.969555 S    
O7    C4    1.284486 A    
O8    C3    1.284487 A    
C28   H10   1.081048 S    
O5    Cu1   1.959093 S    
C45   H28   1.111440 S    
C6    C8    1.544384 S    
C25   H7    1.082859 S    
C46   H30   1.110448 S    
C27   H9    1.081050 S    
C32   C34   1.412588 A    
C16   C18   1.411056 A    
C9    H1    1.109980 S    
