data_mof_unit_106.cif
_audit_creation_date              2012-12-11T16:08:32-0500
_audit_creation_method            fapswitch 2.2
_symmetry_space_group_name_H-M    P1
_symmetry_Int_Tables_number       1
_space_group_crystal_system       triclinic
_cell_length_a                    12.970517
_cell_length_b                    13.281922
_cell_length_c                    27.77146
_cell_angle_alpha                 94.695222
_cell_angle_beta                  89.765541
_cell_angle_gamma                 119.406745
_cell_volume                      4150.27906568

loop_
_atom_site_label
_atom_site_type_symbol
_atom_type_description
_atom_site_fract_x
_atom_site_fract_y
_atom_site_fract_z
_atom_type_partial_charge
C1    C     C_R   0.624904 0.902603 0.425012 0.565363
C2    C     C_R   0.586142 0.340596 0.229216 -0.140343
C3    C     C_R   0.577729 0.327807 0.278739 -0.101349
C4    C     C_R   0.667655 0.323151 0.304457 -0.011101
C5    C     C_R   0.684123 0.348007 0.204814 0.035983
C6    C     C_1   0.693776 0.369252 0.154434 0.027179
C7    C     C_1   0.653275 0.300293 0.354560 0.003637
C8    C     C_1   0.702787 0.395526 0.113448 0.045645
C9    C     C_R   0.219506 0.765174 0.345797 -0.109828
C10   C     C_R   0.209520 0.761388 0.296083 -0.039639
C11   C     C_R   0.193357 0.754925 0.195223 0.026095
C12   C     C_R   0.601502 0.222623 0.440672 0.558801
C13   C     C_R   0.217844 0.675589 0.216924 0.289656
C14   C     C_R   0.223836 0.678700 0.266982 -0.096112
C15   C     C_R   0.176385 0.749231 0.145084 0.415068
C16   C     C_R   0.130659 0.814400 0.125769 -0.005177
C17   C     C_R   0.198574 0.937628 0.355546 -0.125700
C18   C     C_R   0.180130 0.930032 0.305352 0.021864
C19   C     C_R   0.189511 0.843547 0.275455 0.055120
C20   C     C_R   0.156206 0.009141 0.284357 -0.104031
C21   C     C_R   0.139505 0.001253 0.234274 -0.094911
C22   C     C_R   0.150129 0.916391 0.204501 -0.008389
C23   C     C_R   0.271324 0.876933 0.425028 0.544597
C24   C     C_R   0.178563 0.838806 0.224996 -0.032690
C25   C     C_R   0.125145 0.902842 0.154915 -0.187268
C26   C     C_R   0.221359 0.856721 0.375702 0.000857
C27   C     C_R   0.724267 0.977339 0.348278 0.251234
C28   C     C_R   0.738870 0.958797 0.299052 0.033283
C29   C     C_R   0.729353 0.932159 0.197865 -0.016770
C30   C     C_R   0.812422 0.036800 0.222570 -0.064021
C31   C     C_R   0.823250 0.048276 0.272452 0.249144
C32   C     C_R   0.725369 0.918481 0.147493 0.225009
C33   C     C_R   0.670835 0.805689 0.124363 0.023468
C34   C     C_R   0.626988 0.898226 0.564839 0.544857
C35   C     C_R   0.581671 0.770940 0.350565 -0.151838
C36   C     C_R   0.584989 0.753632 0.300391 0.015156
C37   C     C_R   0.661067 0.849192 0.274570 -0.045562
C38   C     C_R   0.512697 0.643830 0.275109 0.236154
C39   C     C_R   0.515214 0.630456 0.224886 -0.049548
C40   C     C_R   0.586442 0.725647 0.199210 -0.019748
C41   C     C_R   0.658618 0.835669 0.223915 -0.002260
C42   C     C_R   0.594134 0.710857 0.149440 -0.134424
C43   C     C_R   0.647121 0.881923 0.374385 -0.021077
C44   C     C_R   0.737722 0.305987 0.652584 -0.134838
C45   C     C_R   0.600625 0.223737 0.579240 0.542228
C46   C     C_R   0.751560 0.325722 0.703081 0.016415
C47   C     C_R   0.775109 0.360135 0.804491 -0.010750
C48   C     C_R   0.873629 0.381624 0.776906 -0.116792
C49   C     C_R   0.861666 0.363435 0.726492 -0.126262
C50   C     C_R   0.787550 0.385540 0.854536 -0.192465
C51   C     C_R   0.689773 0.371203 0.881363 0.010991
C52   C     C_R   0.530892 0.255537 0.658029 -0.120323
C53   C     C_R   0.541777 0.269301 0.707957 0.006152
C54   C     C_R   0.652317 0.304574 0.730797 0.068552
C55   C     C_R   0.442472 0.244724 0.735251 -0.162052
C56   C     C_R   0.271665 0.879201 0.563442 0.548907
C57   C     C_R   0.452658 0.256166 0.785403 -0.106411
C58   C     C_R   0.563061 0.295371 0.808791 0.023965
C59   C     C_R   0.663371 0.319101 0.781396 0.008108
C60   C     C_R   0.576236 0.317945 0.858901 0.367483
C61   C     C_R   0.626829 0.269234 0.630077 0.000701
C62   C     C_1   0.222698 0.862416 0.610340 0.000845
C63   C     C_R   0.068477 0.758907 0.718975 -0.104679
C64   C     C_R   0.053126 0.749195 0.768567 -0.115759
C65   C     C_R   0.248058 0.916838 0.785814 -0.086901
C66   C     C_R   0.263628 0.926145 0.736207 -0.081403
C67   C     C_1   0.634409 0.271782 0.395217 0.055337
C68   C     C_R   0.173979 0.847246 0.702707 0.045331
C69   C     C_R   0.142992 0.827852 0.802063 0.034893
C70   C     C_1   0.125652 0.815550 0.852876 -0.044914
C71   C     C_1   0.195011 0.853601 0.651882 -0.041191
C72   C     C_1   0.101591 0.798174 0.894412 0.004459
C73   C     C_1   0.645732 0.859621 0.609135 0.014942
C74   C     C_R   0.777586 0.825895 0.715420 -0.170445
C75   C     C_R   0.790770 0.811836 0.764016 -0.129620
C76   C     C_R   0.585669 0.758961 0.775920 -0.059625
C77   C     C_R   0.572341 0.773159 0.727374 0.400279
C78   C     C_R   0.765933 0.330627 0.280296 -0.053221
C79   C     C_R   0.668611 0.807510 0.697021 0.044607
C80   C     C_R   0.695158 0.779387 0.794491 -0.019994
C81   C     C_1   0.710523 0.770136 0.845013 -0.040888
C82   C     C_1   0.657736 0.833138 0.648429 0.009134
C83   C     C_1   0.725849 0.763355 0.887196 0.006011
C84   C     C_R   0.065901 0.773320 0.078805 0.572791
C85   C     C_R   0.716712 0.441406 0.067380 0.551085
C86   C     C_R   0.717423 0.783409 0.079499 0.583915
C87   C     C_R   0.056876 0.766529 0.941274 0.539406
C88   C     C_R   0.710376 0.433042 0.929458 0.565511
C89   C     C_R   0.774932 0.343671 0.230598 0.253681
C90   C     C_R   0.748759 0.755159 0.936880 0.548111
Cr1   Cr    Cr6+3 0.416430 0.829200 0.492370 1.062988
Cr2   Cr    Cr6+3 0.674630 0.087020 0.504170 1.089157
Cr3   Cr    Cr6+3 0.408920 0.083740 0.503490 1.040661
Cr4   Cr    Cr6+3 0.914010 0.832750 0.013970 1.085147
Cr5   Cr    Cr6+3 0.922310 0.578600 0.003000 1.103693
Cr6   Cr    Cr6+3 0.656280 0.574630 0.003870 1.093886
H1    H     H_    0.835048 0.325642 0.299939 0.211725
H2    H     H_    0.117506 0.061021 0.218828 0.159857
H3    H     H_    0.148793 0.075944 0.306680 0.174280
H4    H     H_    0.199736 0.008306 0.378476 0.138560
H5    H     H_    0.876522 0.107520 0.203314 0.236942
H6    H     H_    0.548464 0.623993 0.131102 0.156028
H7    H     H_    0.461317 0.545307 0.205873 0.176824
H8    H     H_    0.523293 0.700055 0.371169 0.191580
H9    H     H_    0.875107 0.425051 0.871913 0.151258
H10   H     H_    0.811514 0.315895 0.631054 0.125742
H11   H     H_    0.960063 0.413523 0.794299 0.128552
H12   H     H_    0.938626 0.380071 0.705831 0.123635
H13   H     H_    0.374671 0.237252 0.805716 0.184177
H14   H     H_    0.356697 0.215849 0.717789 0.118077
H15   H     H_    0.444219 0.225787 0.641197 0.143604
H16   H     H_    0.999077 0.696812 0.693438 0.115504
H17   H     H_    0.516397 0.345421 0.209969 0.142035
H18   H     H_    0.971444 0.679960 0.780806 0.113930
H19   H     H_    0.318072 0.978040 0.811339 0.135864
H20   H     H_    0.346253 0.993720 0.723908 0.129423
H21   H     H_    0.852923 0.853507 0.692545 0.123143
H22   H     H_    0.875984 0.828316 0.778040 0.132974
H23   H     H_    0.511262 0.734008 0.799172 0.146444
H24   H     H_    0.500553 0.320506 0.296894 0.176659
H25   H     H_    0.236163 0.701326 0.360747 0.163099
H26   H     H_    0.240713 0.616440 0.283271 0.195080
H27   H     H_    0.093053 0.955502 0.139724 0.161851
O1    O     O_R   0.296680 0.802170 0.437540 -0.515540
O2    O     O_R   0.662610 0.183990 0.557860 -0.501379
O3    O     O_R   0.500730 0.201280 0.562180 -0.520043
O4    O     O_R   0.312500 0.978850 0.548170 -0.501565
O5    O     O_3   0.499990 0.999990 0.500010 -0.264528
O6    O     O_R   0.820790 0.857990 0.068830 -0.450561
O7    O     O_R   0.016700 0.827330 0.062850 -0.518165
O8    O     O_R   0.041970 0.673520 0.060040 -0.414824
O9    O     O_R   0.817980 0.483660 0.048840 -0.466788
O10   O     O_R   0.637200 0.461990 0.052510 -0.509582
O11   O     O_R   0.664790 0.681920 0.057970 -0.509148
O12   O     O_R   0.525380 0.838530 0.443500 -0.509903
O13   O     O_R   0.815840 0.852920 0.961840 -0.477056
O14   O     O_R   0.012100 0.822630 0.963670 -0.509896
O15   O     O_R   0.037010 0.668460 0.953040 -0.501073
O16   O     O_R   0.813390 0.478970 0.949660 -0.525007
O17   O     O_R   0.632250 0.456930 0.945520 -0.436759
O18   O     O_R   0.660200 0.677230 0.958780 -0.477148
O19   O     O_3   0.830870 0.661990 0.006950 -0.309323
O20   O     O_R   0.702130 0.995190 0.446810 -0.444826
O21   O     O_R   0.661770 0.181390 0.458760 -0.449508
O22   O     O_R   0.499820 0.198480 0.455280 -0.511759
O23   O     O_R   0.311660 0.976250 0.449080 -0.497959
O24   O     O_R   0.297580 0.804960 0.544440 -0.490181
O25   O     O_R   0.526220 0.841130 0.542590 -0.483849
O26   O     O_R   0.703030 0.997990 0.553710 -0.511421
Cl1   Cl    Cl    0.792163 0.041158 0.113451 -0.513119
Cl2   Cl    Cl    0.776901 0.123216 0.372532 -0.526376
Cl3   Cl    Cl    0.956515 0.167546 0.297706 -0.506797
Cl4   Cl    Cl    0.418049 0.520002 0.304557 -0.616794
Cl5   Cl    Cl    0.901138 0.355540 0.201839 -0.469866
F1    F     F_    0.480098 0.296709 0.885274 -0.616878
F2    F     F_    0.466528 0.756342 0.710348 -0.628234
F3    F     F_    0.196027 0.675276 0.114838 -0.540337
Cl6   Cl    Cl    0.235043 0.565332 0.184361 -0.417882

loop_
_geom_bond_atom_site_label_1
_geom_bond_atom_site_label_2
_ccdc_geom_bond_type
C66   C68   A    
C14   H26   S    
C13   Cl6   S    
C35   C36   A    
Cr2   O2    S    
Cr1   O24   S    
C89   Cl5   S    
C53   C54   A    
C46   C49   A    
Cr4   O7    S    
C66   H20   S    
C5    C6    S    
C33   C42   A    
C36   C37   A    
C15   F3    S    
C29   C32   A    
C52   C61   A    
C77   F2    S    
C38   C39   A    
C2    H17   S    
C56   O4    A    
C48   H11   S    
C58   C60   A    
C15   C16   A    
C42   H6    S    
C11   C24   A    
C16   C84   S    
C7    C67   T    
C8    C85   S    
C23   C26   S    
C45   C61   S    
C63   H16   S    
C74   H21   S    
Cr2   O20   S    
Cr3   O3    S    
C88   O17   A    
Cr6   O18   S    
C11   C15   A    
C86   O11   A    
C57   H13   S    
C45   O2    A    
C22   C25   A    
C50   H9    S    
C9    H25   S    
Cr3   O22   S    
C47   C50   A    
C35   C43   A    
C75   C80   A    
C10   C19   A    
C18   C20   A    
C40   C42   A    
C21   C22   A    
Cr5   O8    S    
C65   H19   S    
C75   H22   S    
C34   O25   A    
C87   O14   A    
C4    C7    S    
Cr2   O5    S    
Cr1   O25   S    
C81   C83   T    
C34   O26   A    
C44   C46   A    
C9    C26   A    
C50   C51   A    
C49   H12   S    
C54   C59   A    
C53   C55   A    
C78   C89   A    
C12   C67   S    
C76   H23   S    
C64   H18   S    
Cr1   O5    S    
Cr4   O6    S    
C76   C77   A    
C35   H8    S    
C10   C14   A    
C39   C40   A    
C18   C19   A    
Cr6   O11   S    
C52   H15   S    
C58   C59   A    
C47   C59   A    
C12   O21   A    
Cr4   O19   S    
C12   O22   A    
C51   C88   S    
C33   C86   S    
Cr3   O4    S    
C88   O16   A    
C4    C78   A    
C29   C30   A    
C1    O20   A    
C90   O13   A    
Cr4   O13   S    
C47   C48   A    
C45   O3    A    
C46   C54   A    
C78   H1    S    
C17   C18   A    
C77   C79   A    
Cr1   O12   S    
Cr3   O23   S    
C64   C69   A    
C25   H27   S    
Cr6   O10   S    
C1    C43   S    
C48   C49   A    
C74   C79   A    
C55   C57   A    
C55   H14   S    
C23   O23   A    
C22   C24   A    
C2    C5    A    
C17   C26   A    
C87   O15   A    
C3    C4    A    
C73   C82   T    
Cr2   O26   S    
C72   C87   S    
C52   C53   A    
C9    C10   A    
C16   C25   A    
C83   C90   S    
C63   C68   A    
C40   C41   A    
Cr5   O15   S    
C27   Cl2   S    
C29   C41   A    
C28   C31   A    
C76   C80   A    
C80   C81   S    
Cr5   O9    S    
Cr6   O17   S    
C79   C82   S    
C6    C8    T    
C86   O6    A    
C39   H7    S    
C23   O1    A    
C44   H10   S    
C44   C61   A    
C84   O8    A    
Cr5   O16   S    
Cr1   O1    S    
C32   C33   A    
C56   O24   A    
C36   C38   A    
C19   C24   A    
C60   F1    S    
C85   O9    A    
C1    O12   A    
C31   Cl3   S    
C21   H2    S    
C11   C13   A    
C57   C58   A    
C30   C31   A    
C20   H3    S    
C28   C37   A    
C68   C71   S    
C65   C69   A    
C30   H5    S    
C84   O7    A    
C62   C71   T    
C2    C3    A    
C56   C62   S    
C37   C41   A    
C69   C70   S    
Cr2   O21   S    
C17   H4    S    
Cr3   O5    S    
C90   O18   A    
C3    H24   S    
C34   C73   S    
Cr6   O19   S    
C63   C64   A    
C27   C43   A    
C32   Cl1   S    
C20   C21   A    
Cr5   O19   S    
C65   C66   A    
C27   C28   A    
Cr4   O14   S    
C70   C72   T    
C51   C60   A    
C38   Cl4   S    
C13   C14   A    
C5    C89   A    
C74   C75   A    
C85   O10   A    
