data_mof_unit_371.cif
_audit_creation_date              2012-12-10T17:59:16-0500
_audit_creation_method            fapswitch 2.2
_symmetry_space_group_name_H-M    P1
_symmetry_Int_Tables_number       1
_space_group_crystal_system       triclinic
_cell_length_a                    10.8219
_cell_length_b                    9.528376
_cell_length_c                    10.752855
_cell_angle_alpha                 89.821509
_cell_angle_beta                  89.969806
_cell_angle_gamma                 90.05531
_cell_volume                      1108.77601261

loop_
_atom_site_label
_atom_site_type_symbol
_atom_type_description
_atom_site_fract_x
_atom_site_fract_y
_atom_site_fract_z
_atom_type_partial_charge
C1    C     C_R   0.262136 0.499970 0.499135 0.770113
C2    C     C_3   0.607882 0.581052 0.930273 -0.406986
C3    C     C_R   0.063845 0.372631 0.492642 -0.196587
C4    C     C_R   0.064079 0.627522 0.500996 -0.200147
C5    C     C_R   0.936056 0.372671 0.492884 -0.198018
C6    C     C_R   0.936299 0.627584 0.501027 -0.194430
C7    C     C_R   0.871793 0.500123 0.497675 -0.019711
C8    C     C_R   0.128313 0.500023 0.497446 -0.011259
C9    C     C_R   0.408311 0.074480 0.442019 -0.028774
C10   C     C_R   0.408640 0.925786 0.441317 -0.028601
C11   C     C_R   0.590883 0.925533 0.559645 -0.032445
C12   C     C_R   0.590982 0.074241 0.559487 -0.035946
C13   C     C_R   0.494616 0.499669 0.259899 0.744919
C14   C     C_R   0.737899 0.500053 0.499255 0.788174
C15   C     C_R   0.499706 0.499466 0.740116 0.776869
C16   C     C_3   0.379877 0.586889 0.067229 -0.053594
C17   C     C_3   0.488366 0.341943 0.070020 -0.033347
C18   C     C_3   0.373569 0.562311 0.924816 -0.389828
C19   C     C_3   0.505594 0.344632 0.927525 -0.393522
C20   C     C_3   0.611407 0.567078 0.073209 -0.458404
C21   C     C_3   0.489863 0.497550 0.121633 0.084634
C22   C     C_3   0.496775 0.497456 0.877769 0.112100
Cu1   Cu    Cu3+1 0.500020 0.640660 0.500000 0.925409
Cu2   Cu    Cu3+1 0.500020 0.359340 0.500000 0.923030
H1    H     H_    0.405480 0.699165 0.079728 0.160771
H2    H     H_    0.570700 0.287594 0.109730 0.151837
H3    H     H_    0.663477 0.869648 0.607918 0.113709
H4    H     H_    0.663668 0.129938 0.607620 0.114750
H5    H     H_    0.296373 0.490004 0.901182 0.157138
H6    H     H_    0.435742 0.277120 0.880743 0.178915
H7    H     H_    0.354959 0.664148 0.877400 0.156321
H8    H     H_    0.597566 0.299784 0.903494 0.148583
H9    H     H_    0.624639 0.673131 0.114339 0.180925
H10   H     H_    0.692754 0.502867 0.101202 0.166056
H11   H     H_    0.599327 0.693773 0.904159 0.178059
H12   H     H_    0.696123 0.541569 0.890320 0.157147
H13   H     H_    0.111846 0.273003 0.489117 0.141514
H14   H     H_    0.112252 0.727160 0.504080 0.143259
H15   H     H_    0.887887 0.273039 0.489617 0.144335
H16   H     H_    0.888345 0.727245 0.504225 0.144206
H17   H     H_    0.334633 0.130616 0.396067 0.120434
H18   H     H_    0.335522 0.870103 0.393850 0.120093
N1    N     N_R   0.500030 0.852070 0.500030 -0.154753
N2    N     N_R   0.500030 0.147930 0.500030 -0.155525
O1    O     O_R   0.319660 0.618740 0.499990 -0.594963
O2    O     O_R   0.319660 0.381260 0.499990 -0.593859
O3    O     O_R   0.499990 0.618790 0.317690 -0.584250
O4    O     O_R   0.499990 0.381210 0.317690 -0.587603
O5    O     O_R   0.680370 0.618830 0.500010 -0.588645
O6    O     O_R   0.680370 0.381170 0.500010 -0.590161
O7    O     O_R   0.500030 0.618780 0.682310 -0.583206
O8    O     O_R   0.500030 0.381220 0.682310 -0.587143
C23   C     C_3   0.253190 0.571703 0.134710 -0.433131
C24   C     C_3   0.147738 0.651575 0.069717 -0.359891
C25   C     C_3   0.036808 0.669486 0.156049 -0.836213
H19   H     H_    0.004140 0.565709 0.190238 0.260606
H20   H     H_    0.062264 0.736110 0.236674 0.254771
H21   H     H_    0.960214 0.721266 0.104859 0.234565
H22   H     H_    0.179316 0.756435 0.038232 0.221146
H23   H     H_    0.117181 0.592486 0.986283 0.215785
H24   H     H_    0.223635 0.461588 0.143511 0.192536
H25   H     H_    0.263660 0.613303 0.230589 0.206609
C26   C     C_3   0.372589 0.253210 0.105369 -0.387357
C27   C     C_3   0.400247 0.095412 0.104885 -0.365435
C28   C     C_3   0.283506 0.010694 0.131678 -0.890271
H26   H     H_    0.232982 0.053036 0.213150 0.243699
H27   H     H_    0.221292 0.013065 0.049599 0.253071
H28   H     H_    0.309304 0.900863 0.152934 0.241295
H29   H     H_    0.438134 0.063050 0.013280 0.215137
H30   H     H_    0.470377 0.071362 0.177350 0.223856
H31   H     H_    0.338598 0.279698 0.199500 0.206371
H32   H     H_    0.295766 0.274616 0.039382 0.201258

loop_
_geom_bond_atom_site_label_1
_geom_bond_atom_site_label_2
_ccdc_geom_bond_type
C2    H11   S    
C2    C22   S    
C13   O4    A    
C11   C12   A    
Cu2   O8    S    
C16   C21   S    
Cu1   O1    S    
C15   O7    A    
C10   H18   S    
C1    C8    S    
C5    C7    A    
C9    C10   A    
C24   C25   S    
C9    H17   S    
C4    C8    A    
Cu1   Cu2   S    
C28   H28   S    
C20   H10   S    
C27   C28   S    
C25   H19   S    
C5    H15   S    
C27   H29   S    
C13   C21   S    
C12   N2    A    
C18   H5    S    
C14   O6    A    
C15   O8    A    
C17   C26   S    
C11   N1    A    
C1    O1    A    
C6    C7    A    
C23   H24   S    
C12   H4    S    
C17   H2    S    
C16   C18   S    
C26   H32   S    
C17   C19   S    
C4    H14   S    
C11   H3    S    
C3    C8    A    
C27   H30   S    
C24   H22   S    
C25   H20   S    
Cu2   O6    S    
Cu2   N2    S    
C6    H16   S    
C1    O2    A    
Cu1   O5    S    
C14   O5    A    
Cu1   O3    S    
C20   H9    S    
C2    C20   S    
C26   C27   S    
Cu2   O4    S    
C19   C22   S    
Cu1   N1    S    
C20   C21   S    
C3    H13   S    
C4    C6    A    
C28   H26   S    
C23   H25   S    
C25   H21   S    
C2    H12   S    
C16   H1    S    
C13   O3    A    
C16   C23   S    
C9    N2    A    
C24   H23   S    
C18   H7    S    
C28   H27   S    
C10   N1    A    
C18   C22   S    
C19   H6    S    
Cu1   O7    S    
C19   H8    S    
C15   C22   S    
C7    C14   S    
C23   C24   S    
C26   H31   S    
Cu2   O2    S    
C3    C5    A    
C17   C21   S    
