data_mof_unit_3198.cif
_audit_creation_date              2012-12-10T16:57:10-0500
_audit_creation_method            fapswitch 2.2
_symmetry_space_group_name_H-M    P1
_symmetry_Int_Tables_number       1
_space_group_crystal_system       triclinic
_cell_length_a                    7.747034
_cell_length_b                    8.628343
_cell_length_c                    16.648102
_cell_angle_alpha                 92.096774
_cell_angle_beta                  81.020429
_cell_angle_gamma                 93.497053
_cell_volume                      1096.72779422

loop_
_atom_site_label
_atom_site_type_symbol
_atom_type_description
_atom_site_fract_x
_atom_site_fract_y
_atom_site_fract_z
_atom_type_partial_charge
C1    C     C_R   0.545416 0.794142 0.498079 0.854061
C2    C     C_R   0.388804 0.541390 0.223562 -0.326333
C3    C     C_R   0.645237 0.713651 0.831979 0.119787
C4    C     C_R   0.402508 0.572634 0.141355 0.149521
C5    C     C_R   0.494678 0.705302 0.891232 0.113458
C6    C     C_R   0.567817 0.574039 0.092367 0.174956
C7    C     C_R   0.336129 0.639458 0.872034 -0.226013
C8    C     C_R   0.713934 0.531592 0.123885 -0.290729
C9    C     C_R   0.328718 0.570495 0.795441 0.089673
C10   C     C_R   0.700377 0.497512 0.205738 0.113859
C11   C     C_2   0.511039 0.718909 0.976758 -0.216400
C12   C     C_R   0.454796 0.205663 0.501225 0.880494
C13   C     C_2   0.589452 0.604415 0.006048 -0.205744
C14   C     C_3   0.728335 0.992042 0.612152 0.107292
C15   C     C_3   0.710211 0.144928 0.661343 -0.285779
C16   C     C_3   0.730918 0.125122 0.749850 -0.989884
C17   C     C_3   0.306124 0.960130 0.381093 0.119787
C18   C     C_3   0.223424 0.089408 0.342178 -0.339977
C19   C     C_3   0.236094 0.062582 0.250384 -0.978798
C20   C     C_2   0.566575 0.956564 0.506582 0.150389
C21   C     C_2   0.434923 0.043482 0.491956 0.168853
C22   C     C_R   0.479944 0.512041 0.654287 0.861353
C23   C     C_R   0.522362 0.496970 0.345141 0.854938
C24   C     C_R   0.481873 0.570684 0.737447 -0.072263
C25   C     C_R   0.537440 0.508335 0.256872 -0.057072
C26   C     C_R   0.637556 0.646482 0.755671 -0.262690
H1    H     H_    0.754625 0.653908 0.710533 0.167254
H2    H     H_    0.903937 0.359316 0.201533 0.171504
H3    H     H_    0.128503 0.409762 0.821346 0.175998
H4    H     H_    0.073142 0.577133 0.784942 0.197495
H5    H     H_    0.166206 0.496083 0.114570 0.173645
H6    H     H_    0.183790 0.688252 0.139576 0.168495
H7    H     H_    0.855046 0.720756 0.891830 0.179550
H8    H     H_    0.784915 0.896213 0.874267 0.194288
H9    H     H_    0.857915 0.946728 0.616057 0.178955
H10   H     H_    0.627088 0.904165 0.640281 0.096523
H11   H     H_    0.811402 0.232519 0.633864 0.256292
H12   H     H_    0.261773 0.545137 0.261321 0.167233
H13   H     H_    0.578704 0.187976 0.659601 0.204138
H14   H     H_    0.627016 0.042060 0.779232 0.272315
H15   H     H_    0.718824 0.238901 0.783075 0.268621
H16   H     H_    0.861623 0.082197 0.753612 0.274113
H17   H     H_    0.238745 0.847211 0.367092 0.182033
H18   H     H_    0.446142 0.952470 0.352814 0.089911
H19   H     H_    0.083423 0.094306 0.369588 0.248554
H20   H     H_    0.291650 0.202766 0.353986 0.217133
H21   H     H_    0.375323 0.059861 0.221618 0.268975
H22   H     H_    0.175840 0.158668 0.224132 0.267055
H23   H     H_    0.664537 0.523595 0.964809 0.148267
H24   H     H_    0.165685 0.951130 0.236566 0.261394
H25   H     H_    0.432577 0.799240 0.016462 0.173082
H26   H     H_    0.221517 0.630423 0.918603 0.148294
H27   H     H_    0.839513 0.526142 0.084884 0.137798
H28   H     H_    0.023129 0.380550 0.439445 0.196470
H29   H     H_    0.976874 0.619547 0.560514 0.190913
H30   H     H_    0.945397 0.547295 0.229710 0.172214
N1    N     N_2   0.953500 0.457650 0.478520 -0.164368
N2    N     N_2   0.046500 0.542350 0.521480 -0.163812
N3    N     N_3   0.852661 0.453789 0.236483 -0.434110
N4    N     N_3   0.168257 0.494827 0.778116 -0.440271
N5    N     N_3   0.248087 0.596957 0.107131 -0.481751
N6    N     N_3   0.808113 0.785432 0.848870 -0.482519
O1    O     O_R   0.388470 0.738640 0.505270 -0.590137
O2    O     O_3   0.281077 0.981808 0.466928 -0.622389
O3    O     O_R   0.611530 0.261360 0.494730 -0.585372
O4    O     O_R   0.679650 0.711510 0.491500 -0.607091
O5    O     O_R   0.320350 0.288490 0.508500 -0.604331
O6    O     O_R   0.337210 0.515200 0.623500 -0.586056
O7    O     O_R   0.662790 0.484800 0.376500 -0.584356
O8    O     O_R   0.628380 0.488060 0.609730 -0.652327
O9    O     O_R   0.371620 0.511940 0.390270 -0.648838
O10   O     O_3   0.722343 0.019731 0.529174 -0.621834
Zn1   Zn    Zn3+2 0.305580 0.518120 0.509190 0.958178
Zn2   Zn    Zn3+2 0.694420 0.481880 0.490810 0.956132

loop_
_geom_bond_atom_site_label_1
_geom_bond_atom_site_label_2
_ccdc_geom_bond_type
N1    Zn2   S    
O8    Zn2   S    
C2    C4    A    
C17   H17   S    
C9    C24   A    
O5    Zn1   S    
C23   O9    A    
C5    C7    A    
C12   O3    A    
H5    N5    S    
H3    N4    S    
C10   N3    S    
C9    N4    S    
C22   O6    A    
C23   O7    A    
C1    O1    A    
C1    O4    A    
N1    N2    D    
C8    H27   S    
O7    Zn2   S    
C4    N5    S    
C6    C13   S    
C14   H10   S    
C11   C13   D    
C19   H24   S    
C15   H13   S    
C26   H1    S    
C16   H14   S    
C13   H23   S    
C18   H20   S    
C10   C25   A    
C8    C10   A    
H2    N3    S    
C24   C26   A    
C7    H26   S    
C5    C11   S    
C2    C25   A    
C19   H21   S    
C23   C25   S    
C17   O2    S    
C17   C18   S    
C12   O5    A    
C22   C24   S    
C17   H18   S    
C11   H25   S    
C15   C16   S    
C12   C21   S    
C18   H19   S    
C16   H16   S    
H8    N6    S    
H6    N5    S    
C20   C21   D    
C3    N6    S    
C4    C6    A    
C18   C19   S    
H29   N2    S    
O9    Zn1   S    
C14   H9    S    
C7    C9    A    
H30   N3    S    
C2    H12   S    
C14   C15   S    
C20   O10   S    
C21   O2    S    
C6    C8    A    
O1    Zn1   S    
C3    C5    A    
O6    Zn1   S    
C19   H22   S    
C14   O10   S    
C16   H15   S    
C22   O8    A    
C3    C26   A    
C15   H11   S    
O3    Zn2   S    
N2    Zn1   S    
H4    N4    S    
H7    N6    S    
C1    C20   S    
H28   N1    S    
O4    Zn2   S    
