data_mof_unit_4548.cif
_audit_creation_date              2012-12-11T16:53:26-0500
_audit_creation_method            fapswitch 2.2
_symmetry_space_group_name_H-M    P1
_symmetry_Int_Tables_number       1
_space_group_crystal_system       triclinic
_cell_length_a                    14.856276
_cell_length_b                    14.736315
_cell_length_c                    17.00506
_cell_angle_alpha                 108.699069
_cell_angle_beta                  106.133136
_cell_angle_gamma                 107.941154
_cell_volume                      3047.82526342

loop_
_atom_site_label
_atom_site_type_symbol
_atom_type_description
_atom_site_fract_x
_atom_site_fract_y
_atom_site_fract_z
_atom_type_partial_charge
C1    C     C_R   0.094949 0.277056 0.032355 -0.129846
C2    C     C_R   0.065508 0.483733 0.254152 -0.115649
C3    C     C_R   0.279527 0.783382 0.173721 -0.125946
C4    C     C_R   0.938672 0.458221 0.735076 -0.119424
C5    C     C_R   0.743247 0.469707 0.053256 -0.065621
C6    C     C_R   0.336260 0.778476 0.250356 0.062691
C7    C     C_R   0.715434 0.546725 0.038813 0.043658
C8    C     C_R   0.975150 0.422692 0.256541 0.056410
C9    C     C_R   0.997765 0.822898 0.981988 0.115033
C10   C     C_R   0.527524 0.661634 0.051126 0.098308
C11   C     C_R   0.473981 0.602345 0.087256 0.050276
C12   C     C_R   0.032026 0.472954 0.726574 0.059221
C13   C     C_R   0.528602 0.566302 0.142285 -0.197025
C14   C     C_R   0.620472 0.563126 0.138375 -0.162672
C15   C     C_R   0.656343 0.594895 0.078682 0.002669
C16   C     C_R   0.736018 0.204716 0.815678 0.384258
C17   C     C_R   0.617896 0.658216 0.046828 0.116615
C18   C     C_3   0.590709 0.663122 0.956883 0.317806
C19   C     C_3   0.492018 0.666584 0.961835 -0.603637
C20   C     C_R   0.969480 0.382815 0.324672 0.129098
C21   C     C_R   0.043100 0.430699 0.640946 0.126496
C22   C     C_R   0.148176 0.450910 0.556061 -0.213613
C23   C     C_R   0.699207 0.198462 0.728727 -0.001234
C24   C     C_R   0.141238 0.467060 0.638823 -0.165255
C25   C     C_R   0.953578 0.364078 0.558789 -0.271919
C26   C     C_R   0.959186 0.354121 0.476501 0.184717
C27   C     C_R   0.056979 0.402023 0.475908 0.182973
C28   C     C_R   0.301213 0.595919 0.004164 -0.153979
C29   C     C_R   0.061465 0.411989 0.398530 -0.269269
C30   C     C_R   0.872711 0.325319 0.322069 -0.156642
C31   C     C_R   0.867783 0.309098 0.397227 -0.213567
C32   C     C_R   0.651413 0.102918 0.641759 0.143710
C33   C     C_R   0.442752 0.853074 0.316375 0.121760
C34   C     C_R   0.361231 0.563180 0.055382 0.085717
C35   C     C_R   0.565221 0.038428 0.397483 -0.216394
C36   C     C_R   0.489548 0.951742 0.316522 -0.156522
C37   C     C_R   0.487349 0.836397 0.391393 -0.266077
C38   C     C_R   0.556407 0.923830 0.474149 0.189281
C39   C     C_R   0.590508 0.026162 0.477746 0.183630
C40   C     C_R   0.743503 0.301012 0.738429 -0.209261
C41   C     C_R   0.639090 0.114688 0.561323 -0.274459
C42   C     C_R   0.627584 0.001286 0.638266 -0.136002
C43   C     C_R   0.580472 0.911891 0.554577 -0.237123
C44   C     C_R   0.118033 0.075066 0.942657 0.142158
C45   C     C_R   0.273650 0.687579 0.251304 -0.116934
C46   C     C_R   0.021048 0.076158 0.930838 0.034318
C47   C     C_R   0.931373 0.978525 0.871559 -0.163335
C48   C     C_R   0.939624 0.889248 0.816911 -0.193324
C49   C     C_R   0.037080 0.895453 0.821106 0.022901
C50   C     C_R   0.125517 0.986308 0.889433 0.139956
C51   C     C_3   0.219799 0.051518 0.883237 -0.447438
C52   C     C_R   0.296412 0.498515 0.079758 -0.142304
C53   C     C_3   0.211939 0.149135 0.941079 -0.511587
C54   C     C_R   0.111979 0.539645 0.813190 -0.132513
C55   C     C_R   0.922139 0.191256 0.954781 -0.099254
C56   C     C_R   0.750126 0.565989 0.975676 -0.141480
C57   C     C_R   0.012864 0.176723 0.973256 0.044379
C58   C     C_R   0.892946 0.396960 0.177271 -0.135450
C59   C     C_R   0.083559 0.806980 0.020410 -0.146600
C60   C     C_R   0.913032 0.723204 0.939226 -0.103236
Cl1   Cl    Cl    0.678426 0.784788 0.966399 -0.655581
Cl2   Cl    Cl    0.661659 0.126622 0.854759 -0.699091
H1    H     H_    0.176743 0.296477 0.061492 0.105109
H2    H     H_    0.653758 0.522620 0.171890 0.123438
H3    H     H_    0.861795 0.416054 0.680835 0.089490
H4    H     H_    0.574586 0.589839 0.898213 0.063802
H5    H     H_    0.488300 0.743128 0.970066 0.240901
H6    H     H_    0.421416 0.594022 0.907186 0.170597
H7    H     H_    0.137031 0.452655 0.400835 0.116442
H8    H     H_    0.800357 0.298652 0.264964 0.120921
H9    H     H_    0.223945 0.485984 0.556107 0.131921
H10   H     H_    0.792233 0.270572 0.396368 0.125058
H11   H     H_    0.212266 0.514532 0.700794 0.121375
H12   H     H_    0.743966 0.621908 0.949790 0.140019
H13   H     H_    0.877834 0.329676 0.558659 0.116624
H14   H     H_    0.661780 0.191984 0.561849 0.115561
H15   H     H_    0.643734 0.989659 0.699219 0.179738
H16   H     H_    0.594153 0.116455 0.399153 0.121918
H17   H     H_    0.556985 0.833615 0.552659 0.136745
H18   H     H_    0.460563 0.965491 0.257799 0.116998
H19   H     H_    0.457273 0.758874 0.390109 0.114829
H20   H     H_    0.854402 0.972242 0.862590 0.157071
H21   H     H_    0.869918 0.817337 0.767542 0.139984
H22   H     H_    0.289739 0.043492 0.919125 0.199149
H23   H     H_    0.813573 0.338183 0.150392 0.111618
H24   H     H_    0.205613 0.041039 0.812454 0.202735
H25   H     H_    0.277920 0.197442 0.009900 0.190236
H26   H     H_    0.328550 0.662003 0.988636 0.110220
H27   H     H_    0.193179 0.195294 0.903808 0.207105
H28   H     H_    0.721617 0.330189 0.689098 0.114504
H29   H     H_    0.320155 0.471990 0.130940 0.084498
H30   H     H_    0.194686 0.568222 0.832440 0.098503
H31   H     H_    0.844676 0.129734 0.911321 0.157672
H32   H     H_    0.295516 0.651271 0.294780 0.084575
H33   H     H_    0.164035 0.865163 0.052483 0.101049
H34   H     H_    0.836179 0.704242 0.892748 0.127793
H35   H     H_    0.144966 0.506764 0.297840 0.086921
H36   H     H_    0.308105 0.835675 0.145017 0.086448
H37   H     H_    0.729289 0.435136 0.098315 0.090299
H38   H     H_    0.494658 0.527795 0.178278 0.121367
N1    N     N_R   0.055640 0.348550 0.045600 -0.046146
N2    N     N_R   0.811290 0.303400 0.871650 -0.073847
N3    N     N_R   0.205180 0.552990 0.997660 -0.040017
N4    N     N_R   0.814810 0.361830 0.823710 -0.058739
N5    N     N_R   0.201660 0.494570 0.045600 -0.039845
N6    N     N_R   0.068420 0.560530 0.871650 -0.042005
N7    N     N_R   0.948050 0.295860 0.997660 -0.039975
N8    N     N_R   0.185190 0.638170 0.176290 -0.040502
N9    N     N_R   0.798340 0.505430 0.954400 -0.044214
N10   N     N_R   0.931580 0.439470 0.128350 -0.041132
N11   N     N_R   0.051950 0.704140 0.002340 -0.042356
N12   N     N_R   0.944360 0.651450 0.954400 -0.050476
N13   N     N_R   0.039170 0.492150 0.176290 -0.043739
N14   N     N_R   0.188710 0.696600 0.128350 -0.037803
N15   N     N_R   0.794820 0.447010 0.002340 -0.034327
N16   N     N_R   0.960830 0.507850 0.823710 -0.041737
Ni1   Ni    Ni4+2 0.119330 0.493420 0.109950 0.205340
Ni2   Ni    Ni4+2 0.880670 0.506580 0.890050 0.214415
Ni3   Ni    Ni4+2 0.872590 0.372590 0.000000 0.276488
Ni4   Ni    Ni4+2 0.127410 0.627410 0.000000 0.208610

loop_
_geom_bond_atom_site_label_1
_geom_bond_atom_site_label_2
_ccdc_geom_bond_type
N1    N7    A    
C51   C53   S    
C6    C45   A    
C27   C29   A    
C56   N9    A    
N11   N12   A    
C28   N3    A    
C55   H31   S    
C3    C6    A    
N5    Ni1   S    
C39   C41   A    
C20   C30   A    
C26   C27   A    
C8    C20   S    
C16   Cl2   S    
C30   C31   A    
C2    N13   A    
C24   H11   S    
C10   C17   A    
C43   H17   S    
C23   C40   A    
C33   C36   A    
C18   C19   S    
C47   H20   S    
N8    N14   A    
C8    C58   A    
C44   C53   S    
C5    H37   S    
C2    H35   S    
C28   H26   S    
C59   N11   A    
C32   C41   A    
C19   H5    S    
C4    C12   A    
C29   H7    S    
C45   N8    A    
C7    C15   S    
C28   C34   A    
C26   C31   A    
C13   C14   A    
C5    N15   A    
C37   H19   S    
C59   H33   S    
C7    C56   A    
C45   H32   S    
C1    H1    S    
C51   H24   S    
N7    Ni3   S    
C30   H8    S    
C44   C46   A    
N9    Ni2   S    
C50   C51   S    
N4    Ni2   S    
C20   C29   A    
C38   C39   A    
C56   H12   S    
C54   N6    A    
C53   H25   S    
C36   H18   S    
C5    C7    A    
C25   C26   A    
C12   C21   S    
C33   C37   A    
C55   N7    A    
N11   Ni4   S    
C25   H13   S    
C35   C36   A    
C35   C39   A    
C54   H30   S    
C37   C38   A    
C60   N12   A    
C1    C57   A    
C40   N4    A    
C47   C48   A    
C10   C19   S    
C14   H2    S    
C17   C18   S    
C19   H6    S    
N3    N5    A    
N2    N4    A    
N10   N13   A    
N13   Ni1   S    
C60   H34   S    
C16   N2    A    
C31   H10   S    
C52   N5    A    
C16   C23   A    
N15   Ni3   S    
C22   C27   A    
C55   C57   A    
C46   C57   S    
C53   H27   S    
C22   C24   A    
C42   C43   A    
C58   H23   S    
C1    N1    A    
C22   H9    S    
C44   C50   A    
C15   C17   A    
C21   C25   A    
C46   C47   A    
C48   C49   A    
N6    Ni4   S    
C58   N10   A    
N8    Ni1   S    
C4    N16   A    
C11   C34   S    
C2    C8    A    
C3    N14   A    
N10   Ni3   S    
C48   H21   S    
C18   Cl1   S    
C18   H4    S    
C35   H16   S    
C34   C52   A    
C6    C33   S    
C9    C60   A    
N1    Ni1   S    
C23   C32   S    
C13   H38   S    
C38   C43   A    
C41   H14   S    
N12   Ni2   S    
C11   C13   A    
C3    H36   S    
C4    H3    S    
N3    Ni4   S    
N16   Ni2   S    
C12   C54   A    
C10   C11   A    
N9    N15   A    
C42   H15   S    
C49   C50   A    
C21   C24   A    
N6    N16   A    
C32   C42   A    
C14   C15   A    
C52   H29   S    
C40   H28   S    
C9    C59   A    
C51   H22   S    
N14   Ni4   S    
N2    Ni3   S    
