data_mof_unit_3982.cif
_audit_creation_date              2012-12-10T17:57:50-0500
_audit_creation_method            fapswitch 2.2
_symmetry_space_group_name_H-M    P1
_symmetry_Int_Tables_number       1
_space_group_crystal_system       triclinic
_cell_length_a                    10.866098
_cell_length_b                    9.66302
_cell_length_c                    14.936785
_cell_angle_alpha                 89.798
_cell_angle_beta                  90.847638
_cell_angle_gamma                 92.11018
_cell_volume                      1567.11026924

loop_
_atom_site_label
_atom_site_type_symbol
_atom_type_description
_atom_site_fract_x
_atom_site_fract_y
_atom_site_fract_z
_atom_type_partial_charge
C1    C     C_R   0.263261 0.497852 0.509735 0.837805
C2    C     C_R   0.738002 0.502255 0.494955 0.850711
C3    C     C_R   0.260039 0.527083 0.038138 0.169060
C4    C     C_R   0.694794 0.660127 0.957354 0.158503
C5    C     C_R   0.058074 0.372555 0.505841 0.107667
C6    C     C_R   0.943874 0.627621 0.513569 0.122822
C7    C     C_R   0.934604 0.379970 0.481206 0.114337
C8    C     C_R   0.069084 0.619708 0.534823 0.139075
C9    C     C_R   0.873734 0.505404 0.492405 -0.199961
C10   C     C_R   0.128868 0.494949 0.520958 -0.197928
C11   C     C_R   0.437250 0.071455 0.435149 0.290564
C12   C     C_R   0.552548 0.928960 0.569508 0.271263
C13   C     C_R   0.561345 0.077511 0.565427 0.286993
C14   C     C_R   0.448718 0.924373 0.430410 0.280573
C15   C     C_R   0.496824 0.501145 0.328695 0.836963
C16   C     C_R   0.501920 0.499943 0.671224 0.819755
C17   C     C_R   0.608353 0.558850 0.815342 0.175684
C18   C     C_R   0.375526 0.519196 0.186033 0.169711
C19   C     C_R   0.503806 0.503315 0.768962 -0.187325
C20   C     C_R   0.490954 0.509555 0.230767 -0.185520
C21   C     C_R   0.394672 0.471532 0.814210 0.110077
C22   C     C_R   0.600341 0.542293 0.185220 0.106682
C23   C     C_R   0.383049 0.512451 0.903443 -0.015973
C24   C     C_R   0.594617 0.583594 0.095056 -0.029099
C25   C     C_R   0.489356 0.552323 0.952512 -0.051082
C26   C     C_R   0.484674 0.555336 0.046346 -0.056422
C27   C     C_R   0.600526 0.587364 0.908080 -0.001240
C28   C     C_R   0.371250 0.530408 0.091065 0.004493
C29   C     C_R   0.267839 0.522500 0.943933 0.150054
C30   C     C_R   0.691579 0.658080 0.051937 0.162318
Cu1   Cu    Cu3+1 0.500000 0.640660 0.500000 1.021913
Cu2   Cu    Cu3+1 0.500000 0.359340 0.500000 1.027279
N1    N     N_R   0.500000 0.852070 0.500000 -0.202155
N2    N     N_R   0.500000 0.147930 0.500000 -0.204426
O1    O     O_R   0.319640 0.618740 0.499990 -0.567724
O2    O     O_R   0.680360 0.381260 0.500010 -0.537096
O3    O     O_R   0.680360 0.618740 0.500010 -0.554227
O4    O     O_R   0.319640 0.381260 0.499990 -0.540967
O5    O     O_R   0.499970 0.618800 0.370260 -0.546586
O6    O     O_R   0.500030 0.381200 0.629740 -0.552715
O7    O     O_R   0.500030 0.618800 0.629740 -0.548555
O8    O     O_R   0.499970 0.381200 0.370260 -0.570509
N3    N     N_2   0.724132 0.566614 0.771516 -0.403735
H1    H     H_    0.721141 0.592597 0.704570 0.256615
C31   C     C_3   0.799802 0.449408 0.789578 -0.565694
H2    H     H_    0.884453 0.457821 0.748851 0.245262
H3    H     H_    0.748491 0.351448 0.772399 0.207765
H4    H     H_    0.827019 0.446796 0.861520 0.265973
N4    N     N_2   0.266919 0.530665 0.236943 -0.405417
H5    H     H_    0.271837 0.608834 0.283630 0.257374
C32   C     C_3   0.215614 0.402981 0.272961 -0.624176
H6    H     H_    0.118916 0.417919 0.292755 0.259574
H7    H     H_    0.268069 0.374474 0.333372 0.233976
H8    H     H_    0.216783 0.318677 0.222554 0.250577
I1    I     I_    0.272398 0.314222 0.760363 -0.262918
I2    I     I_    0.772167 0.499323 0.248823 -0.236963
I3    I     I_    0.115957 0.585216 0.861375 -0.220365
I4    I     I_    0.799659 0.810232 0.126542 -0.198719
I5    I     I_    0.076476 0.529683 0.090197 -0.207403
I6    I     I_    0.821173 0.802011 0.891351 -0.237695
I7    I     I_    0.116704 0.177713 0.554224 -0.257296
I8    I     I_    0.876660 0.830098 0.492472 -0.270886
I9    I     I_    0.855800 0.208025 0.406379 -0.266251
I10   I     I_    0.158514 0.785763 0.609664 -0.218671
N5    N     N_2   0.362067 0.139578 0.371055 -0.395118
H9    H     H_    0.406991 0.165676 0.312782 0.261095
C33   C     C_3   0.237544 0.082793 0.355804 -0.617865
H10   H     H_    0.170511 0.165541 0.360268 0.259492
H11   H     H_    0.211024 0.002744 0.406195 0.254538
H12   H     H_    0.227984 0.037379 0.287819 0.216388
N6    N     N_2   0.595590 0.861022 0.647697 -0.381184
H13   H     H_    0.689852 0.856557 0.654245 0.270158
C34   C     C_3   0.531979 0.890684 0.730015 -0.585057
H14   H     H_    0.594241 0.950191 0.776590 0.215054
H15   H     H_    0.502926 0.793075 0.763452 0.247628
H16   H     H_    0.447471 0.949849 0.717382 0.232430
N7    N     N_2   0.627008 0.154352 0.632980 -0.389296
H17   H     H_    0.582751 0.161635 0.693209 0.259000
C35   C     C_3   0.758667 0.138192 0.640484 -0.594741
H18   H     H_    0.806300 0.241492 0.637593 0.241905
H19   H     H_    0.793236 0.075165 0.585349 0.265357
H20   H     H_    0.782205 0.088054 0.705224 0.225179
N8    N     N_2   0.408440 0.852704 0.351986 -0.390207
H21   H     H_    0.316973 0.821434 0.348167 0.248083
C36   C     C_3   0.468350 0.890751 0.268753 -0.598581
H22   H     H_    0.407453 0.954362 0.226513 0.206100
H23   H     H_    0.487439 0.796245 0.230660 0.241753
H24   H     H_    0.557390 0.948605 0.281047 0.242170

loop_
_geom_bond_atom_site_label_1
_geom_bond_atom_site_label_2
_ccdc_geom_bond_type
C34   H14   S    
C4    C27   A    
C14   N1    A    
C21   I1    S    
N7    H17   S    
Cu2   O2    S    
C3    C28   A    
C19   C21   A    
C24   C26   A    
C11   C14   A    
C31   H4    S    
C32   H6    S    
C31   H3    S    
C3    C29   A    
N8    H21   S    
N4    C32   S    
Cu1   N1    S    
Cu2   O4    S    
C18   C20   A    
N7    C35   S    
C34   H15   S    
C14   N8    S    
C6    C9    A    
C5    C10   A    
C36   H23   S    
C15   C20   S    
C13   N7    S    
C33   H10   S    
C17   C27   A    
C18   C28   A    
C35   H19   S    
C22   I2    S    
N5    C33   S    
C25   C26   A    
C36   H22   S    
Cu1   O3    S    
C33   H11   S    
Cu2   N2    S    
N3    H1    S    
C17   N3    S    
Cu1   Cu2   S    
C7    I9    S    
C4    I6    S    
C5    I7    S    
N3    C31   S    
C15   O5    A    
C1    O4    A    
C8    I10   S    
N8    C36   S    
C12   N6    S    
C16   O6    A    
N5    H9    S    
C21   C23   A    
C34   H16   S    
Cu1   O1    S    
C20   C22   A    
C23   C29   A    
Cu2   O6    S    
C1    O1    A    
C5    C7    A    
C36   H24   S    
C2    O2    A    
C7    C9    A    
Cu1   O7    S    
C11   N2    A    
C1    C10   S    
C15   O8    A    
C29   I3    S    
C35   H20   S    
C6    C8    A    
C25   C27   A    
C26   C28   A    
C32   H8    S    
C6    I8    S    
N6    H13   S    
C2    O3    A    
C16   C19   S    
C30   I4    S    
C17   C19   A    
Cu1   O5    S    
C22   C24   A    
C23   C25   A    
C24   C30   A    
C35   H18   S    
C31   H2    S    
C13   N2    A    
C12   C13   A    
C8    C10   A    
N4    H5    S    
N6    C34   S    
Cu2   O8    S    
C33   H12   S    
C32   H7    S    
C12   N1    A    
C2    C9    S    
C16   O7    A    
C4    C30   A    
C11   N5    S    
C18   N4    S    
C3    I5    S    
