data_mof_unit_4197.cif
_audit_creation_date              2012-12-11T15:55:56-0500
_audit_creation_method            fapswitch 2.2
_symmetry_space_group_name_H-M    P1
_symmetry_Int_Tables_number       1
_space_group_crystal_system       triclinic
_cell_length_a                    11.036626
_cell_length_b                    11.051663
_cell_length_c                    18.642717
_cell_angle_alpha                 90.515416
_cell_angle_beta                  90.117302
_cell_angle_gamma                 59.305717
_cell_volume                      1955.25435616

loop_
_atom_site_label
_atom_site_type_symbol
_atom_type_description
_atom_site_fract_x
_atom_site_fract_y
_atom_site_fract_z
_atom_type_partial_charge
C1    C     C_R   0.386666 0.710240 0.389165 0.569055
C2    C     C_R   0.251962 0.464875 0.194290 -0.152433
C3    C     C_R   0.236042 0.472062 0.270179 -0.021577
C4    C     C_R   0.383769 0.357239 0.386900 0.543670
C5    C     C_R   0.801597 0.795121 0.338953 -0.101933
C6    C     C_R   0.831417 0.735885 0.271216 -0.123918
C7    C     C_R   0.968305 0.635289 0.250705 -0.115507
C8    C     C_R   0.085694 0.586768 0.298025 0.004377
C9    C     C_R   0.356877 0.359821 0.309032 0.006005
C10   C     C_R   0.942654 0.293605 0.195301 0.008555
C11   C     C_R   0.875756 0.224301 0.222159 0.026245
C12   C     C_R   0.609845 0.148020 0.158033 0.038474
C13   C     C_R   0.839309 0.236204 0.294729 0.013957
C14   C     C_R   0.962396 0.360664 0.317324 -0.155783
C15   C     C_R   0.002115 0.343514 0.244769 -0.169197
C16   C     C_R   0.785036 0.373215 0.405628 0.535715
C17   C     C_3   0.944319 0.067738 0.224994 -0.256183
C18   C     C_3   0.900660 0.081452 0.301998 -0.271223
C19   C     C_R   0.871128 0.316143 0.341048 -0.000631
C20   C     C_R   0.363154 0.798915 0.165464 0.018200
C21   C     C_R   0.489235 0.760856 0.200435 -0.007848
C22   C     C_R   0.499564 0.728070 0.274765 0.007255
C23   C     C_R   0.360954 0.347810 0.158675 -0.005986
C24   C     C_R   0.270074 0.755275 0.272466 -0.163180
C25   C     C_R   0.267390 0.769136 0.199333 -0.156179
C26   C     C_3   0.618386 0.621016 0.184794 -0.272071
C27   C     C_3   0.628277 0.589056 0.263105 -0.259065
C28   C     C_R   0.372003 0.706327 0.610938 0.545905
C29   C     C_R   0.382971 0.741318 0.312480 0.017316
C30   C     C_R   0.337491 0.339368 0.823578 0.015495
C31   C     C_R   0.460406 0.241011 0.787544 -0.009719
C32   C     C_R   0.481836 0.257588 0.717207 0.039067
C33   C     C_R   0.269562 0.485352 0.718018 -0.162876
C34   C     C_R   0.477278 0.259201 0.270298 -0.151342
C35   C     C_R   0.248940 0.469155 0.790844 -0.160304
C36   C     C_3   0.516984 0.087271 0.776349 -0.217806
C37   C     C_3   0.539476 0.105206 0.698995 0.152929
C38   C     C_R   0.383507 0.375179 0.680164 0.036884
C39   C     C_R   0.831510 0.330899 0.831813 0.050524
C40   C     C_R   0.406986 0.380213 0.604421 0.570131
C41   C     C_R   0.852671 0.424016 0.790562 0.069463
C42   C     C_R   0.841633 0.428140 0.718046 0.005846
C43   C     C_R   0.780950 0.248306 0.721853 -0.167712
C44   C     C_R   0.788352 0.246494 0.797130 -0.173723
C45   C     C_R   0.482460 0.256346 0.196337 -0.026316
C46   C     C_3   0.977768 0.442311 0.786425 -0.248020
C47   C     C_3   0.961535 0.450688 0.706132 -0.286230
C48   C     C_R   0.811654 0.337634 0.682064 0.008657
C49   C     C_R   0.317169 0.805824 0.834100 0.034305
C50   C     C_R   0.206380 0.824156 0.790605 -0.021434
C51   C     C_R   0.226026 0.791178 0.719283 -0.000979
C52   C     C_R   0.764574 0.375155 0.609469 0.534872
C53   C     C_R   0.475615 0.691497 0.733125 -0.149730
C54   C     C_R   0.456037 0.725679 0.807266 0.229347
C55   C     C_3   0.066079 0.952146 0.777914 -0.257307
C56   C     C_R   0.048770 0.658093 0.366014 -0.098481
C57   C     C_3   0.087787 0.915168 0.698815 -0.253618
C58   C     C_R   0.357946 0.734743 0.687791 -0.029351
C59   C     C_R   0.973384 0.288162 0.118327 0.557947
C60   C     C_R   0.329591 0.298500 0.090841 0.538197
C61   C     C_R   0.310993 0.889949 0.102276 0.539270
C62   C     C_R   0.883163 0.309838 0.904762 0.559161
C63   C     C_R   0.300764 0.292456 0.888325 0.536553
C64   C     C_R   0.799884 0.947960 0.059213 -0.123299
C65   C     C_R   0.279921 0.886344 0.900675 0.563095
C66   C     C_R   0.760256 0.089046 0.053025 -0.079463
C67   C     C_R   0.910807 0.756867 0.386253 -0.131420
C68   C     C_R   0.667291 0.188787 0.102581 -0.069457
C69   C     C_3   0.518329 0.984560 0.601132 0.013228
C70   C     C_3   0.416902 0.008431 0.540103 -0.303478
C71   C     C_3   0.630865 0.761602 0.847151 -0.000080
C72   C     C_3   0.712287 0.753504 0.914730 -0.339128
C73   C     C_R   0.648018 0.006479 0.163162 -0.071661
C74   C     C_R   0.743131 0.906732 0.113911 -0.115208
Cr1   Cr    Cr6+3 0.601740 0.606840 0.505840 0.969902
Cr2   Cr    Cr6+3 0.291500 0.601560 0.495070 0.961132
Cr3   Cr    Cr6+3 0.606780 0.291630 0.499130 0.973874
Cr4   Cr    Cr6+3 0.062440 0.063060 0.008240 0.976047
Cr5   Cr    Cr6+3 0.062950 0.375000 0.998920 0.975466
Cr6   Cr    Cr6+3 0.374550 0.061770 0.992470 1.005319
H1    H     H_    0.571123 0.180623 0.297458 0.135705
H2    H     H_    0.180728 0.759141 0.297408 0.151731
H3    H     H_    0.768795 0.798501 0.115893 0.095900
H4    H     H_    0.176003 0.779080 0.172009 0.142717
H5    H     H_    0.707306 0.629411 0.163404 0.143695
H6    H     H_    0.596162 0.549993 0.151867 0.147412
H7    H     H_    0.610804 0.500701 0.274986 0.139604
H8    H     H_    0.719277 0.584225 0.290073 0.175968
H9    H     H_    0.191908 0.578574 0.690396 0.137556
H10   H     H_    0.158287 0.551660 0.818913 0.120189
H11   H     H_    0.433161 0.060754 0.783565 0.166738
H12   H     H_    0.694476 0.872077 0.354214 0.113715
H13   H     H_    0.653049 0.047709 0.683590 0.063951
H14   H     H_    0.889385 0.807645 0.438485 0.091629
H15   H     H_    0.753236 0.179615 0.694623 0.123774
H16   H     H_    0.770085 0.173802 0.827101 0.115248
H17   H     H_    0.075469 0.345563 0.802962 0.159446
H18   H     H_    0.956546 0.542512 0.811736 0.129374
H19   H     H_    0.926723 0.557171 0.684858 0.135167
H20   H     H_    0.051190 0.361811 0.677051 0.160308
H21   H     H_    0.580393 0.636641 0.710824 0.141535
H22   H     H_    0.066491 0.050208 0.791146 0.153104
H23   H     H_    0.746143 0.764225 0.235176 0.104616
H24   H     H_    0.871461 0.871342 0.020462 0.093620
H25   H     H_    0.979353 0.942547 0.802001 0.133495
H26   H     H_    0.013594 0.883999 0.677175 0.127803
H27   H     H_    0.098960 0.992705 0.666157 0.156464
H28   H     H_    0.798250 0.121682 0.008553 0.156546
H29   H     H_    0.633669 0.298688 0.095372 0.106457
H30   H     H_    0.117361 0.657470 0.404497 0.202164
H31   H     H_    0.593899 0.977408 0.201349 0.106252
H32   H     H_    0.173457 0.545438 0.160429 0.117558
H33   H     H_    0.079164 0.367649 0.226388 0.130716
H34   H     H_    0.976639 0.593308 0.197376 0.111142
H35   H     H_    0.617375 0.023076 0.805879 0.071189
H36   H     H_    0.559610 0.878205 0.624026 0.144506
H37   H     H_    0.608004 0.990452 0.577694 0.119023
H38   H     H_    0.374547 0.115385 0.517762 0.172849
H39   H     H_    0.473196 0.930306 0.496691 0.131152
H40   H     H_    0.327455 0.998509 0.559736 0.174397
H41   H     H_    0.549039 0.872584 0.842733 0.149131
H42   H     H_    0.701248 0.729683 0.799484 0.112220
H43   H     H_    0.738976 0.837724 0.913888 0.062689
H44   H     H_    0.647681 0.768246 0.963243 0.177844
H45   H     H_    0.997240 0.413127 0.353929 0.151190
H46   H     H_    0.811837 0.651762 0.917595 0.169925
H47   H     H_    0.059464 0.017994 0.218347 0.159430
H48   H     H_    0.894921 0.023726 0.190146 0.163302
H49   H     H_    0.818813 0.053360 0.311469 0.142415
H50   H     H_    0.991334 0.031867 0.339640 0.151677
O1    O     O_R   0.748670 0.497520 0.427970 -0.519294
O2    O     O_R   0.417470 0.174910 0.067830 -0.493653
O3    O     O_R   0.375160 0.946380 0.070880 -0.494285
O4    O     O_R   0.476470 0.723930 0.429450 -0.498478
O5    O     O_R   0.160500 0.919670 0.926690 -0.526795
O6    O     O_R   0.933140 0.190380 0.936050 -0.529479
O7    O     O_R   0.909010 0.403210 0.925030 -0.517766
O8    O     O_R   0.179590 0.361290 0.918480 -0.518852
O9    O     O_R   0.391360 0.170840 0.907510 -0.529083
O10   O     O_R   0.350950 0.942600 0.922260 -0.502143
O11   O     O_3   0.166650 0.166610 0.999880 -0.258501
O12   O     O_R   0.300170 0.471020 0.567120 -0.518837
O13   O     O_R   0.264730 0.744140 0.416740 -0.553686
O14   O     O_R   0.309440 0.472410 0.418220 -0.538590
O15   O     O_R   0.501630 0.260530 0.414310 -0.526869
O16   O     O_R   0.727920 0.305730 0.428950 -0.495849
O17   O     O_R   0.738670 0.496020 0.588600 -0.527533
O18   O     O_R   0.467190 0.722540 0.578350 -0.520005
O19   O     O_R   0.254720 0.742640 0.577370 -0.521176
O20   O     O_3   0.445021 0.087299 0.654813 -0.543898
O21   O     O_3   0.569952 0.676866 0.853510 -0.550706
O22   O     O_R   0.491630 0.259030 0.574940 -0.496446
O23   O     O_R   0.718640 0.304340 0.577850 -0.532074
O24   O     O_3   0.500010 0.500010 0.500020 -0.298024
O25   O     O_R   0.186620 0.923750 0.087000 -0.542922
O26   O     O_R   0.957350 0.194160 0.084660 -0.505897
O27   O     O_R   0.935120 0.407280 0.085350 -0.529398
O28   O     O_R   0.203800 0.365060 0.067090 -0.524576

loop_
_geom_bond_atom_site_label_1
_geom_bond_atom_site_label_2
_ccdc_geom_bond_type
C66   C68   A    
C21   C26   S    
C69   H36   S    
C23   C45   A    
C22   C29   A    
C40   O12   A    
C59   O27   A    
C73   C74   A    
C71   H42   S    
C74   H3    S    
C5    C67   A    
C60   O2    A    
Cr5   O28   S    
Cr1   O4    S    
C61   O3    A    
C7    C8    A    
C39   C41   A    
Cr5   O11   S    
C53   C54   A    
C12   C68   A    
C55   H22   S    
C2    H32   S    
C26   C27   S    
C14   H45   S    
C49   C65   S    
C13   C18   S    
C55   H25   S    
Cr6   O2    S    
C69   O20   S    
C7    H34   S    
C36   C37   S    
C60   O28   A    
C10   C15   A    
C26   H5    S    
C30   C31   A    
Cr4   O25   S    
C20   C25   A    
C49   C54   A    
C47   H19   S    
C40   O22   A    
C16   O16   A    
C41   C42   A    
C62   O6    A    
C20   C61   S    
C16   O1    A    
C24   H2    S    
C24   C29   A    
Cr3   O23   S    
C65   O10   A    
C71   O21   S    
C53   H21   S    
C12   C73   A    
C25   H4    S    
C43   H15   S    
C41   C46   S    
C15   H33   S    
C51   C57   S    
C34   H1    S    
C32   C38   A    
C43   C48   A    
C37   O20   S    
C53   C58   A    
C68   H29   S    
C57   H26   S    
C46   H18   S    
C28   O19   A    
C21   C22   A    
C72   H44   S    
C8    C56   A    
C69   C70   S    
C61   O25   A    
Cr3   O22   S    
C56   H30   S    
Cr1   O1    S    
C73   H31   S    
C6    C7    A    
C23   C60   S    
C28   O18   A    
C32   C37   S    
C13   C19   A    
C24   C25   A    
C3    C8    S    
Cr4   O11   S    
C70   H40   S    
C51   C58   A    
C17   H47   S    
Cr1   O17   S    
C52   O23   A    
Cr6   O10   S    
C47   H20   S    
C72   H46   S    
C64   C66   A    
C43   C44   A    
C35   H10   S    
Cr5   O27   S    
C1    O13   A    
C33   H9    S    
Cr3   O24   S    
C67   H14   S    
C31   C32   A    
C70   H39   S    
C26   H6    S    
C1    C29   S    
C17   C18   S    
C37   H13   S    
C50   C51   A    
C34   C45   A    
C42   C48   A    
C6    H23   S    
C27   H7    S    
C3    C9    A    
C65   O5    A    
Cr2   O14   S    
C36   H11   S    
Cr5   O7    S    
C46   H17   S    
Cr6   O11   S    
C52   O17   A    
C22   C27   S    
C55   C57   S    
C72   H43   S    
C9    C34   A    
C63   O8    A    
C18   H50   S    
C39   C44   A    
C1    O4    A    
C56   C67   A    
Cr3   O15   S    
Cr4   O5    S    
C64   H24   S    
C39   C62   S    
C46   C47   S    
C11   C17   S    
C44   H16   S    
C57   H27   S    
C31   C36   S    
C63   O9    A    
C14   C19   A    
C71   H41   S    
C50   C55   S    
C66   H28   S    
C12   C45   S    
C4    O14   A    
C59   O26   A    
C17   H48   S    
C54   O21   S    
C28   C58   S    
Cr1   O18   S    
Cr2   O24   S    
Cr6   O9    S    
C30   C35   A    
C33   C38   A    
C2    C3    A    
C71   C72   S    
C38   C40   S    
C11   C13   A    
Cr1   O24   S    
Cr4   O26   S    
C5    C6    A    
Cr2   O19   S    
C70   H38   S    
C16   C19   S    
C4    O15   A    
C69   H37   S    
C33   C35   A    
C10   C59   S    
C42   C47   S    
C62   O7    A    
C27   H8    S    
C5    H12   S    
C10   C11   A    
Cr6   O3    S    
Cr2   O13   S    
C48   C52   S    
Cr5   O8    S    
C20   C21   A    
C49   C50   A    
C2    C23   A    
C64   C74   A    
C14   C15   A    
C18   H49   S    
C4    C9    S    
C30   C63   S    
C36   H35   S    
Cr4   O6    S    
Cr3   O16   S    
Cr2   O12   S    
