data_mof_unit_2875.cif
_audit_creation_date              2012-10-26T19:00:12-0400
_audit_creation_method            fapswitch 2.2
_symmetry_space_group_name_H-M    P1
_symmetry_Int_Tables_number       1
_space_group_crystal_system       triclinic
_cell_length_a                    10.82182
_cell_length_b                    10.80004
_cell_length_c                    9.544497
_cell_angle_alpha                 90.362953
_cell_angle_beta                  90.385766
_cell_angle_gamma                 89.998753
_cell_volume                      1115.47581345

loop_
_atom_site_label
_atom_site_type_symbol
_atom_type_description
_atom_site_fract_x
_atom_site_fract_y
_atom_site_fract_z
_atom_type_partial_charge
C1    C     C_R   0.498507 0.262538 0.499336 0.548892
C2    C     C_R   0.834035 0.323048 0.962592 -0.127281
C3    C     C_R   0.787655 0.206006 0.927622 -0.080815
C4    C     C_R   0.262374 0.502742 0.499600 0.544318
C5    C     C_R   0.791198 0.163684 0.788257 0.020949
C6    C     C_R   0.836334 0.241974 0.683535 -0.057426
C7    C     C_R   0.882529 0.359686 0.718433 0.042243
C8    C     C_R   0.421897 0.064508 0.592629 0.013986
C9    C     C_R   0.490933 0.129604 0.494791 0.007577
C10   C     C_R   0.545200 0.064085 0.383453 -0.174539
C11   C     C_R   0.546076 0.935037 0.384464 -0.173935
C12   C     C_R   0.253871 0.736879 0.056928 -0.100474
C13   C     C_R   0.492358 0.870912 0.496407 0.003398
C14   C     C_R   0.422227 0.937355 0.593036 0.007980
C15   C     C_3   0.412681 0.931895 0.748498 -0.273810
C16   C     C_R   0.498885 0.737630 0.499985 0.544304
C17   C     C_3   0.413250 0.072927 0.748332 -0.280342
C18   C     C_R   0.542557 0.600309 0.074413 0.170371
C19   C     C_R   0.445853 0.406986 0.073361 -0.008696
C20   C     C_R   0.445981 0.406917 0.924526 -0.011238
C21   C     C_R   0.540804 0.601144 0.927156 0.152694
C22   C     C_3   0.665580 0.658509 0.920373 -0.277884
C23   C     C_R   0.932474 0.556006 0.392959 -0.158515
C24   C     C_3   0.669593 0.653843 0.079272 -0.280286
C25   C     C_R   0.737650 0.496412 0.500566 0.545987
C26   C     C_R   0.258779 0.788014 0.191652 -0.093111
C27   C     C_R   0.192152 0.733718 0.300038 -0.059528
C28   C     C_R   0.120560 0.627446 0.273776 0.049794
C29   C     C_R   0.113399 0.578588 0.137262 -0.095596
C30   C     C_R   0.180369 0.633088 0.029230 -0.113401
C31   C     C_3   0.752933 0.033987 0.751320 -0.419809
C32   C     C_R   0.871630 0.494933 0.501458 -0.003440
C33   C     C_R   0.939791 0.437260 0.609525 -0.034305
C34   C     C_R   0.067718 0.445196 0.608423 -0.155845
C35   C     C_R   0.128418 0.505335 0.499395 -0.001718
C36   C     C_R   0.060486 0.561761 0.390461 -0.032557
C37   C     C_R   0.884079 0.398410 0.858953 -0.107300
Cu1   Cu    Cu3+1 0.499990 0.499980 0.640670 0.935146
Cu2   Cu    Cu3+1 0.500010 0.500020 0.359330 0.938283
H1    H     H_    0.308453 0.776642 0.974617 0.097043
H2    H     H_    0.403674 0.330675 0.128064 0.115871
H3    H     H_    0.315848 0.868406 0.212554 0.111084
H4    H     H_    0.403650 0.330761 0.868205 0.109578
H5    H     H_    0.734427 0.598010 0.869067 0.162392
H6    H     H_    0.662048 0.754306 0.879002 0.111404
H7    H     H_    0.739247 0.587240 0.119594 0.139772
H8    H     H_    0.672029 0.747055 0.128789 0.112244
H9    H     H_    0.198911 0.772192 0.404911 0.093735
H10   H     H_    0.059293 0.496186 0.115755 0.095427
H11   H     H_    0.177035 0.593622 0.924703 0.114674
H12   H     H_    0.751981 0.147440 0.009688 0.097353
H13   H     H_    0.880188 0.601955 0.311264 0.117915
H14   H     H_    0.120415 0.399172 0.690043 0.125109
H15   H     H_    0.923682 0.487110 0.887904 0.091346
H16   H     H_    0.833431 0.354407 0.070554 0.108586
H17   H     H_    0.682822 0.035478 0.666409 0.149013
H18   H     H_    0.834473 0.981149 0.714070 0.131701
H19   H     H_    0.713539 0.985430 0.842985 0.112597
H20   H     H_    0.839152 0.209862 0.575757 0.095446
H21   H     H_    0.592992 0.112091 0.300474 0.124872
H22   H     H_    0.594199 0.886089 0.302038 0.121172
H23   H     H_    0.322372 0.892873 0.780234 0.130638
H24   H     H_    0.495416 0.890643 0.799389 0.135569
H25   H     H_    0.324096 0.113817 0.782645 0.125893
H26   H     H_    0.496933 0.113936 0.798251 0.147900
N1    N     N_R   0.500790 0.500930 0.147930 -0.225834
N2    N     N_R   0.500790 0.500890 0.852020 -0.227709
O1    O     O_R   0.500000 0.319640 0.618810 -0.503250
O2    O     O_R   0.500010 0.319680 0.381230 -0.516222
O3    O     O_R   0.319640 0.499990 0.618790 -0.515438
O4    O     O_R   0.319650 0.500030 0.381210 -0.484260
O5    O     O_R   0.499990 0.680320 0.618770 -0.502606
O6    O     O_R   0.500000 0.680360 0.381190 -0.502874
O7    O     O_R   0.680350 0.499970 0.618790 -0.490757
O8    O     O_R   0.680360 0.500010 0.381210 -0.513457

loop_
_geom_bond_atom_site_label_1
_geom_bond_atom_site_label_2
_ccdc_geom_bond_type
C27   H9    S    
Cu1   O3    S    
C18   C21   A    
C20   N2    A    
C19   C20   A    
C16   O5    A    
C4    O3    A    
C29   H10   S    
C26   C27   A    
C18   C24   S    
C31   H19   S    
C28   C29   A    
C25   O7    A    
C2    H16   S    
C17   H25   S    
C5    C6    A    
C1    O1    A    
C19   N1    A    
C34   C35   A    
C22   H5    S    
C35   C36   A    
C8    C9    A    
C8    C14   A    
Cu2   O8    S    
C31   H17   S    
C9    C10   A    
C25   C32   S    
C30   H11   S    
C4    C35   S    
C13   C14   A    
C21   N2    A    
C7    C33   S    
C7    C37   A    
Cu1   O5    S    
C16   O6    A    
C1    C9    S    
C3    H12   S    
C3    C5    A    
C1    O2    A    
C12   C26   A    
C25   O8    A    
C12   H1    S    
C10   H21   S    
C29   C30   A    
C33   C34   A    
Cu2   O2    S    
C37   H15   S    
Cu1   O1    S    
Cu2   N1    S    
C22   C24   S    
C20   H4    S    
C26   H3    S    
Cu1   O7    S    
C15   C17   S    
Cu2   O4    S    
C12   C30   A    
C24   H8    S    
C6    H20   S    
C11   H22   S    
C6    C7    A    
C18   N1    A    
C17   H26   S    
C8    C17   S    
C24   H7    S    
C32   C33   A    
C31   H18   S    
C2    C3    A    
C23   C32   A    
C11   C13   A    
C2    C37   A    
C23   H13   S    
Cu1   Cu2   S    
C15   H23   S    
Cu2   O6    S    
C10   C11   A    
C22   H6    S    
Cu1   N2    S    
C28   C36   S    
C34   H14   S    
C23   C36   A    
C13   C16   S    
C27   C28   A    
C15   H24   S    
C14   C15   S    
C21   C22   S    
C4    O4    A    
C19   H2    S    
C5    C31   S    
