data_mof_unit_3961.cif
_audit_creation_date              2012-12-10T17:06:43-0500
_audit_creation_method            fapswitch 2.2
_symmetry_space_group_name_H-M    P1
_symmetry_Int_Tables_number       1
_space_group_crystal_system       triclinic
_cell_length_a                    15.850663
_cell_length_b                    11.074975
_cell_length_c                    9.99889
_cell_angle_alpha                 110.848278
_cell_angle_beta                  97.98867
_cell_angle_gamma                 94.169225
_cell_volume                      1610.20482075

loop_
_atom_site_label
_atom_site_type_symbol
_atom_type_description
_atom_site_fract_x
_atom_site_fract_y
_atom_site_fract_z
_atom_type_partial_charge
C1    C     C_R   0.493845 0.254761 0.441463 0.846486
C2    C     C_R   0.505317 0.744753 0.559257 0.860470
C3    C     C_2   0.510162 0.068176 0.515792 0.138967
C4    C     C_2   0.477972 0.934620 0.500574 0.164469
C5    C     C_2   0.507094 0.515493 0.080996 0.224868
C6    C     C_2   0.487865 0.492673 0.920812 0.212777
C7    C     C_R   0.340314 0.499607 0.500516 0.821195
C8    C     C_R   0.659708 0.500340 0.499514 0.804590
C9    C     C_3   0.968679 0.392170 0.519250 0.135258
C10   C     C_3   0.031614 0.607805 0.482311 0.135575
C11   C     C_3   0.014088 0.396100 0.394409 0.172850
C12   C     C_3   0.986194 0.603880 0.607150 0.172860
C13   C     C_1   0.250910 0.500263 0.502168 -0.170989
C14   C     C_1   0.749181 0.499619 0.498158 -0.175542
C15   C     C_3   0.039187 0.499369 0.630730 -0.220888
C16   C     C_3   0.961125 0.500615 0.370826 -0.218855
C17   C     C_3   0.083948 0.501707 0.503010 0.049223
C18   C     C_3   0.916319 0.498256 0.498517 0.049111
C19   C     C_1   0.175528 0.500933 0.503030 -0.045001
C20   C     C_1   0.824647 0.498965 0.497923 -0.043705
C21   C     C_2   0.481024 0.115748 0.413233 -0.393537
C22   C     C_2   0.516946 0.883538 0.591905 -0.314821
Cu1   Cu    Cu3+1 0.514700 0.521810 0.644910 0.917731
Cu2   Cu    Cu3+1 0.485300 0.478190 0.355090 0.937067
H1    H     H_    0.928611 0.498781 0.264239 0.151239
H2    H     H_    0.071807 0.501212 0.737267 0.151876
H3    H     H_    0.565708 0.941461 0.685031 0.150451
H4    H     H_    0.439775 0.054194 0.312111 0.129553
H5    H     H_    0.594452 0.607595 0.920625 0.202595
H6    H     H_    0.415851 0.371217 0.073943 0.193442
N1    N     N_2   0.463210 0.445420 0.137360 -0.313657
N2    N     N_2   0.536790 0.554580 0.862640 -0.307569
O1    O     O_R   0.507840 0.332340 0.577400 -0.603657
O2    O     O_R   0.492160 0.667660 0.422600 -0.549851
O3    O     O_R   0.483020 0.295500 0.332650 -0.570093
O4    O     O_R   0.516980 0.704500 0.667350 -0.577451
O5    O     O_R   0.391490 0.518400 0.622350 -0.581718
O6    O     O_R   0.608510 0.481600 0.377650 -0.600862
O7    O     O_R   0.366660 0.481570 0.377600 -0.560316
O8    O     O_R   0.633340 0.518430 0.622400 -0.570520
N3    N     N_3   0.031102 0.283536 0.275583 -0.583969
H7    H     H_    0.974275 0.218475 0.234131 0.216118
H8    H     H_    0.076450 0.237493 0.319096 0.217284
N4    N     N_3   0.969190 0.716442 0.725981 -0.584367
H9    H     H_    0.026026 0.781487 0.767442 0.215677
H10   H     H_    0.923854 0.762502 0.682470 0.218519
C23   C     C_3   0.929140 0.271109 0.539654 -0.395157
C24   C     C_3   0.997444 0.193088 0.578445 -0.841529
H11   H     H_    0.034376 0.155832 0.489139 0.243217
H12   H     H_    0.042225 0.254396 0.679867 0.253503
H13   H     H_    0.965879 0.108521 0.596086 0.244291
H14   H     H_    0.891132 0.302330 0.628609 0.212173
H15   H     H_    0.884958 0.208437 0.438086 0.198255
C25   C     C_3   0.071334 0.728830 0.462023 -0.394665
C26   C     C_3   0.003206 0.807247 0.423582 -0.842012
H16   H     H_    0.958311 0.746174 0.322205 0.254408
H17   H     H_    0.966396 0.844617 0.513038 0.244410
H18   H     H_    0.034915 0.891755 0.406008 0.243150
H19   H     H_    0.115638 0.791265 0.563555 0.198526
H20   H     H_    0.109251 0.697530 0.372945 0.214576
N5    N     N_3   0.403133 0.861683 0.395309 -0.568809
H21   H     H_    0.352315 0.917270 0.412651 0.205564
H22   H     H_    0.415180 0.845676 0.290905 0.222586
N6    N     N_3   0.576095 0.142661 0.639211 -0.602931
H23   H     H_    0.548886 0.208507 0.719831 0.242617
H24   H     H_    0.624171 0.190626 0.607268 0.233724
C27   C     C_3   0.407490 0.398806 0.831653 -0.336710
C28   C     C_3   0.325166 0.458557 0.866378 -0.832628
H25   H     H_    0.317492 0.475689 0.979954 0.242771
H26   H     H_    0.326076 0.553202 0.851353 0.271222
H27   H     H_    0.268489 0.391407 0.792421 0.233036
H28   H     H_    0.404903 0.363930 0.714945 0.257814
H29   H     H_    0.407148 0.305304 0.848804 0.134412
C29   C     C_3   0.580353 0.623657 0.173199 -0.319834
C30   C     C_3   0.564088 0.758914 0.173144 -0.861187
H30   H     H_    0.611765 0.795409 0.120287 0.231363
H31   H     H_    0.498672 0.757191 0.115312 0.254443
H32   H     H_    0.572185 0.830475 0.286154 0.254639
H33   H     H_    0.595886 0.634567 0.286011 0.259334
H34   H     H_    0.640968 0.597902 0.132708 0.142548

loop_
_geom_bond_atom_site_label_1
_geom_bond_atom_site_label_2
_ccdc_geom_bond_type
C6    N2    D    
C26   H16   S    
C1    C21   S    
N3    H7    S    
C1    O1    A    
C25   H20   S    
C3    N6    S    
H5    N2    S    
H6    N1    S    
C10   C17   S    
Cu1   O8    S    
Cu2   O7    S    
C4    C22   D    
C27   H28   S    
C5    C29   S    
N5    H22   S    
C24   H13   S    
C11   C17   S    
C28   H25   S    
Cu1   O1    S    
C2    C22   S    
Cu2   O6    S    
Cu1   Cu2   S    
C27   H29   S    
C23   H15   S    
C2    O2    A    
C24   H12   S    
C29   H34   S    
N3    H8    S    
C8    O6    A    
N4    H10   S    
C25   H19   S    
Cu2   O3    S    
C29   C30   S    
C13   C19   T    
C27   C28   S    
C14   C20   T    
C15   H2    S    
Cu1   O5    S    
C4    N5    S    
Cu2   O2    S    
N6    H24   S    
C30   H30   S    
C9    C11   S    
C11   C16   S    
C23   C24   S    
C12   C15   S    
C7    O5    A    
C30   H31   S    
C10   C12   S    
C16   C18   S    
C24   H11   S    
C21   H4    S    
C9    C23   S    
C22   H3    S    
C26   H17   S    
C3    C21   D    
C3    C4    S    
N4    H9    S    
C1    O3    A    
C2    O4    A    
C16   H1    S    
C15   C17   S    
C25   C26   S    
C6    C27   S    
C8    C14   S    
C23   H14   S    
C29   H33   S    
N6    H23   S    
C9    C15   S    
Cu2   N1    S    
C12   N4    S    
C10   C16   S    
Cu1   N2    S    
C5    C6    S    
C28   H27   S    
C17   C19   S    
C11   N3    S    
C18   C20   S    
N5    H21   S    
C10   C25   S    
C30   H32   S    
C9    C18   S    
C7    C13   S    
C28   H26   S    
Cu1   O4    S    
C26   H18   S    
C12   C18   S    
C7    O7    A    
C8    O8    A    
C5    N1    D    
