data_mof_unit_1827.cif
_audit_creation_date              2012-10-26T19:03:19-0400
_audit_creation_method            fapswitch 2.2
_symmetry_space_group_name_H-M    P1
_symmetry_Int_Tables_number       1
_space_group_crystal_system       triclinic
_cell_length_a                    10.804623
_cell_length_b                    13.064475
_cell_length_c                    11.658079
_cell_angle_alpha                 99.085192
_cell_angle_beta                  93.926177
_cell_angle_gamma                 89.682605
_cell_volume                      1621.13458114

loop_
_atom_site_label
_atom_site_type_symbol
_atom_type_description
_atom_site_fract_x
_atom_site_fract_y
_atom_site_fract_z
_atom_type_partial_charge
Br1   Br    Br    0.308650 0.800569 0.354243 -0.417610
Br2   Br    Br    0.417668 0.952005 0.191891 -0.423523
C1    C     C_R   0.501102 0.299065 0.479921 0.524298
C2    C     C_R   0.465534 0.127324 0.362465 -0.112491
C3    C     C_R   0.545283 0.134049 0.564071 0.022741
C4    C     C_R   0.262511 0.495970 0.499866 0.552678
C5    C     C_R   0.550032 0.024562 0.545485 0.028478
C6    C     C_R   0.484135 0.968955 0.445032 0.030244
C7    C     C_R   0.453153 0.864379 0.444881 0.174380
C8    C     C_R   0.593288 0.862936 0.616977 -0.178227
C9    C     C_R   0.615338 0.968240 0.625192 0.043166
C10   C     C_R   0.390097 0.398141 0.022206 -0.143473
C11   C     C_R   0.399617 0.408447 0.144432 0.061669
C12   C     C_R   0.071466 0.421955 0.565473 0.025695
C13   C     C_R   0.546346 0.544579 0.156857 0.079093
C14   C     C_R   0.539748 0.537074 0.034057 0.013584
C15   C     C_R   0.460576 0.462729 0.965960 0.016055
C16   C     C_R   0.499955 0.700218 0.520354 0.588077
C17   C     C_R   0.454006 0.455203 0.843193 0.064449
C18   C     C_R   0.600432 0.591514 0.855550 0.060759
C19   C     C_R   0.610161 0.601684 0.977763 -0.147904
C20   C     C_R   0.737587 0.495149 0.499432 0.536238
C21   C     C_R   0.140452 0.353545 0.627766 -0.102488
C22   C     C_R   0.081819 0.291919 0.695045 -0.108480
C23   C     C_R   0.129006 0.487619 0.499115 0.002466
C24   C     C_R   0.953572 0.294049 0.698079 -0.090876
C25   C     C_R   0.883087 0.356186 0.632066 -0.092527
C26   C     C_R   0.940587 0.422405 0.566372 0.028270
C27   C     C_2   0.720344 0.011036 0.706745 0.269008
C28   C     C_2   0.567641 0.191849 0.684244 0.284179
C29   C     C_R   0.058304 0.546896 0.429520 -0.134221
C30   C     C_R   0.930653 0.546221 0.428955 -0.144447
C31   C     C_R   0.871391 0.486910 0.498688 0.004666
C32   C     C_R   0.511313 0.811743 0.529668 -0.000324
C33   C     C_R   0.504499 0.185507 0.469938 -0.063913
C34   C     C_R   0.452666 0.020579 0.349423 0.190217
Cu1   Cu    Cu3+1 0.509250 0.507730 0.615930 0.944946
Cu2   Cu    Cu3+1 0.490750 0.492270 0.384070 0.989639
H1    H     H_    0.102420 0.596078 0.377408 0.172388
H2    H     H_    0.136029 0.241282 0.743771 0.140974
H3    H     H_    0.908368 0.246127 0.750448 0.175378
H4    H     H_    0.783750 0.350164 0.632132 0.132655
H5    H     H_    0.877881 0.594871 0.376402 0.136317
H6    H     H_    0.644434 0.819403 0.676480 0.116533
H7    H     H_    0.739819 0.981052 0.787770 0.123857
H8    H     H_    0.632038 0.256445 0.702596 0.129598
H9    H     H_    0.440883 0.165261 0.287941 0.168668
H10   H     H_    0.393397 0.398298 0.790022 0.126393
H11   H     H_    0.654875 0.641729 0.812957 0.132349
H12   H     H_    0.328206 0.340137 0.972220 0.116009
H13   H     H_    0.672075 0.659680 0.027690 0.113450
H14   H     H_    0.345102 0.358270 0.187006 0.133536
H15   H     H_    0.607342 0.601218 0.210157 0.128986
H16   H     H_    0.239569 0.345116 0.623824 0.137292
N1    N     N_R   0.523180 0.519350 0.790130 -0.239694
N2    N     N_R   0.476820 0.480650 0.209890 -0.230106
O1    O     O_R   0.506570 0.354460 0.582000 -0.539779
O2    O     O_2   0.513846 0.166553 0.764280 -0.511726
O3    O     O_R   0.490940 0.341410 0.386200 -0.506923
O4    O     O_R   0.327470 0.506530 0.597920 -0.502892
O5    O     O_R   0.311840 0.493480 0.402120 -0.492617
O6    O     O_R   0.509060 0.658590 0.613800 -0.502721
O7    O     O_R   0.493430 0.645540 0.418000 -0.467109
O8    O     O_R   0.688160 0.506520 0.597880 -0.521636
O9    O     O_R   0.672530 0.493470 0.402080 -0.507116
O10   O     O_2   0.790827 0.074932 0.680649 -0.536558

loop_
_geom_bond_atom_site_label_1
_geom_bond_atom_site_label_2
_ccdc_geom_bond_type
C10   C15   A    
C12   C21   A    
C10   H12   S    
C21   C22   A    
C2    C34   A    
C20   O9    A    
C23   C29   A    
C18   H11   S    
C17   N1    A    
C11   H14   S    
C28   H8    S    
C29   C30   A    
C29   H1    S    
Cu2   O9    S    
C1    C33   S    
C13   H15   S    
Cu2   O5    S    
C12   C26   A    
C13   N2    A    
C11   N2    A    
Cu1   O6    S    
C6    C7    A    
C2    C33   A    
Cu2   N2    S    
C5    C6    A    
C8    C32   A    
Cu1   O4    S    
C30   C31   A    
C5    C9    A    
C16   C32   S    
C25   H4    S    
C24   C25   A    
C14   C19   A    
C18   N1    A    
C13   C14   A    
C3    C33   A    
C4    O5    A    
C22   H2    S    
Cu1   Cu2   S    
C22   C24   A    
C26   C31   A    
Cu2   O7    S    
C12   C23   A    
C7    C32   A    
C16   O7    A    
C4    C23   S    
C8    C9    A    
C20   O8    A    
C27   O10   D    
Cu1   N1    S    
C4    O4    A    
C19   H13   S    
Cu1   O8    S    
Br1   C7    S    
C10   C11   A    
C9    C27   S    
C21   H16   S    
C3    C28   S    
C6    C34   A    
Br2   C34   S    
C25   C26   A    
C3    C5    A    
C20   C31   S    
C17   H10   S    
C16   O6    A    
C15   C17   A    
C18   C19   A    
C28   O2    D    
C8    H6    S    
C30   H5    S    
Cu1   O1    S    
Cu2   O3    S    
C24   H3    S    
C27   H7    S    
C14   C15   A    
C1    O1    A    
C2    H9    S    
C1    O3    A    
