data_mof_unit_4801.cif
_audit_creation_date              2013-03-05T16:02:40-0500
_audit_creation_method            fapswitch 2.2
_symmetry_space_group_name_H-M    P1
_symmetry_Int_Tables_number       1
_space_group_crystal_system       triclinic
_cell_length_a                    6.953478
_cell_length_b                    17.34917
_cell_length_c                    18.743913
_cell_angle_alpha                 106.310275
_cell_angle_beta                  89.730834
_cell_angle_gamma                 90.518532
_cell_volume                      2170.11387456

loop_
_atom_site_label
_atom_site_type_symbol
_atom_site_description
_atom_site_fract_x
_atom_site_fract_y
_atom_site_fract_z
_atom_type_partial_charge
O1    O     O_R   0.494360 0.415680 0.413760 -0.586935
O2    O     O_R   0.818810 0.432910 0.557230 -0.576737
O3    O     O_R   0.994290 0.584320 0.586240 -0.586100
C1    C     C_R   0.649831 0.416002 0.580653 0.955002
O4    O     O_R   0.823740 0.406440 0.412520 -0.588890
O5    O     O_R   0.999250 0.557660 0.440500 -0.573218
C2    C     C_R   0.654766 0.383671 0.384869 0.939738
O6    O     O_R   0.489400 0.442340 0.559500 -0.571396
O7    O     O_3   0.662500 0.549650 0.509350 -0.262856
V1    V     V_3+5 0.935340 0.490790 0.498270 1.151851
O8    O     O_R   0.329270 0.567090 0.442770 -0.573473
C3    C     C_R   0.161150 0.584013 0.419356 0.952006
O9    O     O_R   0.324340 0.593560 0.587480 -0.587301
C4    C     C_R   0.155409 0.616256 0.615199 0.937814
V2    V     V_3+5 0.435970 0.509210 0.501730 1.154498
O10   O     O_3   0.158940 0.450350 0.490650 -0.265292
H1    H     H_    0.381834 0.864847 0.564924 0.115925
C5    C     C_R   0.016258 0.594442 0.754152 -0.226162
C6    C     C_R   0.948152 0.581473 0.819828 -0.229193
C7    C     C_R   0.936477 0.644889 0.884997 0.415975
C8    C     C_R   0.993988 0.722028 0.883184 -0.291140
C9    C     C_R   0.061257 0.737075 0.816884 0.077765
C10   C     C_R   0.073138 0.671877 0.751036 0.136365
C11   C     C_R   0.120539 0.815307 0.815957 -0.282592
C12   C     C_R   0.192576 0.827990 0.749115 0.114563
C13   C     C_R   0.204624 0.762665 0.683242 0.115657
C14   C     C_R   0.144970 0.684532 0.684126 -0.302646
C15   C     C_R   0.249804 0.905548 0.746007 -0.170549
C16   C     C_R   0.318573 0.918211 0.680264 -0.114575
C17   C     C_R   0.329828 0.854556 0.616033 -0.110201
C18   C     C_R   0.272713 0.777713 0.617068 -0.157360
H2    H     H_    0.025185 0.542601 0.706098 0.140284
H3    H     H_    0.987394 0.769938 0.934417 0.157861
H4    H     H_    0.240704 0.957476 0.793966 0.115523
H5    H     H_    0.361936 0.977923 0.679046 0.117841
H6    H     H_    0.281245 0.730658 0.565226 0.106643
C19   C     C_1   0.111774 0.863821 0.132533 -0.280761
C20   C     C_1   0.119202 0.821199 0.176053 0.107389
C21   C     C_1   0.128507 0.770940 0.227911 0.018536
C22   C     C_1   0.136477 0.728646 0.271715 0.004516
C23   C     C_1   0.145833 0.678461 0.323640 0.063780
C24   C     C_1   0.153314 0.635940 0.367251 -0.328301
C25   C     C_1   0.641269 0.364119 0.632728 -0.327194
C26   C     C_1   0.637127 0.321552 0.676322 0.062864
C27   C     C_1   0.633783 0.271297 0.728205 0.000042
C28   C     C_1   0.631289 0.228939 0.771997 -0.000570
C29   C     C_1   0.627946 0.178654 0.823854 0.062403
C30   C     C_1   0.623807 0.136041 0.867409 -0.325810
H7    H     H_    0.326931 0.153556 0.437172 0.116010
C31   C     C_R   0.813744 0.395489 0.245125 -0.176474
C32   C     C_R   0.890805 0.403356 0.178782 -0.094778
C33   C     C_R   0.878759 0.339948 0.114358 -0.088288
C34   C     C_R   0.789785 0.268144 0.115796 -0.162589
C35   C     C_R   0.712588 0.257804 0.182591 0.118427
C36   C     C_R   0.724576 0.322914 0.248672 0.120193
C37   C     C_R   0.620595 0.184848 0.183885 -0.316070
C38   C     C_R   0.540112 0.177187 0.251327 0.119664
C39   C     C_R   0.552095 0.242298 0.317408 0.117504
C40   C     C_R   0.644180 0.315237 0.316124 -0.316548
C41   C     C_R   0.450818 0.104632 0.254862 -0.168496
C42   C     C_R   0.373557 0.096799 0.321184 -0.118750
C43   C     C_R   0.385590 0.160209 0.385607 -0.110705
C44   C     C_R   0.474756 0.231979 0.384189 -0.153443
H8    H     H_    0.823685 0.447299 0.293182 0.122359
H9    H     H_    0.937259 0.346627 0.062779 0.136027
H10   H     H_    0.780825 0.221409 0.063736 0.112479
H11   H     H_    0.440885 0.052817 0.206811 0.117637
H12   H     H_    0.305462 0.040911 0.322699 0.115667
H13   H     H_    0.483708 0.278710 0.436251 0.108327
O11   O     O_R   0.775690 0.057750 0.940570 -0.574042
O12   O     O_R   0.441200 0.093570 0.087490 -0.589079
O13   O     O_R   0.265840 0.942320 0.059480 -0.574411
C45   C     C_R   0.610129 0.116391 0.115155 0.938093
O14   O     O_R   0.446270 0.067110 0.942790 -0.576978
O15   O     O_R   0.270950 0.915660 0.913750 -0.584656
C46   C     C_R   0.615252 0.084086 0.919420 0.950880
O16   O     O_R   0.770580 0.084400 0.086300 -0.590498
O17   O     O_3   0.602640 0.950400 0.990690 -0.254296
V3    V     V_3+5 0.329740 0.009200 0.001730 1.159267
O18   O     O_R   0.940900 0.906360 0.912450 -0.586950
C47   C     C_R   0.109894 0.883687 0.884780 0.939174
O19   O     O_R   0.935830 0.932820 0.057160 -0.564230
C48   C     C_R   0.103951 0.915871 0.080543 0.952691
V4    V     V_3+5 0.829130 0.990680 0.998180 1.168863
O20   O     O_3   0.106100 0.049590 0.009310 -0.268604
H14   H     H_    0.958754 0.459267 0.177252 0.137078
H15   H     H_    0.905776 0.521206 0.819616 0.174263
N1    N     N_R   0.867917 0.630970 0.953018 0.239881
O21   O     O_R   0.818536 0.559065 0.955049 -0.395626
O22   O     O_R   0.854320 0.689967 0.013621 -0.404557

loop_
_geom_bond_atom_site_label_1
_geom_bond_atom_site_label_2
_geom_bond_distance
_ccdc_geom_bond_type
C36   C40   1.419628 A    
C31   H8    1.081117 S    
C23   C24   1.246976 T    
C30   C46   1.502827 S    
C6    C7    1.398216 A    
C1    O6    1.313627 A    
O12   V3    1.999203 S    
C34   C35   1.416299 A    
C26   C27   1.477198 S    
C12   C15   1.416465 A    
C13   C14   1.418521 A    
C16   C17   1.388919 A    
O14   C46   1.311730 A    
C15   C16   1.392865 A    
O13   V3    1.845828 S    
C6    H15   1.082685 S    
O5    C3    1.312147 A    
C17   C18   1.392949 A    
C8    H3    1.080344 S    
V2    O10   2.155383 S    
C37   C38   1.419608 A    
C5    C6    1.392287 A    
C3    C24   1.504654 S    
C35   C36   1.424974 A    
O8    V2    1.850589 S    
C44   H13   1.081087 S    
C41   H11   1.081106 S    
O1    V2    2.004889 S    
C10   C14   1.420351 A    
C4    C14   1.489503 S    
O11   V4    1.837245 S    
O7    V1    2.144175 S    
O18   V4    2.003676 S    
C15   H4    1.081372 S    
C13   C18   1.415957 A    
O9    C4    1.300978 A    
H1    C17   1.082604 S    
C37   C45   1.488424 S    
C32   H14   1.082678 S    
C2    C40   1.488430 S    
C9    C10   1.423445 A    
C35   C37   1.419243 A    
C32   C33   1.388715 A    
C11   C12   1.419860 A    
C21   C22   1.247052 T    
O4    C2    1.299043 A    
O17   V3    2.144101 S    
O15   C47   1.296929 A    
C38   C41   1.416582 A    
O16   V4    2.008700 S    
C39   C40   1.419228 A    
C27   C28   1.246007 T    
C5    C10   1.413834 A    
C41   C42   1.392755 A    
O2    C1    1.311738 A    
C11   C47   1.489329 S    
C19   C20   1.246915 T    
C29   C30   1.245908 T    
C7    C8    1.402812 A    
C43   C44   1.392837 A    
C31   C32   1.392788 A    
V4    O20   2.155361 S    
C34   H10   1.081095 S    
O3    C4    1.297048 A    
C22   C23   1.478914 S    
N1    O22   1.301766 A    
O6    V2    1.836755 S    
O19   V4    1.850622 S    
O14   V3    1.867289 S    
O9    V2    2.003783 S    
C25   C26   1.245904 T    
O11   C46   1.313624 A    
C9    C11   1.419664 A    
C5    H2    1.081453 S    
O2    V1    1.867202 S    
V3    O20   1.700353 S    
C33   C34   1.392870 A    
O12   C45   1.299016 A    
C39   C44   1.416293 A    
C28   C29   1.477207 S    
H7    C43   1.082574 S    
O1    C2    1.297047 A    
O18   C47   1.301009 A    
O5    V1    1.845994 S    
O8    C3    1.314842 A    
C1    C25   1.502822 S    
C16   H5    1.082689 S    
C31   C36   1.416587 A    
C12   C13   1.425048 A    
O4    V1    1.999287 S    
O3    V1    2.002857 S    
V1    O10   1.700414 S    
C42   H12   1.082667 S    
C38   C39   1.424967 A    
C20   C21   1.478840 S    
C7    N1    1.440935 S    
O7    V2    1.708694 S    
C42   C43   1.388705 A    
O13   C48   1.312194 A    
O17   V4    1.707457 S    
N1    O21   1.301693 A    
O19   C48   1.314770 A    
C45   O16   1.297025 A    
C18   H6    1.081191 S    
C19   C48   1.504554 S    
C8    C9    1.416274 A    
O15   V3    2.002841 S    
C33   H9    1.082584 S    
