data_mof_unit_1284.cif
_audit_creation_date              2012-12-10T16:50:07-0500
_audit_creation_method            fapswitch 2.2
_symmetry_space_group_name_H-M    P1
_symmetry_Int_Tables_number       1
_space_group_crystal_system       triclinic
_cell_length_a                    23.482854
_cell_length_b                    8.677782
_cell_length_c                    7.427708
_cell_angle_alpha                 103.055327
_cell_angle_beta                  93.82193
_cell_angle_gamma                 92.43734
_cell_volume                      1468.62501556

loop_
_atom_site_label
_atom_site_type_symbol
_atom_type_description
_atom_site_fract_x
_atom_site_fract_y
_atom_site_fract_z
_atom_type_partial_charge
C1    C     C_R   0.498363 0.199610 0.453127 0.880537
C2    C     C_R   0.501555 0.800380 0.546869 0.897788
C3    C     C_R   0.243827 0.594714 0.658320 -0.199932
C4    C     C_R   0.757536 0.461887 0.321837 -0.197571
C5    C     C_R   0.303707 0.594028 0.661881 0.400733
C6    C     C_R   0.697791 0.457954 0.320298 0.407273
C7    C     C_R   0.328841 0.501503 0.509494 -0.124182
C8    C     C_R   0.671798 0.496215 0.490280 -0.145635
C9    C     C_R   0.294092 0.408187 0.360044 -0.308296
C10   C     C_R   0.706525 0.530537 0.657970 -0.287779
C11   C     C_R   0.234881 0.406088 0.361114 -0.100599
C12   C     C_R   0.765723 0.529623 0.657483 -0.101225
C13   C     C_R   0.209668 0.499451 0.509823 0.304445
C14   C     C_R   0.791306 0.496208 0.489728 0.305351
C15   C     C_2   0.497816 0.031717 0.426691 -0.373628
C16   C     C_2   0.501945 0.968247 0.573272 -0.361777
C17   C     C_R   0.391126 0.501292 0.503260 0.838533
C18   C     C_R   0.609110 0.498846 0.496629 0.814768
C19   C     C_R   0.881978 0.622419 0.452112 0.545083
C20   C     C_R   0.118884 0.372608 0.544544 0.539850
C21   C     C_R   0.879277 0.369874 0.530643 0.540380
C22   C     C_R   0.121698 0.626125 0.468469 0.544741
C23   C     C_R   0.938992 0.367756 0.534600 -0.014167
C24   C     C_R   0.061949 0.627948 0.463632 -0.015735
C25   C     C_R   0.970385 0.497243 0.496666 -0.015467
C26   C     C_R   0.030524 0.498142 0.500709 -0.015331
C27   C     C_R   0.941783 0.625877 0.454855 -0.016629
C28   C     C_R   0.059096 0.369215 0.541807 -0.014426
C29   C     C_R   0.967910 0.239938 0.575662 -0.167308
C30   C     C_R   0.033014 0.755600 0.422150 -0.167410
C31   C     C_R   0.027369 0.240603 0.579088 -0.175099
C32   C     C_R   0.973520 0.754520 0.417658 -0.174560
Cu1   Cu    Cu3+1 0.506340 0.517380 0.684380 0.956384
Cu2   Cu    Cu3+1 0.493660 0.482620 0.315620 0.945554
H1    H     H_    0.944730 0.139146 0.605440 0.192282
H2    H     H_    0.056207 0.856529 0.392742 0.191566
H3    H     H_    0.048349 0.140286 0.611361 0.186664
H4    H     H_    0.952530 0.854690 0.385020 0.186668
H5    H     H_    0.223607 0.671135 0.768831 0.152508
H6    H     H_    0.777711 0.436504 0.192230 0.150111
H7    H     H_    0.312841 0.335913 0.242751 0.174406
H8    H     H_    0.688012 0.558744 0.790357 0.208682
H9    H     H_    0.208472 0.333289 0.245401 0.160326
H10   H     H_    0.791858 0.556033 0.787671 0.157392
H11   H     H_    0.494143 0.960071 0.285490 0.173932
H12   H     H_    0.505558 0.039899 0.714460 0.174461
H13   H     H_    0.454778 0.379833 0.948948 0.224211
H14   H     H_    0.545219 0.620170 0.051061 0.241363
N1    N     N_R   0.852221 0.495947 0.490118 -0.461480
N2    N     N_R   0.148716 0.499694 0.508217 -0.461784
N3    N     N_2   0.484110 0.456420 0.038520 -0.231919
N4    N     N_2   0.515890 0.543580 0.961480 -0.218603
O1    O     O_R   0.504120 0.286130 0.619770 -0.592087
O2    O     O_R   0.495880 0.713870 0.380230 -0.595646
O3    O     O_R   0.493410 0.256770 0.308360 -0.589194
O4    O     O_R   0.506590 0.743230 0.691640 -0.579895
O5    O     O_R   0.423230 0.514630 0.655730 -0.557558
O6    O     O_R   0.576770 0.485370 0.344270 -0.538970
O7    O     O_R   0.412530 0.485280 0.344320 -0.600784
O8    O     O_R   0.587470 0.514720 0.655680 -0.588177
O9    O     O_2   0.853750 0.744671 0.413185 -0.519651
O10   O     O_2   0.147082 0.250417 0.583807 -0.522313
O11   O     O_2   0.848398 0.246965 0.566367 -0.522312
O12   O     O_2   0.152590 0.748931 0.432572 -0.519122
O13   O     O_3   0.337715 0.699199 0.799212 -0.575492
C33   C     C_3   0.332414 0.659648 0.971911 0.077247
H15   H     H_    0.343395 0.534872 0.965389 0.146313
H16   H     H_    0.288465 0.676285 0.017345 0.148230
C34   C     C_3   0.373540 0.768733 0.117089 -0.682565
H17   H     H_    0.364325 0.894373 0.124260 0.233145
H18   H     H_    0.368658 0.743194 0.255240 0.209481
H19   H     H_    0.418236 0.750601 0.080619 0.253603
O14   O     O_3   0.665277 0.423067 0.152395 -0.573544
C35   C     C_3   0.661705 0.257124 0.082804 0.064097
H20   H     H_    0.644040 0.194974 0.184809 0.138412
H21   H     H_    0.704473 0.213415 0.048465 0.153105
C36   C     C_3   0.621935 0.215452 0.906472 -0.708146
H22   H     H_    0.638681 0.273141 0.800152 0.248587
H23   H     H_    0.618763 0.085091 0.850961 0.185485
H24   H     H_    0.578645 0.255837 0.936593 0.262299

loop_
_geom_bond_atom_site_label_1
_geom_bond_atom_site_label_2
_ccdc_geom_bond_type
C33   H16   S    
C10   H8    S    
O14   C35   S    
C21   N1    A    
C36   H22   S    
Cu1   N4    S    
Cu2   N3    S    
C35   H21   S    
C23   C29   A    
C24   C26   A    
C33   C34   S    
C15   C16   D    
C34   H18   S    
C1    O1    A    
C20   N2    A    
C18   O6    A    
C4    H6    S    
C7    C17   S    
C35   C36   S    
C11   H9    S    
C1    C15   S    
C32   H4    S    
C2    C16   S    
C3    C13   A    
C22   N2    A    
Cu1   O4    S    
C33   H15   S    
C3    H5    S    
Cu2   O3    S    
C4    C14   A    
C36   H23   S    
Cu1   O1    S    
C35   H20   S    
N3    N4    D    
C5    O13   S    
C2    O2    A    
C16   H12   S    
C5    C7    A    
C6    C8    A    
C20   C28   A    
C25   C26   A    
C8    C18   S    
C31   H3    S    
C34   H19   S    
C19   N1    A    
Cu1   Cu2   S    
C9    C11   A    
C10   C12   A    
C17   O7    A    
C18   O8    A    
C12   C14   A    
Cu2   O2    S    
Cu1   O8    S    
C21   C23   A    
Cu2   O7    S    
C22   C24   A    
C4    C6    A    
C15   H11   S    
C19   C27   A    
C6    O14   S    
C36   H24   S    
C7    C9    A    
Cu1   O5    S    
C27   C32   A    
C26   C28   A    
C28   C31   A    
C3    C5    A    
H13   N3    S    
C25   C27   A    
C29   H1    S    
C9    H7    S    
C30   H2    S    
C1    O3    A    
C29   C31   A    
C2    O4    A    
C30   C32   A    
C11   C13   A    
C19   O9    S    
C23   C25   A    
C20   O10   S    
C34   H17   S    
C24   C30   A    
C21   O11   S    
C22   O12   S    
C13   N2    S    
C14   N1    S    
H14   N4    S    
C8    C10   A    
O13   C33   S    
Cu2   O6    S    
C12   H10   S    
C17   O5    A    
