data_mof_unit_225.cif
_audit_creation_date              2012-12-10T19:13:32-0500
_audit_creation_method            fapswitch 2.2
_symmetry_space_group_name_H-M    P1
_symmetry_Int_Tables_number       1
_space_group_crystal_system       triclinic
_cell_length_a                    9.759711
_cell_length_b                    10.619325
_cell_length_c                    16.49668
_cell_angle_alpha                 89.406957
_cell_angle_beta                  85.773532
_cell_angle_gamma                 89.946407
_cell_volume                      1705.00043208

loop_
_atom_site_label
_atom_site_type_symbol
_atom_type_description
_atom_site_fract_x
_atom_site_fract_y
_atom_site_fract_z
_atom_type_partial_charge
C1    C     C_R   0.500370 0.742241 0.498062 0.858933
C2    C     C_R   0.528104 0.526332 0.258693 -0.035373
C3    C     C_3   0.448320 0.925971 0.581986 -0.465285
C4    C     C_R   0.481289 0.505131 0.653513 0.874423
C5    C     C_3   0.445895 0.071110 0.582237 0.342950
C6    C     C_3   0.649446 0.928365 0.476423 -0.407155
C7    C     C_3   0.407537 0.928873 0.431907 -0.407781
C8    C     C_3   0.501228 0.878586 0.496977 0.129406
C9    C     C_3   0.501304 0.121184 0.497122 0.100938
C10   C     C_3   0.649395 0.071382 0.475949 -0.352788
C11   C     C_3   0.408197 0.073301 0.431604 -0.511949
C12   C     C_R   0.367541 0.501386 0.792201 -0.199313
C13   C     C_3   0.922778 0.621173 0.467763 -0.300741
C14   C     C_3   0.082848 0.627505 0.476621 -0.290675
C15   C     C_3   0.909029 0.481701 0.586861 0.031799
C16   C     C_R   0.500548 0.257788 0.497726 0.894134
C17   C     C_3   0.926993 0.402377 0.447246 -0.229712
C18   C     C_3   0.073559 0.472739 0.583719 -0.065811
C19   C     C_3   0.088643 0.411455 0.441895 -0.205170
C20   C     C_R   0.518459 0.502449 0.346071 0.845090
C21   C     C_R   0.468324 0.550388 0.736330 -0.037867
C22   C     C_R   0.541476 0.658465 0.754998 -0.273495
C23   C     C_R   0.412169 0.558476 0.135990 -0.154783
C24   C     C_R   0.520479 0.714487 0.830991 0.037563
C25   C     C_R   0.424729 0.658888 0.889047 0.148226
C26   C     C_R   0.345917 0.555415 0.868284 -0.177761
C27   C     C_3   0.450898 0.131251 0.717452 0.067596
C28   C     C_3   0.543437 0.179537 0.780497 -0.731551
C29   C     C_2   0.865079 0.594098 0.640212 0.239329
C30   C     C_2   0.839297 0.368043 0.630834 0.517896
C31   C     C_2   0.128166 0.351191 0.619148 0.482466
C32   C     C_2   0.599181 0.830261 0.846520 0.360325
C33   C     C_R   0.409955 0.516945 0.215931 -0.207817
C34   C     C_R   0.650407 0.573155 0.219455 -0.209811
C35   C     C_R   0.652457 0.615178 0.139195 -0.160453
C36   C     C_R   0.532435 0.611516 0.097847 0.177234
C37   C     C_2   0.426008 0.684290 0.975573 -0.128627
C38   C     C_2   0.538478 0.650721 0.012311 -0.179582
H1    H     H_    0.611205 0.702157 0.709131 0.133256
H2    H     H_    0.300967 0.107815 0.443753 0.204338
H3    H     H_    0.314986 0.479500 0.244673 0.141907
H4    H     H_    0.446321 0.109238 0.370422 0.180068
H5    H     H_    0.690514 0.893682 0.415920 0.170265
H6    H     H_    0.689349 0.107064 0.415014 0.150564
H7    H     H_    0.873018 0.704892 0.496248 0.146846
H8    H     H_    0.902836 0.631485 0.402400 0.156445
H9    H     H_    0.136309 0.659232 0.418083 0.162997
H10   H     H_    0.104889 0.700207 0.521997 0.160353
H11   H     H_    0.112006 0.545343 0.624652 0.133905
H12   H     H_    0.747027 0.652296 0.109732 0.132906
H13   H     H_    0.893860 0.306291 0.465611 0.207983
H14   H     H_    0.742912 0.581465 0.251485 0.144101
H15   H     H_    0.891046 0.413706 0.385128 0.133584
H16   H     H_    0.125339 0.440796 0.379031 0.125977
H17   H     H_    0.134960 0.317333 0.449206 0.199003
H18   H     H_    0.634958 0.635958 0.976234 0.159476
H19   H     H_    0.273302 0.511693 0.912858 0.137283
H20   H     H_    0.319994 0.546960 0.104227 0.119184
H21   H     H_    0.307861 0.420059 0.777684 0.127466
H22   H     H_    0.328160 0.698089 0.010022 0.131818
H23   H     H_    0.515614 0.889482 0.628589 0.178189
H24   H     H_    0.406691 0.039187 0.739074 0.154248
H25   H     H_    0.366765 0.200923 0.711784 0.128100
H26   H     H_    0.584516 0.273719 0.761817 0.234173
H27   H     H_    0.483882 0.187761 0.840207 0.215870
H28   H     H_    0.630441 0.113547 0.786736 0.268765
H29   H     H_    0.795888 0.665039 0.619465 0.121367
H30   H     H_    0.791401 0.377849 0.692041 0.073229
H31   H     H_    0.170714 0.353094 0.677885 0.019589
H32   H     H_    0.682176 0.860321 0.803206 0.085585
H33   H     H_    0.342852 0.889617 0.598536 0.148304
H34   H     H_    0.336715 0.102538 0.592283 0.112169
H35   H     H_    0.719276 0.894434 0.522470 0.184872
H36   H     H_    0.720546 0.103962 0.520815 0.264560
H37   H     H_    0.444381 0.893988 0.370709 0.174688
H38   H     H_    0.300170 0.894984 0.444997 0.185785
N1    N     N_3   0.861190 0.500250 0.501720 -0.083551
N2    N     N_3   0.138550 0.503270 0.501080 -0.071369
O1    O     O_R   0.383960 0.685090 0.500020 -0.627590
O2    O     O_2   0.902304 0.603279 0.709074 -0.617019
O3    O     O_2   0.840330 0.263235 0.601545 -0.569032
O4    O     O_2   0.119152 0.249890 0.585777 -0.596113
O5    O     O_2   0.570661 0.895141 0.906061 -0.567643
O6    O     O_R   0.616040 0.685320 0.499960 -0.652766
O7    O     O_R   0.370240 0.499890 0.615830 -0.633785
O8    O     O_R   0.602330 0.500120 0.615770 -0.639121
O9    O     O_R   0.383960 0.314680 0.500040 -0.624583
O10   O     O_R   0.616040 0.314910 0.499980 -0.590690
O11   O     O_R   0.397670 0.499880 0.384230 -0.625551
O12   O     O_R   0.629760 0.500110 0.384170 -0.627927
O13   O     O_3   0.528948 0.117656 0.642508 -0.596689
Zn1   Zn    Zn3+2 0.345040 0.499850 0.500040 0.919455
Zn2   Zn    Zn3+2 0.654960 0.500150 0.499960 0.919945

loop_
_geom_bond_atom_site_label_1
_geom_bond_atom_site_label_2
_ccdc_geom_bond_type
C23   H20   S    
C15   C18   S    
C1    C8    S    
C3    H33   S    
C35   C36   A    
C10   H6    S    
C17   H13   S    
C7    C8    S    
C1    O6    A    
C7    C11   S    
C31   O4    D    
C15   C30   S    
C21   C22   A    
O8    Zn2   S    
C9    C16   S    
C5    H34   S    
C13   H8    S    
C4    O8    A    
C11   H4    S    
C34   C35   A    
C25   C37   S    
C29   H29   S    
C12   H21   S    
C23   C33   A    
C16   O9    A    
C27   O13   S    
C9    C10   S    
O12   Zn2   S    
C2    C34   A    
C13   C14   S    
O7    Zn1   S    
C15   C29   S    
C3    H23   S    
C13   N1    S    
C2    C20   S    
C24   C25   A    
C3    C8    S    
C32   H32   S    
C7    H37   S    
C4    O7    A    
N2    Zn1   S    
C25   C26   A    
C20   O12   A    
C12   C21   A    
C12   C26   A    
C19   N2    S    
C28   H28   S    
C24   C32   S    
C5    C9    S    
C37   C38   D    
C27   H24   S    
C18   N2    S    
C35   H12   S    
C17   N1    S    
C5    O13   S    
O11   Zn1   S    
C9    C11   S    
O1    Zn1   S    
C7    H38   S    
C27   H25   S    
C28   H26   S    
C2    C33   A    
C6    H5    S    
C1    O1    A    
C22   C24   A    
C17   H15   S    
C19   H16   S    
C6    H35   S    
C19   H17   S    
C32   O5    D    
O10   Zn2   S    
C3    C5    S    
C6    C10   S    
C6    C8    S    
C14   H9    S    
C20   O11   A    
C34   H14   S    
C33   H3    S    
C30   O3    D    
C36   C38   S    
C28   H27   S    
C13   H7    S    
C4    C21   S    
C10   H36   S    
C15   N1    S    
C29   O2    D    
C22   H1    S    
N1    Zn2   S    
C17   C19   S    
O6    Zn2   S    
C14   N2    S    
C11   H2    S    
C26   H19   S    
C37   H22   S    
C31   H31   S    
C38   H18   S    
C23   C36   A    
C27   C28   S    
C16   O10   A    
C14   H10   S    
C18   C31   S    
O9    Zn1   S    
C30   H30   S    
C18   H11   S    
