data_mof_unit_3907.cif
_audit_creation_date              2012-12-11T16:30:29-0500
_audit_creation_method            fapswitch 2.2
_symmetry_space_group_name_H-M    P1
_symmetry_Int_Tables_number       1
_space_group_crystal_system       triclinic
_cell_length_a                    6.935009
_cell_length_b                    14.412837
_cell_length_c                    16.035345
_cell_angle_alpha                 90.000051
_cell_angle_beta                  89.923534
_cell_angle_gamma                 90.00054
_cell_volume                      1602.78188577

loop_
_atom_site_label
_atom_site_type_symbol
_atom_type_description
_atom_site_fract_x
_atom_site_fract_y
_atom_site_fract_z
_atom_type_partial_charge
O1    O     O_R   0.611670 0.415650 0.164070 -0.512164
O2    O     O_R   0.388330 0.915650 0.835930 -0.512166
O3    O     O_R   0.940950 0.405490 0.337780 -0.546269
O4    O     O_R   0.059050 0.905490 0.662220 -0.546267
O5    O     O_R   0.111350 0.584350 0.338470 -0.545040
O6    O     O_R   0.888650 0.084350 0.661530 -0.545036
C1    C     C_R   0.771658 0.382407 0.366515 0.624830
C2    C     C_R   0.228344 0.882385 0.633503 0.624830
O7    O     O_R   0.941380 0.404630 0.164680 -0.520645
O8    O     O_R   0.058620 0.904630 0.835320 -0.520643
O9    O     O_R   0.111780 0.583470 0.164130 -0.528464
O10   O     O_R   0.888220 0.083470 0.835870 -0.528459
C3    C     C_R   0.772424 0.382787 0.135929 0.731949
C4    C     C_R   0.227572 0.882794 0.864077 0.731956
O11   O     O_R   0.611240 0.416530 0.338400 -0.545128
O12   O     O_R   0.388760 0.916530 0.661600 -0.545114
O13   O     O_3   0.778020 0.558680 0.251290 -0.372265
O14   O     O_3   0.221980 0.058680 0.748710 -0.372271
V1    V     V_3+5 0.052840 0.489110 0.251260 1.450015
V2    V     V_3+5 0.947160 0.989110 0.748740 1.450037
O15   O     O_R   0.441500 0.594510 0.164760 -0.528825
O16   O     O_R   0.558500 0.094510 0.835240 -0.528836
C5    C     C_R   0.272877 0.614185 0.134238 0.795571
C6    C     C_R   0.727126 0.114194 0.865755 0.795538
O17   O     O_R   0.441080 0.595370 0.337860 -0.548147
O18   O     O_R   0.558920 0.095370 0.662140 -0.548146
C7    C     C_R   0.272252 0.617666 0.367234 0.623947
C8    C     C_R   0.727752 0.117694 0.632788 0.623949
V3    V     V_3+5 0.552850 0.510890 0.251270 1.443067
V4    V     V_3+5 0.447150 0.010890 0.748730 1.443074
O19   O     O_3   0.277800 0.441320 0.251250 -0.350929
O20   O     O_3   0.722200 0.941320 0.748750 -0.350916
C9    C     C_3   0.145073 0.648582 0.513285 -0.318325
C10   C     C_3   0.853829 0.148395 0.486536 -0.318365
H1    H     H_    0.996290 0.630596 0.492970 0.135954
H2    H     H_    0.002626 0.130071 0.506585 0.135814
H3    H     H_    0.213597 0.583476 0.535920 0.113519
H4    H     H_    0.784456 0.083450 0.464009 0.113519
C11   C     C_3   0.133931 0.720000 0.585930 -0.322247
C12   C     C_3   0.864951 0.219812 0.413890 -0.322276
H5    H     H_    0.199296 0.689311 0.642783 0.120981
H6    H     H_    0.798701 0.189286 0.357164 0.120950
H7    H     H_    0.980017 0.734778 0.600493 0.140411
H8    H     H_    0.018854 0.234250 0.399038 0.140294
H9    H     H_    0.015528 0.763719 0.384962 0.137826
H10   H     H_    0.985733 0.263192 0.614652 0.137971
H11   H     H_    0.992221 0.866657 0.493814 0.132087
H12   H     H_    0.009027 0.366084 0.505776 0.132259
C13   C     C_3   0.162156 0.779074 0.409457 -0.324400
C14   C     C_3   0.839023 0.278885 0.590423 -0.324276
C15   C     C_3   0.466000 0.714061 0.470914 -0.315873
C16   C     C_3   0.533946 0.214583 0.529505 -0.315787
C17   C     C_3   0.261780 0.688094 0.438406 0.126516
C18   C     C_3   0.738226 0.188139 0.561631 0.126457
H13   H     H_    0.554537 0.743267 0.419241 0.137360
H14   H     H_    0.446202 0.243959 0.581350 0.137201
H15   H     H_    0.541158 0.650755 0.493799 0.126806
H16   H     H_    0.457927 0.151465 0.506728 0.127010
C19   C     C_3   0.240248 0.811361 0.562847 0.121773
C20   C     C_3   0.759758 0.311402 0.437187 0.121792
C21   C     C_3   0.146735 0.850187 0.482167 -0.322269
C22   C     C_3   0.854459 0.349985 0.517703 -0.322277
C23   C     C_3   0.453636 0.786067 0.542320 -0.305791
C24   C     C_3   0.546320 0.286593 0.458106 -0.305784
H17   H     H_    0.525346 0.757403 0.598801 0.133640
H18   H     H_    0.473731 0.258120 0.401757 0.133811
H19   H     H_    0.534374 0.849576 0.523744 0.131410
H20   H     H_    0.466411 0.350282 0.476851 0.131174
H21   H     H_    0.247015 0.810493 0.357883 0.119935
H22   H     H_    0.754967 0.310482 0.642147 0.119859
H23   H     H_    0.219040 0.916072 0.463883 0.114612
H24   H     H_    0.783026 0.416038 0.536134 0.114569
H25   H     H_    0.371523 0.580560 0.745355 0.118323
H26   H     H_    0.628056 0.080566 0.254602 0.118306
C25   C     C_R   0.183598 0.936207 0.035972 -0.062140
C26   C     C_R   0.816436 0.436210 0.964041 -0.062121
C27   C     C_R   0.160005 0.964619 0.118316 -0.096770
C28   C     C_R   0.840032 0.464628 0.881700 -0.096767
C29   C     C_R   0.168371 0.900060 0.182447 -0.143862
C30   C     C_R   0.831670 0.400075 0.817565 -0.143798
C31   C     C_R   0.201554 0.806726 0.164665 -0.141313
C32   C     C_R   0.798482 0.306738 0.835339 -0.141292
C33   C     C_R   0.226228 0.775538 0.081503 0.066294
C34   C     C_R   0.773796 0.275545 0.918498 0.066278
C35   C     C_R   0.215351 0.841695 0.015983 0.104868
C36   C     C_R   0.784672 0.341697 0.984023 0.104890
C37   C     C_R   0.261359 0.680334 0.063536 -0.185339
C38   C     C_R   0.738645 0.180340 0.936458 -0.185330
C39   C     C_R   0.284229 0.650458 0.978811 0.010868
C40   C     C_R   0.715720 0.150462 0.021177 0.010887
C41   C     C_R   0.278318 0.718834 0.913891 0.051309
C42   C     C_R   0.721584 0.218836 0.086098 0.051301
C43   C     C_R   0.239191 0.813206 0.932346 -0.132922
C44   C     C_R   0.760791 0.313204 0.067655 -0.132937
C45   C     C_R   0.312240 0.555281 0.954499 0.205633
C46   C     C_R   0.687686 0.055284 0.045481 0.205630
C47   C     C_R   0.344685 0.532388 0.870971 -0.111315
C48   C     C_R   0.655124 0.032392 0.128999 -0.111330
C49   C     C_R   0.346051 0.599832 0.809693 -0.202194
C50   C     C_R   0.653652 0.099838 0.190275 -0.202149
C51   C     C_R   0.311151 0.691620 0.830357 -0.136308
C52   C     C_R   0.688607 0.191626 0.169621 -0.136313
H27   H     H_    0.176453 0.989213 0.988271 0.115624
H28   H     H_    0.823578 0.489212 0.011746 0.115625
H29   H     H_    0.135023 0.037112 0.132375 0.128222
H30   H     H_    0.865015 0.537123 0.867647 0.128223
H31   H     H_    0.149438 0.922511 0.246340 0.107832
H32   H     H_    0.850610 0.422535 0.753676 0.107757
H33   H     H_    0.207374 0.759393 0.216849 0.081739
H34   H     H_    0.792656 0.259407 0.783155 0.081679
H35   H     H_    0.367234 0.460774 0.852878 0.156869
H36   H     H_    0.632550 0.960778 0.147087 0.156879
H37   H     H_    0.311067 0.741203 0.779763 0.092419
H38   H     H_    0.688601 0.241215 0.220208 0.092467
Br1   Br    Br    0.297747 0.447339 0.024825 -0.583310
Br2   Br    Br    0.702305 0.947340 0.975161 -0.583283

loop_
_geom_bond_atom_site_label_1
_geom_bond_atom_site_label_2
_ccdc_geom_bond_type
C26   H28   S    
C33   C37   A    
C23   H17   S    
C12   C20   S    
C26   C36   A    
O13   V3    S    
O4    C2    A    
V1    O19   S    
C11   H5    S    
O9    V1    S    
C14   C18   S    
C10   C12   S    
C32   H34   S    
C34   C36   A    
O3    C1    A    
C2    C19   S    
C47   H35   S    
C28   C30   A    
O12   V4    S    
C51   H37   S    
O17   V3    S    
C20   C22   S    
O7    V1    S    
O7    C3    A    
C36   C44   A    
C47   C49   A    
O5    C7    A    
C35   C43   A    
C25   C35   A    
O6    C8    A    
C45   Br1   S    
C46   C48   A    
O3    V1    S    
C15   H15   S    
C39   C41   A    
C4    C43   S    
C15   H13   S    
C42   C52   A    
C21   H23   S    
C12   H6    S    
C2    O12   A    
C5    C37   S    
C7    C17   S    
C25   H27   S    
C41   C51   A    
C42   C44   A    
C31   C33   A    
C16   C18   S    
O11   V3    S    
C27   C29   A    
C9    C17   S    
C40   C42   A    
C23   H19   S    
C19   C21   S    
C13   C21   S    
C22   H24   S    
C15   C23   S    
C30   C32   A    
C16   C24   S    
O8    V2    S    
C29   C31   A    
C8    C18   S    
O13   V1    S    
C11   H7    S    
C1    O11   A    
O15   V3    S    
C9    H3    S    
C15   C17   S    
C24   H18   S    
C39   C45   A    
C52   H38   S    
C41   C43   A    
C6    C38   S    
H12   C22   S    
H9    C13   S    
C11   C19   S    
O10   V2    S    
O1    V3    S    
C30   H32   S    
C29   H31   S    
C9    C11   S    
C25   C27   A    
C16   H16   S    
O14   V4    S    
C49   C51   A    
C38   C40   A    
O18   V4    S    
C32   C34   A    
O15   C5    A    
O8    C4    A    
C14   C22   S    
O16   C6    A    
C19   C23   S    
O1    C3    A    
O2    V4    S    
C24   H20   S    
C1    C20   S    
C50   C52   A    
V2    O20   S    
H25   C49   S    
O10   C6    A    
O16   V4    S    
C33   C35   A    
C10   H4    S    
O18   C8    A    
C34   C38   A    
C26   C28   A    
H11   C21   S    
H26   C50   S    
C45   C47   A    
C40   C46   A    
O5    V1    S    
O17   C7    A    
O6    V2    S    
H10   C14   S    
C48   C50   A    
C28   H30   S    
C3    C44   S    
C20   C24   S    
C48   H36   S    
C27   H29   S    
C14   H22   S    
V3    O19   S    
C31   H33   S    
V4    O20   S    
C10   C18   S    
C13   C17   S    
O9    C5    A    
C9    H1    S    
C10   H2    S    
O14   V2    S    
O2    C4    A    
O4    V2    S    
C12   H8    S    
C37   C39   A    
C46   Br2   S    
C13   H21   S    
C16   H14   S    
