data_mof_unit_998.cif
_audit_creation_date              2013-03-05T15:43:08-0500
_audit_creation_method            fapswitch 2.2
_symmetry_space_group_name_H-M    P1
_symmetry_Int_Tables_number       1
_space_group_crystal_system       triclinic
_cell_length_a                    6.961251
_cell_length_b                    13.862981
_cell_length_c                    18.020629
_cell_angle_alpha                 112.618705
_cell_angle_beta                  95.263868
_cell_angle_gamma                 90.436413
_cell_volume                      1596.78519451

loop_
_atom_site_label
_atom_site_type_symbol
_atom_site_description
_atom_site_fract_x
_atom_site_fract_y
_atom_site_fract_z
_atom_type_partial_charge
O1    O     O_R   0.484560 0.544530 0.414330 -0.516874
O2    O     O_R   0.197040 0.638810 0.585080 -0.575275
O3    O     O_R   0.026800 0.455470 0.585670 -0.583223
C1    C     C_R   0.374884 0.680832 0.607476 0.822113
O4    O     O_R   0.155000 0.556150 0.414940 -0.514459
O5    O     O_R   0.984450 0.372220 0.414320 -0.560730
C2    C     C_R   0.318929 0.564994 0.386701 0.863526
O6    O     O_R   0.526900 0.627780 0.585680 -0.545838
O7    O     O_3   0.339170 0.439750 0.499990 -0.295498
V1    V     V_3+5 0.064350 0.511180 0.500000 1.171679
O8    O     O_R   0.654880 0.361190 0.414920 -0.564026
C3    C     C_R   0.817092 0.324607 0.386487 0.880990
O9    O     O_R   0.696930 0.443850 0.585060 -0.546613
C4    C     C_R   0.871610 0.427248 0.608533 0.793649
V2    V     V_3+5 0.564340 0.488820 0.500000 1.175550
O10   O     O_3   0.839390 0.560250 0.500010 -0.245048
C5    C     C_R   0.044174 0.860908 0.822717 -0.099527
C6    C     C_R   0.898182 0.387626 0.674030 -0.088942
C7    C     C_R   0.927650 0.818676 0.682476 -0.050557
C8    C     C_R   0.975497 0.787713 0.746383 -0.099000
C9    C     C_R   0.057776 0.967500 0.835237 -0.113739
C10   C     C_R   0.002101 0.001907 0.771397 0.059681
C11   C     C_R   0.939284 0.924486 0.694186 0.045957
C12   C     C_R   0.003695 0.109795 0.781382 0.031268
C13   C     C_R   0.949570 0.137514 0.713358 0.034166
C14   C     C_R   0.890809 0.056684 0.638127 -0.097628
C15   C     C_R   0.885349 0.952647 0.629051 -0.118420
C16   C     C_R   0.054404 0.190942 0.857375 -0.096284
C17   C     C_R   0.048704 0.295045 0.867441 -0.109767
C18   C     C_R   0.995763 0.322992 0.802233 0.056715
C19   C     C_R   0.950731 0.245445 0.723450 0.066180
C20   C     C_R   0.982943 0.428930 0.816170 -0.092180
C21   C     C_R   0.923078 0.459920 0.753294 -0.107932
C22   C     C_R   0.909998 0.280199 0.658688 -0.122635
H1    H     H_    0.836536 0.893318 0.570192 0.093497
H2    H     H_    0.889696 0.226532 0.596357 0.037767
H3    H     H_    0.900712 0.541802 0.766277 0.070631
H4    H     H_    0.084918 0.354680 0.927453 0.070761
H5    H     H_    0.874868 0.759776 0.624077 0.114906
H6    H     H_    0.951412 0.706518 0.736750 0.040452
H7    H     H_    0.107835 0.021020 0.895534 0.045602
H8    H     H_    0.843010 0.071619 0.585146 0.074503
H9    H     H_    0.095818 0.176900 0.911220 0.072717
H10   H     H_    0.014521 0.488011 0.876576 0.110794
H11   H     H_    0.113904 0.223668 0.308534 0.113400
H12   H     H_    0.834444 0.034964 0.193754 0.115737
C23   C     C_2   0.135232 0.037333 0.183867 -0.232066
C24   C     C_2   0.972647 0.077950 0.216988 -0.092232
H13   H     H_    0.675243 0.178096 0.294778 0.061241
C25   C     C_2   0.813145 0.221239 0.318469 -0.218961
C26   C     C_2   0.975707 0.180674 0.285303 -0.087384
H14   H     H_    0.273130 0.080485 0.207551 0.067822
C27   C     C_R   0.416511 0.788398 0.673148 -0.110478
C28   C     C_R   0.535271 0.472549 0.826560 -0.149331
C29   C     C_R   0.561103 0.890581 0.809535 -0.066704
C30   C     C_R   0.522618 0.795624 0.744932 -0.107047
C31   C     C_R   0.385080 0.883387 0.661826 -0.117232
C32   C     C_R   0.447269 0.983544 0.724688 0.059927
C33   C     C_R   0.524366 0.984208 0.800406 0.057486
C34   C     C_R   0.438804 0.082688 0.715949 0.027415
C35   C     C_R   0.494667 0.179276 0.784180 0.047989
C36   C     C_R   0.557035 0.173443 0.858724 -0.097156
C37   C     C_R   0.573653 0.077983 0.866165 -0.114841
C38   C     C_R   0.382460 0.088289 0.640869 -0.090695
C39   C     C_R   0.377531 0.183648 0.632297 -0.095843
C40   C     C_R   0.428379 0.277683 0.697955 -0.009659
C41   C     C_R   0.488676 0.278333 0.775354 0.064582
C42   C     C_R   0.418513 0.371360 0.685916 -0.088657
C43   C     C_R   0.468823 0.467293 0.749113 0.403879
C44   C     C_R   0.540949 0.378135 0.839818 -0.186836
H15   H     H_    0.629980 0.077505 0.924151 0.072341
H16   H     H_    0.585844 0.385400 0.900605 0.062747
H17   H     H_    0.332441 0.183784 0.573132 0.064990
H18   H     H_    0.630633 0.890933 0.865899 0.109050
H19   H     H_    0.579542 0.727138 0.751597 0.138176
H20   H     H_    0.315851 0.876990 0.603992 0.052151
H21   H     H_    0.600045 0.241600 0.912440 0.075503
H22   H     H_    0.343122 0.019474 0.587050 0.071683
H23   H     H_    0.370265 0.370505 0.626780 0.122159
H24   H     H_    0.336163 0.666456 0.195284 0.093270
C45   C     C_2   0.320405 0.601446 0.318841 -0.286270
C46   C     C_2   0.484305 0.612789 0.286071 0.335129
H25   H     H_    0.775572 0.638527 0.204509 0.127366
C47   C     C_2   0.635720 0.657070 0.182779 -0.194135
C48   C     C_2   0.475649 0.647806 0.217450 -0.158357
H26   H     H_    0.182451 0.618549 0.294250 0.091710
O11   O     O_R   0.421600 0.630430 0.917010 -0.567586
O12   O     O_R   0.793840 0.702190 0.087630 -0.564127
O13   O     O_R   0.964010 0.886170 0.088190 -0.557981
C49   C     C_R   0.630948 0.693517 0.115668 0.823036
O14   O     O_R   0.751460 0.619510 0.917500 -0.565329
O15   O     O_R   0.921330 0.802900 0.916840 -0.561995
C50   C     C_R   0.574128 0.578445 0.893900 0.847356
O16   O     O_R   0.464290 0.713700 0.088350 -0.558331
O17   O     O_3   0.609200 0.818520 0.002630 -0.277085
V3    V     V_3+5 0.884140 0.747190 0.002530 1.108835
O18   O     O_R   0.251150 0.814630 0.917340 -0.568122
C51   C     C_R   0.075326 0.826155 0.890853 0.796139
O19   O     O_R   0.293530 0.897310 0.087470 -0.559509
C52   C     C_R   0.131325 0.933880 0.115926 0.846632
V4    V     V_3+5 0.384070 0.769710 0.002370 1.111785
O20   O     O_3   0.109180 0.698190 0.002460 -0.284518
O21   O     O_3   0.459092 0.556979 0.733842 -0.661905
C53   C     C_3   0.280604 0.601384 0.754633 0.142098
H27   H     H_    0.214038 0.580351 0.799770 0.038931
H28   H     H_    0.180062 0.582514 0.700384 0.092439
H29   H     H_    0.299833 0.686381 0.782877 0.063711
N1    N     N_R   0.670060 0.591952 0.316917 0.101732
O22   O     O_R   0.780687 0.668675 0.368999 -0.384410
O23   O     O_R   0.738524 0.499594 0.284600 -0.382575

loop_
_geom_bond_atom_site_label_1
_geom_bond_atom_site_label_2
_geom_bond_distance
_ccdc_geom_bond_type
C13   C19   1.436001 A    
C40   C42   1.397706 A    
C29   C30   1.385124 A    
O12   V3    2.010692 S    
V4    O20   2.148890 S    
V3    O20   1.712149 S    
C1    C27   1.510372 S    
C4    C6    1.479601 S    
C36   H21   1.076298 S    
O2    C1    1.323419 A    
O17   V3    2.160794 S    
C1    O6    1.296507 A    
C53   H28   1.090391 S    
C45   C46   1.366590 D    
O15   C51   1.294375 A    
C14   C15   1.387395 A    
H24   C48   1.086897 S    
C31   H20   1.078141 S    
C16   C17   1.384949 A    
C29   C33   1.392376 A    
O5    C3    1.292647 A    
C18   C19   1.417313 A    
C8    H6    1.080150 S    
H11   C26   1.086940 S    
C32   C34   1.443375 A    
V2    O10   2.148842 S    
O18   C51   1.306082 A    
O15   V3    2.008887 S    
C5    C8    1.395963 A    
C39   H17   1.084171 S    
N1    O22   1.300867 A    
C28   C50   1.504757 S    
O14   V3    1.990778 S    
O11   V4    1.989827 S    
C29   H18   1.082553 S    
O8    V2    1.996534 S    
C24   C26   1.479929 S    
C23   C24   1.352552 D    
O16   V4    2.022046 S    
C42   C43   1.393925 A    
C17   H4    1.084284 S    
O1    V2    2.013609 S    
C11   C15   1.394634 A    
O7    V1    2.160848 S    
C45   H26   1.086756 S    
C42   H23   1.083125 S    
C40   C41   1.415801 A    
C30   H19   1.075896 S    
O9    C4    1.302034 A    
C47   C49   1.477124 S    
C53   H27   1.100417 S    
C49   O16   1.293323 A    
C43   O21   1.373750 S    
H12   C24   1.086936 S    
O13   C52   1.292680 A    
C12   C13   1.439482 A    
O4    C2    1.314778 A    
C27   C31   1.423521 A    
C15   H1    1.084222 S    
C13   C14   1.408417 A    
C21   H3    1.082860 S    
C23   C52   1.482985 S    
C34   C35   1.447038 A    
C7    C11   1.399877 A    
C17   C18   1.392709 A    
O14   C50   1.317409 A    
C35   C41   1.442374 A    
H25   C47   1.085594 S    
C28   C44   1.418221 A    
C36   C37   1.385149 A    
C25   C26   1.352525 D    
C20   H10   1.082433 S    
C19   C22   1.431233 A    
C47   C48   1.354920 D    
C6    C22   1.410828 A    
O3    C4    1.299663 A    
C7    H5    1.082932 S    
C9    H7    1.076598 S    
O19   V4    1.996452 S    
O12   C49   1.305880 A    
H13   C25   1.086819 S    
O6    V2    1.989098 S    
C46   N1    1.435902 S    
O9    V2    2.018504 S    
C10   C12   1.435907 A    
O2    V1    1.990744 S    
C14   H8    1.077014 S    
C5    C51   1.481397 S    
C27   C30   1.397452 A    
C2    C45   1.492780 S    
O1    C2    1.290776 A    
C38   H22   1.077635 S    
C12   C16   1.409167 A    
C37   H15   1.084392 S    
O5    V1    1.985592 S    
C3    C25   1.482828 S    
O8    C3    1.307603 A    
C23   H14   1.086832 S    
C46   C48   1.488937 S    
C16   H9    1.075785 S    
C33   C37   1.394855 A    
O19   C52   1.307646 A    
C34   C38   1.405116 A    
C41   C44   1.440356 A    
C20   C21   1.390173 A    
C7    C8    1.390511 A    
C32   C33   1.416290 A    
O4    V1    2.010713 S    
O3    V1    2.009047 S    
V1    O10   1.712104 S    
C38   C39   1.389036 A    
C18   C20   1.396531 A    
C31   C32   1.445525 A    
C28   C43   1.403536 A    
O13   V3    1.985598 S    
O11   C50   1.296969 A    
N1    O23   1.300879 A    
C22   H2    1.077785 S    
O7    V2    1.703908 S    
C35   C36   1.405924 A    
C6    C21   1.387629 A    
C5    C9    1.407457 A    
C39   C40   1.397986 A    
O21   C53   1.408119 S    
C10   C11   1.418322 A    
C44   H16   1.076858 S    
C9    C10   1.429793 A    
C53   H29   1.090495 S    
O18   V4    2.018530 S    
O17   V4    1.701179 S    
