data_mof_unit_555.cif
_audit_creation_date              2012-12-11T15:23:56-0500
_audit_creation_method            fapswitch 2.2
_symmetry_space_group_name_H-M    P1
_symmetry_Int_Tables_number       1
_space_group_crystal_system       triclinic
_cell_length_a                    17.23148
_cell_length_b                    24.401032
_cell_length_c                    14.96496
_cell_angle_alpha                 90.027727
_cell_angle_beta                  125.739064
_cell_angle_gamma                 89.889034
_cell_volume                      5107.32107497

loop_
_atom_site_label
_atom_site_type_symbol
_atom_type_description
_atom_site_fract_x
_atom_site_fract_y
_atom_site_fract_z
_atom_type_partial_charge
C1    C     C_R   0.311732 0.373289 0.908172 -0.118614
C2    C     C_R   0.543061 0.497994 0.716286 0.036081
C3    C     C_3   0.590108 0.046009 0.292935 -0.286271
C4    C     C_3   0.615606 0.063458 0.215097 -0.991418
C5    C     C_3   0.512459 0.039682 0.620045 0.189681
C6    C     C_3   0.416291 0.064212 0.582887 -0.258352
C7    C     C_3   0.413593 0.076768 0.680974 -1.021046
C8    C     C_3   0.804191 0.245356 0.284035 0.153759
C9    C     C_3   0.825000 0.205135 0.373882 -0.262468
C10   C     C_3   0.928344 0.209778 0.475313 -1.036749
C11   C     C_3   0.064352 0.386430 0.785083 0.160545
C12   C     C_3   0.959478 0.372490 0.733980 -0.307644
C13   C     C_R   0.960418 0.998265 0.287175 0.044218
C14   C     C_3   0.898643 0.424079 0.703300 -0.997983
C15   C     C_3   0.349435 0.789802 0.230043 0.149280
C16   C     C_3   0.439110 0.754791 0.273969 -0.311569
C17   C     C_3   0.529594 0.789690 0.334849 -1.008999
C18   C     C_3   0.692629 0.750431 0.714881 0.164351
C19   C     C_3   0.656644 0.702752 0.633193 -0.269574
C20   C     C_3   0.547936 0.698080 0.564320 -1.041959
C21   C     C_R   0.934919 0.999077 0.633757 0.041972
C22   C     C_R   0.182456 0.499041 0.649929 -0.110731
C23   C     C_R   0.824054 0.497725 0.267143 -0.054571
C24   C     C_R   0.680528 0.997815 0.654057 -0.113550
C25   C     C_R   0.323635 0.999078 0.264506 -0.030325
C26   C     C_2   0.978358 0.454668 0.365488 -0.274447
C27   C     C_2   0.074090 0.462711 0.466632 -0.182442
C28   C     C_2   0.479164 0.956316 0.364933 -0.284460
C29   C     C_R   0.643919 0.346747 0.090186 -0.139275
C30   C     C_2   0.573381 0.962831 0.469584 -0.234360
C31   C     C_2   0.924486 0.497730 0.305604 0.620948
C32   C     C_2   0.088826 0.498740 0.543515 0.575215
C33   C     C_2   0.425293 0.000283 0.308924 0.608370
C34   C     C_2   0.586197 0.996663 0.548525 0.587777
C35   C     C_R   0.154250 0.684090 0.900823 -0.171934
C36   C     C_R   0.827794 0.702109 0.103322 -0.201998
C37   C     C_R   0.659803 0.192719 0.893732 -0.176826
C38   C     C_R   0.215134 0.265195 0.100414 -0.165536
C39   C     C_R   0.607454 0.234589 0.896058 -0.236546
C40   C     C_R   0.855657 0.847235 0.909131 -0.126857
C41   C     C_R   0.260351 0.311600 0.099425 -0.228652
C42   C     C_R   0.111896 0.731729 0.903939 -0.202481
C43   C     C_R   0.890033 0.736647 0.102240 -0.237622
C44   C     C_R   0.634747 0.256471 0.997363 0.009353
C45   C     C_R   0.237154 0.332248 0.999047 -0.039462
C46   C     C_R   0.152515 0.759838 0.004071 -0.038804
C47   C     C_R   0.865875 0.757226 0.001462 0.015048
C48   C     C_R   0.699317 0.227046 0.095538 0.564622
C49   C     C_R   0.151192 0.314960 0.900143 0.570589
C50   C     C_R   0.225875 0.733788 0.103607 0.579573
C51   C     C_R   0.147597 0.848012 0.091182 -0.156566
C52   C     C_R   0.796036 0.730395 0.902570 0.571495
C53   C     C_R   0.257667 0.682491 0.099019 -0.305771
C54   C     C_R   0.737291 0.692392 0.905882 -0.361794
C55   C     C_R   0.748781 0.182854 0.090943 -0.347873
C56   C     C_R   0.107848 0.267393 0.901648 -0.313578
C57   C     C_R   0.399212 0.621329 0.090414 -0.141894
C58   C     C_R   0.586402 0.637702 0.909978 -0.138687
C59   C     C_R   0.903961 0.131028 0.087989 -0.133722
C60   C     C_R   0.059887 0.150377 0.909045 -0.126613
C61   C     C_R   0.234432 0.662939 0.998664 0.072961
C62   C     C_R   0.308108 0.633619 0.998047 0.077715
C63   C     C_R   0.745760 0.684514 0.003829 0.103014
C64   C     C_R   0.738032 0.171468 0.992666 0.100399
C65   C     C_R   0.145355 0.239727 0.000998 0.077188
C66   C     C_R   0.604752 0.546632 0.624668 -0.171637
C67   C     C_R   0.612125 0.547009 0.537374 -0.171307
C68   C     C_R   0.892371 0.047822 0.466133 -0.175333
C69   C     C_R   0.900004 0.047568 0.379230 -0.188290
C70   C     C_R   0.601649 0.497854 0.483035 0.151682
C71   C     C_R   0.586719 0.497256 0.657080 0.146309
C72   C     C_R   0.916748 0.997967 0.345974 0.149507
C73   C     C_R   0.671038 0.656650 0.002356 0.088988
C74   C     C_R   0.901650 0.998479 0.519253 0.140826
C75   C     C_R   0.605176 0.447876 0.531606 -0.181434
C76   C     C_R   0.597629 0.447582 0.618611 -0.167463
C77   C     C_R   0.903893 0.948341 0.382608 -0.168025
C78   C     C_R   0.896215 0.948594 0.469394 -0.171832
C79   C     C_R   0.551146 0.453610 0.303864 -0.140811
C80   C     C_R   0.516425 0.452625 0.747983 -0.128058
C81   C     C_R   0.984785 0.952723 0.253254 -0.129110
C82   C     C_R   0.951854 0.953540 0.697633 -0.126730
C83   C     C_R   0.236759 0.544837 0.704411 -0.111602
C84   C     C_R   0.813475 0.143149 0.994973 0.082087
C85   C     C_R   0.770198 0.543721 0.250972 -0.098497
C86   C     C_R   0.735351 0.044157 0.705455 -0.121802
C87   C     C_R   0.267782 0.044942 0.242970 -0.074871
C88   C     C_R   0.550834 0.544613 0.304274 -0.142554
C89   C     C_R   0.511800 0.544200 0.741212 -0.121704
C90   C     C_R   0.992617 0.044211 0.263306 -0.127112
C91   C     C_R   0.952213 0.044948 0.697535 -0.122077
C92   C     C_R   0.237631 0.453529 0.705811 -0.175462
C93   C     C_R   0.766389 0.452635 0.242104 -0.174791
C94   C     C_R   0.736179 0.952554 0.710579 -0.155326
C95   C     C_R   0.121063 0.182403 0.000609 0.093512
C96   C     C_R   0.267085 0.953381 0.242585 -0.179343
C97   C     C_R   0.307679 0.622777 0.906668 -0.131075
C98   C     C_R   0.676160 0.638809 0.093060 -0.167900
C99   C     C_R   0.810724 0.127081 0.904689 -0.140000
C100  C     C_R   0.149250 0.151140 0.092015 -0.162692
C101  C     C_R   0.401773 0.375521 0.091774 -0.116305
C102  C     C_R   0.552767 0.346895 0.908088 -0.146381
C103  C     C_R   0.948458 0.846704 0.091607 -0.144031
C104  C     C_R   0.061095 0.848615 0.908742 -0.115954
C105  C     C_R   0.311601 0.361533 0.998995 0.074754
C106  C     C_R   0.568792 0.498828 0.368372 0.048341
C107  C     C_R   0.611642 0.314130 0.999289 0.087442
C108  C     C_R   0.890153 0.814239 0.000026 0.085573
C109  C     C_R   0.124066 0.816962 0.001525 0.076466
C110  C     C_3   0.931256 0.567114 0.205685 0.151569
C111  C     C_3   0.978181 0.539295 0.156552 -0.331529
C112  C     C_3   0.942860 0.564528 0.045404 -0.942697
C113  C     C_3   0.013725 0.545885 0.609684 0.189122
C114  C     C_3   0.914560 0.567987 0.566848 -0.272114
C115  C     C_3   0.908100 0.584027 0.660941 -1.005270
C116  C     C_3   0.485596 0.059383 0.244777 0.172201
H1    H     H_    0.256906 0.365020 0.823108 0.157141
H2    H     H_    0.320209 0.326819 0.177817 0.135190
H3    H     H_    0.332744 0.814599 0.158168 0.082818
H4    H     H_    0.445171 0.722935 0.330561 0.219993
H5    H     H_    0.433290 0.734032 0.204224 0.187008
H6    H     H_    0.524930 0.821868 0.279396 0.267612
H7    H     H_    0.592607 0.763296 0.363225 0.268290
H8    H     H_    0.539796 0.809441 0.407929 0.262565
H9    H     H_    0.691036 0.787934 0.671780 0.094156
H10   H     H_    0.643135 0.759456 0.738344 0.093534
H11   H     H_    0.679104 0.709100 0.577792 0.190053
H12   H     H_    0.689120 0.663704 0.677961 0.206214
H13   H     H_    0.053162 0.748592 0.826443 0.137897
H14   H     H_    0.525124 0.686556 0.617545 0.262609
H15   H     H_    0.523148 0.665992 0.500536 0.267237
H16   H     H_    0.514144 0.737751 0.523376 0.280944
H17   H     H_    0.948782 0.752662 0.180512 0.139190
H18   H     H_    0.312563 0.663194 0.175838 0.137047
H19   H     H_    0.682272 0.671615 0.831412 0.136523
H20   H     H_    0.799843 0.160105 0.165011 0.127851
H21   H     H_    0.048993 0.250839 0.823890 0.139712
H22   H     H_    0.604097 0.585305 0.659104 0.119746
H23   H     H_    0.616408 0.586093 0.506625 0.111269
H24   H     H_    0.889022 0.086864 0.497628 0.120417
H25   H     H_    0.680659 0.334163 0.174457 0.141361
H26   H     H_    0.901683 0.086432 0.345870 0.113198
H27   H     H_    0.603387 0.408869 0.496318 0.108253
H28   H     H_    0.590766 0.408447 0.647083 0.107812
H29   H     H_    0.909480 0.909181 0.353031 0.108578
H30   H     H_    0.896579 0.909547 0.503592 0.107228
H31   H     H_    0.426596 0.625282 0.175803 0.095276
H32   H     H_    0.552722 0.650968 0.826421 0.087074
H33   H     H_    0.934017 0.144854 0.170273 0.085312
H34   H     H_    0.015093 0.163227 0.823958 0.089052
H35   H     H_    0.570222 0.411599 0.330847 0.088642
H36   H     H_    0.817011 0.835448 0.824262 0.133686
H37   H     H_    0.527096 0.409925 0.739421 0.093120
H38   H     H_    0.973514 0.910057 0.261128 0.094673
H39   H     H_    0.934732 0.911370 0.671314 0.084950
H40   H     H_    0.220947 0.586289 0.672901 0.105305
H41   H     H_    0.797456 0.584722 0.272045 0.112310
H42   H     H_    0.718240 0.085285 0.672331 0.100811
H43   H     H_    0.289563 0.087129 0.250491 0.125787
H44   H     H_    0.568998 0.586544 0.332171 0.087780
H45   H     H_    0.511908 0.585566 0.717129 0.088267
H46   H     H_    0.997317 0.085215 0.292101 0.086306
H47   H     H_    0.178711 0.834250 0.173977 0.156851
H48   H     H_    0.935733 0.087122 0.670705 0.084542
H49   H     H_    0.222244 0.411716 0.676625 0.101079
H50   H     H_    0.785155 0.410228 0.244457 0.094372
H51   H     H_    0.719669 0.910061 0.685979 0.085629
H52   H     H_    0.287278 0.911019 0.248463 0.093204
H53   H     H_    0.249708 0.629607 0.821737 0.087282
H54   H     H_    0.723457 0.653269 0.176431 0.089503
H55   H     H_    0.753440 0.132681 0.819149 0.087341
H56   H     H_    0.185513 0.165234 0.175826 0.090685
H57   H     H_    0.428587 0.371717 0.176998 0.095360
H58   H     H_    0.129642 0.667231 0.821521 0.114339
H59   H     H_    0.504414 0.333885 0.823541 0.089508
H60   H     H_    0.997065 0.833535 0.176079 0.092160
H61   H     H_    0.018007 0.835618 0.823791 0.090298
H62   H     H_    0.946667 0.415082 0.358282 0.089232
H63   H     H_    0.128807 0.433196 0.484854 0.091773
H64   H     H_    0.448101 0.915795 0.349371 0.095687
H65   H     H_    0.629658 0.934845 0.486605 0.098982
H66   H     H_    0.948324 0.611458 0.214548 0.151005
H67   H     H_    0.852037 0.563836 0.147722 0.092955
H68   H     H_    0.057079 0.543961 0.213944 0.219856
H69   H     H_    0.841693 0.692318 0.181877 0.120948
H70   H     H_    0.960964 0.494856 0.145112 0.187422
H71   H     H_    0.864169 0.559628 0.986286 0.265639
H72   H     H_    0.977705 0.543641 0.011474 0.264490
H73   H     H_    0.960811 0.608842 0.054937 0.273638
H74   H     H_    0.067906 0.577272 0.664108 0.105851
H75   H     H_    0.026579 0.507858 0.657782 0.074680
H76   H     H_    0.898548 0.604569 0.514376 0.205228
H77   H     H_    0.859964 0.536167 0.515430 0.202392
H78   H     H_    0.924573 0.548334 0.715337 0.274033
H79   H     H_    0.834548 0.598484 0.626796 0.271560
H80   H     H_    0.644009 0.181319 0.814927 0.117379
H81   H     H_    0.959109 0.617615 0.710307 0.269065
H82   H     H_    0.472618 0.103470 0.221882 0.139306
H83   H     H_    0.436483 0.036032 0.166816 0.062263
H84   H     H_    0.637999 0.067529 0.372908 0.212461
H85   H     H_    0.602356 0.001209 0.307779 0.197834
H86   H     H_    0.568233 0.042727 0.134227 0.267820
H87   H     H_    0.690723 0.051863 0.250910 0.278311
H88   H     H_    0.608301 0.108577 0.202799 0.276558
H89   H     H_    0.569681 0.069164 0.676988 0.106634
H90   H     H_    0.522906 0.000356 0.663842 0.087950
H91   H     H_    0.242128 0.246852 0.179244 0.119188
H92   H     H_    0.403596 0.102736 0.536457 0.205151
H93   H     H_    0.358149 0.034900 0.527167 0.204168
H94   H     H_    0.424856 0.038684 0.727856 0.270613
H95   H     H_    0.342804 0.094313 0.651199 0.273221
H96   H     H_    0.469882 0.106996 0.736421 0.272742
H97   H     H_    0.813597 0.287548 0.316766 0.107721
H98   H     H_    0.858233 0.240776 0.266047 0.080135
H99   H     H_    0.776236 0.213865 0.398025 0.205596
H100  H     H_    0.811149 0.162683 0.341419 0.195188
H101  H     H_    0.978250 0.198082 0.454322 0.268431
H102  H     H_    0.553435 0.253359 0.818259 0.133873
H103  H     H_    0.940197 0.181956 0.540895 0.264030
H104  H     H_    0.943912 0.252369 0.507594 0.275870
H105  H     H_    0.067146 0.413446 0.727332 0.129324
H106  H     H_    0.096111 0.410311 0.862735 0.086484
H107  H     H_    0.930270 0.347344 0.658742 0.210811
H108  H     H_    0.954834 0.348236 0.793510 0.192671
H109  H     H_    0.926984 0.450157 0.777105 0.266861
H110  H     H_    0.823949 0.412489 0.669489 0.275915
H111  H     H_    0.898115 0.447693 0.639560 0.267568
H112  H     H_    0.365103 0.819520 0.294841 0.133806
N1    N     N_R   0.395440 0.396300 0.944370 -0.048180
N2    N     N_R   0.474910 0.470990 0.794360 -0.038693
N3    N     N_R   0.025090 0.970990 0.205640 -0.039519
N4    N     N_R   0.974910 0.970990 0.794360 -0.039876
N5    N     N_R   0.320240 0.527820 0.794510 -0.035299
N6    N     N_R   0.679760 0.527820 0.205490 -0.042308
N7    N     N_R   0.820240 0.027820 0.794510 -0.033261
N8    N     N_R   0.179760 0.027820 0.205490 -0.050563
N9    N     N_R   0.524580 0.527810 0.205160 -0.037639
N10   N     N_R   0.475420 0.527810 0.794840 -0.038933
N11   N     N_R   0.024580 0.027810 0.205160 -0.039738
N12   N     N_R   0.604560 0.396300 0.055630 -0.045718
N13   N     N_R   0.975420 0.027810 0.794840 -0.040127
N14   N     N_R   0.320750 0.470990 0.794990 -0.028382
N15   N     N_R   0.679250 0.470990 0.205010 -0.029891
N16   N     N_R   0.820750 0.970990 0.794990 -0.026807
N17   N     N_R   0.179250 0.970990 0.205010 -0.032854
N18   N     N_R   0.393580 0.602500 0.942610 -0.041898
N19   N     N_R   0.606420 0.602500 0.057390 -0.038484
N20   N     N_R   0.893580 0.102500 0.942610 -0.039918
N21   N     N_R   0.106420 0.102500 0.057390 -0.043504
N22   N     N_R   0.451750 0.396300 0.057540 -0.040544
N23   N     N_R   0.895440 0.896300 0.944370 -0.045182
N24   N     N_R   0.548250 0.396300 0.942460 -0.039809
N25   N     N_R   0.951750 0.896300 0.057540 -0.039269
N26   N     N_R   0.048250 0.896300 0.942460 -0.040429
N27   N     N_R   0.104560 0.896300 0.055630 -0.044309
N28   N     N_R   0.449890 0.602500 0.055780 -0.040313
N29   N     N_R   0.550110 0.602500 0.944220 -0.038611
N30   N     N_R   0.949890 0.102500 0.055780 -0.038082
N31   N     N_R   0.050110 0.102500 0.944220 -0.041226
N32   N     N_R   0.525090 0.470990 0.205640 -0.038431
Ni1   Ni    Ni4+2 0.435420 0.434250 0.870220 0.212142
Ni2   Ni    Ni4+2 0.564580 0.434250 0.129780 0.214860
Ni3   Ni    Ni4+2 0.935420 0.934250 0.870220 0.209635
Ni4   Ni    Ni4+2 0.064580 0.934250 0.129780 0.212201
Ni5   Ni    Ni4+2 0.563400 0.564580 0.128670 0.209619
Ni6   Ni    Ni4+2 0.436600 0.564580 0.871330 0.217183
Ni7   Ni    Ni4+2 0.063400 0.064580 0.128670 0.208674
Ni8   Ni    Ni4+2 0.936600 0.064580 0.871330 0.208403
O1    O     O_3   0.969012 0.546599 0.312229 -0.621218
O2    O     O_3   0.016844 0.535774 0.518821 -0.630150
O3    O     O_3   0.467782 0.051042 0.324835 -0.626899
O4    O     O_3   0.512113 0.031173 0.526426 -0.626276
O5    O     O_3   0.707615 0.239474 0.191425 -0.680837
O6    O     O_3   0.116425 0.338357 0.799231 -0.691129
O7    O     O_3   0.270668 0.757787 0.206207 -0.683011
O8    O     O_3   0.788611 0.740806 0.806332 -0.679062

loop_
_geom_bond_atom_site_label_1
_geom_bond_atom_site_label_2
_ccdc_geom_bond_type
C48   C55   A    
C87   H43   S    
N3    Ni4   S    
C36   H69   S    
C114  H77   S    
C77   H29   S    
C13   C90   A    
C100  H56   S    
C39   H102  S    
C101  H57   S    
C111  C112  S    
N28   Ni5   S    
C51   N27   A    
N29   Ni6   S    
C11   H105  S    
C112  H71   S    
C7    H96   S    
C10   H104  S    
C57   C62   A    
C52   O8    S    
C6    H93   S    
C77   C78   A    
C9    H99   S    
C113  H74   S    
C115  H81   S    
C26   C27   S    
N26   N27   A    
C22   C32   S    
C90   N11   A    
C90   H46   S    
C102  N24   A    
C79   N32   A    
C60   N31   A    
N9    Ni5   S    
N4    Ni3   S    
C27   H63   S    
C14   H110  S    
C8    H98   S    
C3    C116  S    
C16   H4    S    
C18   H9    S    
C104  C109  A    
C58   H32   S    
N23   N25   A    
C99   H55   S    
C54   C63   A    
C88   N9    A    
C68   C74   A    
C56   C65   A    
C13   C81   A    
C19   H12   S    
C25   C87   A    
C104  N26   A    
C40   H36   S    
N3    N11   A    
C18   C19   S    
C42   C46   A    
C43   H17   S    
C35   C42   A    
C94   N16   A    
C110  C111  S    
N22   Ni2   S    
C115  H79   S    
N31   Ni8   S    
C5    H90   S    
C53   C61   A    
C92   H49   S    
C17   H7    S    
C64   C84   S    
C91   N13   A    
C52   C54   A    
C68   C69   A    
C111  H70   S    
C50   O7    S    
C31   O1    S    
N8    Ni7   S    
C96   H52   S    
C59   N30   A    
C51   H47   S    
C103  C108  A    
N15   Ni2   S    
C45   C49   A    
C41   H2    S    
C36   C63   A    
C67   H23   S    
C9    C10   S    
C29   N12   A    
C6    H92   S    
N1    N22   A    
C65   C95   S    
N6    N15   A    
C40   C108  A    
C48   O5    S    
C26   H62   S    
C66   C67   A    
N5    Ni6   S    
N2    Ni1   S    
C26   C31   D    
C51   C109  A    
C33   O3    S    
C35   H58   S    
C34   O4    S    
C85   H41   S    
N21   N31   A    
N30   Ni7   S    
N8    N17   A    
C11   H106  S    
C89   H45   S    
N19   N29   A    
C45   C105  S    
C10   H103  S    
C114  C115  S    
C18   O8    S    
C59   H33   S    
C9    H100  S    
C101  C105  A    
C73   C98   A    
C113  H75   S    
N13   Ni8   S    
C50   C53   A    
C114  H76   S    
C38   H91   S    
C30   C34   D    
C58   N29   A    
C85   N6    A    
C37   H80   S    
C83   N5    A    
C80   H37   S    
C2    C80   A    
C113  O2    S    
C38   C41   A    
N32   Ni2   S    
C100  N21   A    
C93   N15   A    
C80   N2    A    
C97   N18   A    
C81   N3    A    
C40   N23   A    
C78   H30   S    
C95   C100  A    
C8    C9    S    
N6    Ni5   S    
C60   H34   S    
C83   H40   S    
C63   C73   S    
C23   C31   S    
C69   H26   S    
C10   H101  S    
C58   C73   A    
C21   C74   S    
C32   O2    S    
C24   C34   S    
C87   N8    A    
C23   C93   A    
C79   C106  A    
C37   C64   A    
C98   H54   S    
N26   Ni3   S    
C20   H16   S    
C2    C89   A    
C12   H108  S    
C75   C76   A    
C12   H107  S    
C112  H72   S    
C72   C77   A    
C24   C94   A    
C62   C97   A    
C88   C106  A    
C17   H6    S    
C17   H8    S    
C4    H86   S    
C104  H61   S    
C66   H22   S    
C38   C65   A    
N10   Ni6   S    
C86   N7    A    
C29   H25   S    
C55   C64   A    
N9    N32   A    
C3    H84   S    
C11   O6    S    
N11   Ni7   S    
C102  C107  A    
C35   C61   A    
N16   Ni3   S    
C1    H1    S    
C2    C71   S    
N27   Ni4   S    
C15   O7    S    
C28   H64   S    
C6    C7    S    
C75   H27   S    
C66   C71   A    
C101  N22   A    
N20   N30   A    
C82   H39   S    
N24   Ni1   S    
N25   Ni4   S    
C115  H78   S    
C12   C14   S    
C28   C33   D    
C8    H97   S    
C20   H14   S    
C57   H31   S    
C23   C85   A    
C3    H85   S    
C30   H65   S    
C91   H48   S    
N2    N10   A    
C14   H109  S    
C20   H15   S    
C3    C4    S    
C116  O3    S    
C68   H24   S    
C76   H28   S    
C96   N17   A    
C69   C72   A    
C103  H60   S    
C79   H35   S    
C113  C114  S    
C21   C91   A    
C44   C107  S    
N7    Ni8   S    
C116  H83   S    
C16   H5    S    
C82   N4    A    
C5    O4    S    
C41   C45   A    
C27   C32   D    
C84   C99   A    
C89   N10   A    
C53   H18   S    
C8    O5    S    
N12   Ni2   S    
C43   C47   A    
C4    H87   S    
C94   H51   S    
C49   O6    S    
C110  O1    S    
C7    H95   S    
C11   C12   S    
C86   H42   S    
N12   N24   A    
C39   C44   A    
N20   Ni8   S    
C13   C72   S    
N1    Ni1   S    
C24   C86   A    
C49   C56   A    
C46   C50   A    
C59   C84   A    
C1    C105  A    
C15   H112  S    
C67   C70   A    
N4    N13   A    
C55   H20   S    
N21   Ni7   S    
C19   C20   S    
C28   C30   S    
C93   H50   S    
C102  H59   S    
C97   H53   S    
C14   H111  S    
C37   C39   A    
C44   C48   A    
C22   C83   A    
C56   H21   S    
C16   C17   S    
N18   N28   A    
C57   N28   A    
C103  N25   A    
C54   H19   S    
C19   H11   S    
C111  H68   S    
N14   Ni1   S    
C15   H3    S    
C21   C82   A    
C42   H13   S    
C88   H44   S    
C61   C62   S    
N7    N16   A    
C70   C106  S    
C4    H88   S    
C81   H38   S    
C5    H89   S    
N19   Ni5   S    
C60   C95   A    
C1    N1    A    
N5    N14   A    
C98   N19   A    
C7    H94   S    
C110  H66   S    
C25   C96   A    
C47   C108  S    
C74   C78   A    
C46   C109  S    
C25   C33   S    
C70   C75   A    
C5    C6    S    
C22   C92   A    
C29   C107  A    
C36   C43   A    
C110  H67   S    
C47   C52   A    
C99   N20   A    
N18   Ni6   S    
N17   Ni4   S    
C92   N14   A    
C18   H10   S    
C116  H82   S    
C15   C16   S    
C112  H73   S    
N23   Ni3   S    
C71   C76   A    
