data_mof_unit_3193.cif
_audit_creation_date              2012-12-10T17:24:24-0500
_audit_creation_method            fapswitch 2.2
_symmetry_space_group_name_H-M    P1
_symmetry_Int_Tables_number       1
_space_group_crystal_system       triclinic
_cell_length_a                    31.608938
_cell_length_b                    18.305627
_cell_length_c                    25.710634
_cell_angle_alpha                 90.47108
_cell_angle_beta                  144.322719
_cell_angle_gamma                 89.579784
_cell_volume                      8676.09156692

loop_
_atom_site_label
_atom_site_type_symbol
_atom_type_description
_atom_site_fract_x
_atom_site_fract_y
_atom_site_fract_z
_atom_type_partial_charge
C1    C     C_R   0.860233 0.860187 0.110042 0.487418
C2    C     C_R   0.209974 0.237452 0.316993 0.130940
C3    C     C_R   0.767490 0.213545 0.064482 -0.005760
C4    C     C_R   0.253522 0.301897 0.044745 -0.001409
C5    C     C_R   0.746479 0.698102 0.955256 -0.001410
C6    C     C_R   0.732508 0.286451 0.935516 -0.005763
C7    C     C_R   0.267492 0.713549 0.064484 -0.005762
C8    C     C_R   0.196623 0.195309 0.947104 0.029031
C9    C     C_R   0.803377 0.804691 0.052897 0.029031
C10   C     C_R   0.804521 0.196494 0.054646 0.023534
C11   C     C_R   0.195479 0.803506 0.945353 0.023534
C12   C     C_R   0.696623 0.695308 0.947102 0.029032
C13   C     C_R   0.357299 0.917544 0.642074 0.128639
C14   C     C_R   0.303377 0.304692 0.052898 0.029033
C15   C     C_R   0.304521 0.696495 0.054646 0.023532
C16   C     C_R   0.695479 0.303505 0.945354 0.023532
C17   C     C_R   0.981493 0.129718 0.041396 -0.086562
C18   C     C_R   0.018516 0.870283 0.958613 -0.086558
C19   C     C_R   0.481477 0.629716 0.041379 -0.086562
C20   C     C_R   0.518524 0.370284 0.958622 -0.086561
C21   C     C_R   0.971062 0.196951 0.008020 -0.123707
C22   C     C_R   0.028954 0.803051 0.991996 -0.123705
C23   C     C_R   0.471037 0.696947 0.007994 -0.123701
C24   C     C_R   0.642701 0.082455 0.357928 0.128638
C25   C     C_R   0.528966 0.303053 0.992008 -0.123698
C26   C     C_R   0.967561 0.201929 0.951094 -0.061700
C27   C     C_R   0.032452 0.798073 0.048919 -0.061694
C28   C     C_R   0.467538 0.701925 0.951071 -0.061689
C29   C     C_R   0.532464 0.298075 0.048932 -0.061686
C30   C     C_R   0.975419 0.139931 0.927365 0.091538
C31   C     C_R   0.024585 0.860070 0.072640 0.091540
C32   C     C_R   0.475408 0.639929 0.927354 0.091540
C33   C     C_R   0.524593 0.360071 0.072647 0.091541
C34   C     C_R   0.987909 0.069335 0.962750 0.025885
C35   C     C_R   0.290056 0.262498 0.683036 0.130938
C36   C     C_R   0.012093 0.930665 0.037252 0.025884
C37   C     C_R   0.487903 0.569334 0.962744 0.025881
C38   C     C_R   0.512097 0.430666 0.037256 0.025880
C39   C     C_R   0.989854 0.064953 0.019425 0.008573
C40   C     C_R   0.010149 0.935047 0.980578 0.008573
C41   C     C_R   0.489847 0.564952 0.019418 0.008567
C42   C     C_R   0.510153 0.435048 0.980583 0.008566
C43   C     C_R   0.999063 0.003458 0.945382 0.033531
C44   C     C_R   0.000937 0.996542 0.054619 0.033531
C45   C     C_R   0.499063 0.503458 0.945382 0.033525
C46   C     C_R   0.709949 0.737491 0.316968 0.130941
C47   C     C_R   0.500937 0.496542 0.054618 0.033526
C48   C     C_R   0.000158 0.996035 0.109279 0.520792
C49   C     C_R   0.999842 0.003965 0.890721 0.520791
C50   C     C_R   0.500158 0.496035 0.109279 0.520793
C51   C     C_R   0.499842 0.503965 0.890722 0.520791
C52   C     C_R   0.000212 0.000342 0.391946 0.516553
C53   C     C_R   0.999788 0.999658 0.608054 0.516553
C54   C     C_R   0.500222 0.500342 0.391956 0.516533
C55   C     C_R   0.499778 0.499658 0.608043 0.516535
C56   C     C_3   0.057722 0.962528 0.539976 -0.103832
C57   C     C_R   0.857299 0.417543 0.642078 0.128629
C58   C     C_3   0.942278 0.037472 0.460024 -0.103835
C59   C     C_3   0.996282 0.930440 0.512399 -0.092846
C60   C     C_3   0.003719 0.069560 0.487602 -0.092849
C61   C     C_3   0.439156 0.468539 0.421235 -0.101608
C62   C     C_3   0.560842 0.531464 0.578762 -0.101641
C63   C     C_3   0.441956 0.537003 0.459687 -0.103784
C64   C     C_3   0.558045 0.462999 0.540313 -0.103776
C65   C     C_3   0.061103 0.030958 0.579008 -0.101665
C66   C     C_3   0.938898 0.969042 0.420992 -0.101663
C67   C     C_3   0.496843 0.430403 0.512959 -0.092748
C68   C     C_R   0.142701 0.582457 0.357923 0.128629
C69   C     C_3   0.503157 0.569597 0.487041 -0.092812
C70   C     C_3   0.999679 0.998991 0.550577 0.046003
C71   C     C_3   0.000321 0.001009 0.449424 0.046004
C72   C     C_3   0.499658 0.498989 0.550555 0.045979
C73   C     C_3   0.500342 0.501012 0.449444 0.045972
C74   C     C_R   0.209391 0.183592 0.554430 -0.083841
C75   C     C_R   0.790617 0.816397 0.445576 -0.083847
C76   C     C_R   0.895391 0.292756 0.665373 -0.086381
C77   C     C_R   0.104609 0.707244 0.334628 -0.086381
C78   C     C_R   0.709364 0.683629 0.554408 -0.083842
C79   C     C_R   0.814623 0.791557 0.660784 -0.091473
C80   C     C_R   0.290643 0.316362 0.445597 -0.083843
C81   C     C_R   0.395391 0.792757 0.665369 -0.086381
C82   C     C_R   0.604608 0.207242 0.334632 -0.086380
C83   C     C_R   0.237397 0.207872 0.629653 0.137202
C84   C     C_R   0.762616 0.792111 0.370356 0.137200
C85   C     C_R   0.912588 0.365410 0.693941 0.129695
C86   C     C_R   0.087412 0.634590 0.306060 0.129695
C87   C     C_R   0.737353 0.707931 0.629614 0.137214
C88   C     C_R   0.262659 0.292053 0.370396 0.137212
C89   C     C_R   0.412588 0.865412 0.693935 0.129692
C90   C     C_R   0.185380 0.208438 0.339219 -0.091472
C91   C     C_R   0.587411 0.134587 0.306068 0.129691
C92   C     C_R   0.285859 0.896690 0.561331 -0.091452
C93   C     C_R   0.139766 0.139813 0.889958 0.487418
C94   C     C_R   0.714141 0.103310 0.438670 -0.091452
C95   C     C_R   0.314621 0.291550 0.660785 -0.091486
C96   C     C_R   0.685378 0.708449 0.339214 -0.091482
C97   C     C_R   0.785860 0.396689 0.561332 -0.091461
C98   C     C_R   0.214140 0.603310 0.438668 -0.091461
C99   C     C_R   0.782667 0.771525 0.580515 -0.004988
C100  C     C_R   0.217334 0.228472 0.419485 -0.004989
C101  C     C_R   0.267731 0.823882 0.529248 -0.012053
C102  C     C_R   0.732269 0.176118 0.470753 -0.012053
C103  C     C_R   0.282667 0.271520 0.580518 -0.004989
C104  C     C_R   0.139623 0.859904 0.889592 0.481967
C105  C     C_R   0.717332 0.728479 0.419481 -0.004989
C106  C     C_R   0.767731 0.323882 0.529248 -0.012051
C107  C     C_R   0.232269 0.676118 0.470751 -0.012051
C108  C     C_R   0.228560 0.217105 0.526015 -0.004126
C109  C     C_R   0.771442 0.782891 0.473986 -0.004126
C110  C     C_R   0.823018 0.270595 0.583032 -0.006919
C111  C     C_R   0.176982 0.729404 0.416968 -0.006919
C112  C     C_R   0.728553 0.717118 0.526007 -0.004132
C113  C     C_R   0.271449 0.282878 0.473994 -0.004132
C114  C     C_R   0.323018 0.770596 0.583031 -0.006918
C115  C     C_R   0.860377 0.140096 0.110408 0.481967
C116  C     C_R   0.676981 0.229404 0.416969 -0.006917
C117  C     C_R   0.804195 0.803737 0.554421 0.034301
C118  C     C_R   0.195805 0.196262 0.445578 0.034301
C119  C     C_R   0.195350 0.803346 0.445885 0.032928
C120  C     C_R   0.804650 0.196654 0.554115 0.032928
C121  C     C_R   0.304194 0.303734 0.554423 0.034296
C122  C     C_R   0.695805 0.696265 0.445576 0.034297
C123  C     C_R   0.695350 0.303345 0.445886 0.032931
C124  C     C_R   0.304650 0.696654 0.554114 0.032931
C125  C     C_R   0.753366 0.855569 0.084573 -0.064023
C126  C     C_R   0.360233 0.360187 0.110042 0.487418
C127  C     C_R   0.246638 0.144427 0.915435 -0.064025
C128  C     C_R   0.217075 0.823248 0.872971 -0.062102
C129  C     C_R   0.782925 0.176752 0.127028 -0.062101
C130  C     C_R   0.253383 0.355555 0.084600 -0.064044
C131  C     C_R   0.746620 0.644442 0.915404 -0.064046
C132  C     C_R   0.717069 0.323239 0.872964 -0.062112
C133  C     C_R   0.282931 0.676762 0.127036 -0.062114
C134  C     C_R   0.703129 0.852736 0.074873 0.134147
C135  C     C_R   0.296878 0.147257 0.925138 0.134147
C136  C     C_R   0.252542 0.804577 0.862354 0.118857
C137  C     C_R   0.639767 0.639813 0.889958 0.487418
C138  C     C_R   0.747458 0.195422 0.137646 0.118856
C139  C     C_R   0.203154 0.352716 0.074916 0.134126
C140  C     C_R   0.796850 0.647280 0.925092 0.134128
C141  C     C_R   0.752535 0.304565 0.862345 0.118845
C142  C     C_R   0.247465 0.695436 0.137655 0.118844
C143  C     C_R   0.154355 0.295022 0.028836 -0.048843
C144  C     C_R   0.845647 0.704976 0.971169 -0.048845
C145  C     C_R   0.806282 0.251547 0.916232 -0.085400
C146  C     C_R   0.193717 0.748453 0.083766 -0.085399
C147  C     C_R   0.654338 0.795035 0.028807 -0.048837
C148  C     C_R   0.639623 0.359904 0.889592 0.481972
C149  C     C_R   0.345667 0.204959 0.971201 -0.048838
C150  C     C_R   0.306285 0.751554 0.916236 -0.085400
C151  C     C_R   0.693716 0.248446 0.083765 -0.085400
C152  C     C_R   0.153153 0.242086 0.988415 -0.092997
C153  C     C_R   0.846847 0.757914 0.011585 -0.093000
C154  C     C_R   0.824952 0.217043 0.981022 -0.105610
C155  C     C_R   0.175047 0.782957 0.018976 -0.105608
C156  C     C_R   0.653149 0.742089 0.988407 -0.093007
C157  C     C_R   0.346853 0.257909 0.011597 -0.093010
C158  C     C_R   0.324952 0.717044 0.981021 -0.105613
C159  C     C_R   0.360377 0.640096 0.110408 0.481972
C160  C     C_R   0.675049 0.282956 0.018980 -0.105613
C161  C     C_R   0.200967 0.245784 0.993302 0.013445
C162  C     C_R   0.799033 0.754216 0.006698 0.013445
C163  C     C_R   0.787393 0.232541 0.990517 0.014222
C164  C     C_R   0.212607 0.767459 0.009482 0.014224
C165  C     C_R   0.700966 0.745784 0.993298 0.013442
C166  C     C_R   0.299035 0.254214 0.006703 0.013442
C167  C     C_R   0.287393 0.732542 0.990517 0.014222
C168  C     C_R   0.712608 0.267458 0.009483 0.014222
C169  C     C_R   0.139529 0.140283 0.389260 0.482973
C170  C     C_R   0.790035 0.762536 0.683014 0.130941
C171  C     C_R   0.860471 0.859717 0.610739 0.482975
C172  C     C_R   0.860746 0.140400 0.611061 0.499999
C173  C     C_R   0.139254 0.859599 0.388939 0.500000
C174  C     C_R   0.639529 0.640284 0.389259 0.482977
C175  C     C_R   0.360471 0.359716 0.610740 0.482978
C176  C     C_R   0.360746 0.640401 0.611061 0.499999
C177  C     C_R   0.639254 0.359599 0.388939 0.500000
C178  C     C_R   0.753517 0.801901 0.044736 -0.001408
C179  C     C_R   0.246484 0.198097 0.955267 -0.001408
C180  C     C_R   0.232510 0.786454 0.935518 -0.005760
H1    H     H_    0.111126 0.055576 0.645436 0.178319
H2    H     H_    0.386143 0.301146 0.047609 0.154553
H3    H     H_    0.369209 0.678425 0.023234 0.128787
H4    H     H_    0.630792 0.321576 0.976768 0.128787
H5    H     H_    0.041244 0.744836 0.074675 0.164207
H6    H     H_    0.958773 0.255167 0.925343 0.164205
H7    H     H_    0.541258 0.244838 0.074689 0.164215
H8    H     H_    0.458745 0.755162 0.925314 0.164215
H9    H     H_    0.984106 0.129788 0.086030 0.109320
H10   H     H_    0.015905 0.870213 0.913981 0.109321
H11   H     H_    0.484089 0.629786 0.086012 0.109324
H12   H     H_    0.888875 0.944424 0.354565 0.178322
H13   H     H_    0.515913 0.370214 0.913989 0.109325
H14   H     H_    0.966008 0.245677 0.026860 0.139335
H15   H     H_    0.034015 0.754326 0.973163 0.139328
H16   H     H_    0.465975 0.745672 0.026826 0.139336
H17   H     H_    0.534029 0.254328 0.973177 0.139338
H18   H     H_    0.104996 0.932122 0.571320 0.171102
H19   H     H_    0.895005 0.067878 0.428681 0.171100
H20   H     H_    0.993252 0.873334 0.523398 0.172531
H21   H     H_    0.006749 0.126666 0.476603 0.172523
H22   H     H_    0.389387 0.443467 0.355017 0.178240
H23   H     H_    0.494156 0.373253 0.524303 0.172467
H24   H     H_    0.610606 0.556549 0.644972 0.178243
H25   H     H_    0.394421 0.567023 0.428073 0.171150
H26   H     H_    0.605604 0.433037 0.571956 0.171163
H27   H     H_    0.172141 0.138303 0.518969 0.156769
H28   H     H_    0.827872 0.861682 0.481038 0.156778
H29   H     H_    0.939862 0.254440 0.709039 0.170119
H30   H     H_    0.060138 0.745560 0.290962 0.170119
H31   H     H_    0.672104 0.638349 0.518944 0.156803
H32   H     H_    0.327904 0.361641 0.481061 0.156809
H33   H     H_    0.439863 0.754442 0.709035 0.170121
H34   H     H_    0.505810 0.626743 0.475663 0.172463
H35   H     H_    0.560137 0.245557 0.290966 0.170121
H36   H     H_    0.858549 0.830257 0.707382 0.151967
H37   H     H_    0.141452 0.169740 0.292619 0.151966
H38   H     H_    0.244918 0.938546 0.524880 0.145679
H39   H     H_    0.755082 0.061454 0.475121 0.145679
H40   H     H_    0.358533 0.330265 0.707372 0.151982
H41   H     H_    0.641461 0.669739 0.292623 0.151976
H42   H     H_    0.744919 0.438546 0.524879 0.145675
H43   H     H_    0.255081 0.561454 0.475120 0.145675
H44   H     H_    0.884149 0.707822 0.977900 0.171103
H45   H     H_    0.113858 0.198853 0.952395 0.154550
H46   H     H_    0.115854 0.292175 0.022106 0.171098
H47   H     H_    0.166079 0.762683 0.091898 0.141672
H48   H     H_    0.833919 0.237317 0.908099 0.141678
H49   H     H_    0.384176 0.207800 0.977943 0.171115
H50   H     H_    0.615831 0.792193 0.022068 0.171114
H51   H     H_    0.666079 0.262675 0.091899 0.141667
H52   H     H_    0.333922 0.737325 0.908103 0.141667
H53   H     H_    0.790672 0.901152 0.121386 0.127271
H54   H     H_    0.209333 0.098843 0.878623 0.127270
H55   H     H_    0.177735 0.866851 0.831590 0.151290
H56   H     H_    0.886141 0.801148 0.047604 0.154552
H57   H     H_    0.822264 0.133148 0.168409 0.151290
H58   H     H_    0.290695 0.401134 0.121424 0.127284
H59   H     H_    0.709310 0.598863 0.878583 0.127283
H60   H     H_    0.677727 0.366841 0.831579 0.151305
H61   H     H_    0.322274 0.633161 0.168422 0.151305
H62   H     H_    0.869212 0.178426 0.023238 0.128787
H63   H     H_    0.130786 0.821573 0.976759 0.128784
H64   H     H_    0.613858 0.698852 0.952393 0.154553
I1    I     I_    0.964404 0.168475 0.836621 -0.372678
I2    I     I_    0.333147 0.304492 0.796663 -0.305318
I3    I     I_    0.123127 0.471177 0.319116 -0.268286
I4    I     I_    0.876873 0.528823 0.680885 -0.268282
I5    I     I_    0.195956 0.160247 0.656684 -0.304134
I6    I     I_    0.804082 0.839707 0.343346 -0.304142
I7    I     I_    0.023126 0.392563 0.815964 -0.275184
I8    I     I_    0.976874 0.607436 0.184038 -0.275181
I9    I     I_    0.695832 0.660393 0.656571 -0.304151
I10   I     I_    0.304194 0.339573 0.343452 -0.304155
I11   I     I_    0.523127 0.892569 0.815949 -0.275164
I12   I     I_    0.035593 0.831525 0.163377 -0.372680
I13   I     I_    0.476872 0.107429 0.184057 -0.275162
I14   I     I_    0.697957 0.938194 0.124952 -0.244637
I15   I     I_    0.302057 0.061792 0.875073 -0.244621
I16   I     I_    0.224822 0.856463 0.764495 -0.341754
I17   I     I_    0.775177 0.143536 0.235504 -0.341763
I18   I     I_    0.198022 0.438148 0.125057 -0.244615
I19   I     I_    0.801990 0.561842 0.874963 -0.244601
I20   I     I_    0.724802 0.356435 0.764471 -0.341734
I21   I     I_    0.275198 0.643568 0.235530 -0.341761
I22   I     I_    0.464406 0.668474 0.836621 -0.372684
I23   I     I_    0.535595 0.331525 0.163379 -0.372686
I24   I     I_    0.166892 0.195435 0.203379 -0.305293
I25   I     I_    0.833122 0.804546 0.796634 -0.305299
I26   I     I_    0.623126 0.971174 0.319124 -0.268224
I27   I     I_    0.376873 0.028825 0.680879 -0.268219
I28   I     I_    0.666859 0.695492 0.203343 -0.305309
O1    O     O_3   0.999990 0.000000 0.249990 -0.454195
O2    O     O_R   0.585440 0.646160 0.804690 -0.529513
O3    O     O_R   0.585440 0.353840 0.804690 -0.542255
O4    O     O_R   0.414560 0.646160 0.195310 -0.542257
O5    O     O_R   0.085440 0.146150 0.366190 -0.542551
O6    O     O_R   0.914560 0.853850 0.633810 -0.542555
O7    O     O_R   0.914560 0.146150 0.633810 -0.540153
O8    O     O_R   0.085440 0.853850 0.366190 -0.540153
O9    O     O_R   0.585440 0.646150 0.366190 -0.542554
O10   O     O_R   0.414560 0.353850 0.633810 -0.542555
O11   O     O_R   0.414560 0.646150 0.633810 -0.540140
O12   O     O_3   0.000010 0.000000 0.750010 -0.454195
O13   O     O_R   0.585440 0.353850 0.366190 -0.540139
O14   O     O_R   0.853820 0.085430 0.073070 -0.538627
O15   O     O_R   0.146180 0.914570 0.926930 -0.538626
O16   O     O_R   0.146180 0.085430 0.926930 -0.527902
O17   O     O_R   0.853820 0.914570 0.073070 -0.527903
O18   O     O_R   0.353820 0.585430 0.073070 -0.538626
O19   O     O_R   0.646180 0.414570 0.926930 -0.538626
O20   O     O_R   0.646180 0.585430 0.926930 -0.527897
O21   O     O_R   0.353820 0.414570 0.073070 -0.527897
O22   O     O_R   0.146150 0.914540 0.365390 -0.515963
O23   O     O_3   0.499990 0.500000 0.249990 -0.454192
O24   O     O_R   0.853850 0.085460 0.634610 -0.515963
O25   O     O_R   0.853850 0.914540 0.634610 -0.543002
O26   O     O_R   0.146150 0.085460 0.365390 -0.543004
O27   O     O_R   0.646150 0.414540 0.365390 -0.515967
O28   O     O_R   0.353850 0.585460 0.634610 -0.515967
O29   O     O_R   0.353850 0.414540 0.634610 -0.543007
O30   O     O_R   0.646150 0.585460 0.365390 -0.543005
O31   O     O_R   0.939240 0.000000 0.071950 -0.534423
O32   O     O_R   0.060760 0.000000 0.928050 -0.534424
O33   O     O_R   0.439240 0.500000 0.071950 -0.534426
O34   O     O_3   0.500010 0.500000 0.750010 -0.454191
O35   O     O_R   0.560760 0.500000 0.928050 -0.534425
O36   O     O_R   0.000020 0.939290 0.367320 -0.532965
O37   O     O_R   0.999980 0.060710 0.632680 -0.532967
O38   O     O_R   0.999980 0.939290 0.632680 -0.540139
O39   O     O_R   0.000020 0.060710 0.367320 -0.540139
O40   O     O_R   0.500020 0.439290 0.367320 -0.532975
O41   O     O_R   0.499980 0.560710 0.632680 -0.532984
O42   O     O_R   0.499980 0.439290 0.632680 -0.540126
O43   O     O_R   0.500020 0.560710 0.367320 -0.540128
O44   O     O_R   0.060680 0.000000 0.193390 -0.514481
O45   O     O_R   0.914560 0.853840 0.195310 -0.529495
O46   O     O_R   0.939320 0.000000 0.806610 -0.514481
O47   O     O_R   0.560680 0.500000 0.193390 -0.514486
O48   O     O_R   0.439320 0.500000 0.806610 -0.514487
O49   O     O_R   0.085440 0.146160 0.804690 -0.529495
O50   O     O_R   0.085440 0.853840 0.804690 -0.542250
O51   O     O_R   0.914560 0.146160 0.195310 -0.542250
O52   O     O_R   0.414560 0.353840 0.195310 -0.529513
Zn1   Zn    Zn3+2 1.000000 0.086750 0.293940 0.944806
Zn2   Zn    Zn3+2 0.086780 0.000000 0.880710 0.956234
Zn3   Zn    Zn3+2 0.413220 0.500000 0.119290 0.956238
Zn4   Zn    Zn3+2 0.586780 0.500000 0.880710 0.956239
Zn5   Zn    Zn3+2 0.086730 0.000000 0.292800 0.967153
Zn6   Zn    Zn3+2 0.913270 0.000000 0.707200 0.967154
Zn7   Zn    Zn3+2 0.586730 0.500000 0.292800 0.967145
Zn8   Zn    Zn3+2 0.413270 0.500000 0.707200 0.967145
Zn9   Zn    Zn3+2 1.000000 0.913250 0.706060 0.944806
Zn10  Zn    Zn3+2 0.000000 0.086750 0.706060 0.961380
Zn11  Zn    Zn3+2 1.000000 0.913250 0.293940 0.961382
Zn12  Zn    Zn3+2 0.500000 0.586750 0.293940 0.944810
Zn13  Zn    Zn3+2 0.500000 0.413250 0.706060 0.944813
Zn14  Zn    Zn3+2 0.500000 0.586750 0.706060 0.961374
Zn15  Zn    Zn3+2 0.500000 0.413250 0.293940 0.961378
Zn16  Zn    Zn3+2 0.913220 0.000000 0.119290 0.956233

loop_
_geom_bond_atom_site_label_1
_geom_bond_atom_site_label_2
_ccdc_geom_bond_type
C21   C26   A    
O9    Zn12  S    
C142  C146  A    
C142  I21   S    
C74   C83   A    
O12   Zn6   S    
C31   I12   S    
O29   Zn8   S    
C79   C99   A    
C176  O11   A    
C7    C133  A    
C59   C66   S    
C146  H47   S    
C58   C60   S    
C29   C33   A    
O44   Zn5   S    
C150  H52   S    
C17   C39   A    
C2    C90   A    
C18   C40   A    
C90   H37   S    
C62   C64   S    
C131  C140  A    
C40   C43   A    
O26   Zn5   S    
C140  I19   S    
C1    O45   A    
C23   H16   S    
C136  I16   S    
C174  O30   A    
C128  C180  A    
C53   O37   A    
C21   H14   S    
C141  C145  A    
C7    C15   A    
C167  C180  A    
C83   I5    S    
C107  C124  A    
C158  C167  A    
C56   H18   S    
C25   C29   A    
C8    C93   S    
C27   C31   A    
C28   C32   A    
C5    C12   A    
C6    C132  A    
O42   Zn13  S    
C30   C34   A    
C58   C70   S    
C4    C130  A    
C148  O19   A    
C17   C21   A    
C82   C91   A    
C24   I26   S    
C42   C45   A    
C19   C23   A    
C138  I17   S    
C134  I14   S    
C57   C97   A    
O48   Zn8   S    
C1    O17   A    
C46   C84   A    
O19   Zn4   S    
C22   C27   A    
C36   C44   A    
O35   Zn4   S    
C37   C45   A    
C103  C121  A    
C50   O33   A    
O34   Zn14  S    
C174  O9    A    
C18   H10   S    
C46   I28   S    
C129  H57   S    
C3    C129  A    
C49   O32   A    
C120  C172  S    
C69   H34   S    
C93   O16   A    
C20   C42   A    
O13   Zn15  S    
C138  C151  A    
C33   C38   A    
C14   C126  S    
C56   C59   S    
C128  C136  A    
C80   C88   A    
C177  O13   A    
C121  C175  S    
C94   H39   S    
C28   H8    S    
C57   C85   A    
C160  C168  A    
O14   Zn16  S    
O17   Zn16  S    
C68   C98   A    
C67   H23   S    
C6    C16   A    
C152  H45   S    
C46   C96   A    
C6    C163  A    
C94   C102  A    
C96   H41   S    
C31   C36   A    
C76   C85   A    
C93   O49   A    
C44   C48   S    
C19   H11   S    
O22   Zn5   S    
C78   C87   A    
C116  C123  A    
C126  O52   A    
C133  C142  A    
C79   C170  A    
C169  O5    A    
C75   C84   A    
C65   C70   S    
O1    Zn11  S    
C111  C119  A    
C67   C72   S    
C27   H5    S    
C104  O50   A    
C156  H64   S    
O25   Zn6   S    
C139  C143  A    
O15   Zn2   S    
C151  H51   S    
C63   C69   S    
O24   Zn6   S    
C66   H12   S    
C81   C114  A    
C64   C73   S    
C14   C166  A    
O12   Zn10  S    
C158  H3    S    
C152  C161  A    
C80   H32   S    
C173  O8    A    
C4    C14   A    
C15   C167  A    
C95   C103  A    
C47   C50   S    
C74   H27   S    
C58   H19   S    
C146  C155  A    
C34   C39   A    
C55   O42   A    
C12   C165  A    
C118  C169  S    
C122  C174  S    
C82   H35   S    
C153  H56   S    
O51   Zn1   S    
C137  O20   A    
C61   H22   S    
C99   C117  A    
C61   C67   S    
C5    C131  A    
C59   H20   S    
C52   O36   A    
C41   C47   A    
C32   C37   A    
C62   H24   S    
C77   H30   S    
C145  C154  A    
C79   H36   S    
C26   C30   A    
O21   Zn3   S    
C22   H15   S    
C20   H13   S    
O40   Zn15  S    
C132  C141  A    
O50   Zn9   S    
C105  C109  A    
C18   C22   A    
C107  C111  A    
C34   C43   A    
O32   Zn2   S    
C85   I7    S    
C39   C44   A    
C124  C176  S    
C135  I15   S    
C149  H49   S    
O23   Zn12  S    
C132  H60   S    
C159  O18   A    
C26   H6    S    
C105  C122  A    
C48   O44   A    
C37   C41   A    
C54   O40   A    
C172  O7    A    
C113  C121  A    
C80   C113  A    
O33   Zn3   S    
C125  C178  A    
O23   Zn3   S    
O18   Zn3   S    
C155  H63   S    
C125  C134  A    
C96   C105  A    
C10   C163  A    
C123  C177  S    
C48   O31   A    
C109  C117  A    
C134  C147  A    
C175  O29   A    
C159  O4    A    
C127  C135  A    
C13   I27   S    
C20   C25   A    
C130  C139  A    
C137  O2    A    
C97   H42   S    
C77   C111  A    
O34   Zn4   S    
C51   O48   A    
C69   C73   S    
C11   C104  S    
C175  O10   A    
O23   Zn7   S    
C169  O26   A    
O38   Zn9   S    
C81   C89   A    
C128  H55   S    
C86   I8    S    
C101  C114  A    
C57   I4    S    
C53   C70   S    
O30   Zn7   S    
O27   Zn7   S    
C84   I6    S    
C1    C9    S    
C35   C83   A    
O16   Zn2   S    
C60   C71   S    
C61   C73   S    
C64   H26   S    
C98   C107  A    
C29   H7    S    
C62   C69   S    
O5    Zn1   S    
C15   C159  S    
C91   I13   S    
O34   Zn8   S    
C54   C73   S    
C75   H28   S    
C117  C171  S    
C66   C71   S    
C56   C71   S    
C170  I25   S    
C95   H40   S    
C53   O38   A    
C92   H38   S    
C147  C156  A    
O39   Zn1   S    
C171  O6    A    
C92   C101  A    
C97   C106  A    
C143  C152  A    
O10   Zn13  S    
C13   C92   A    
C100  C118  A    
C102  C120  A    
C172  O24   A    
C35   I2    S    
C115  O51   A    
C150  C158  A    
C176  O28   A    
O52   Zn15  S    
C140  C144  A    
O43   Zn12  S    
C88   I10   S    
C25   H17   S    
C35   C95   A    
C7    C164  A    
C153  C162  A    
C5    C162  A    
O37   Zn10  S    
C82   C116  A    
C52   C71   S    
C119  C173  S    
C50   O47   A    
C8    C179  A    
O47   Zn7   S    
C156  C165  A    
O2    Zn14  S    
C4    C161  A    
C59   C70   S    
C74   C108  A    
C60   H21   S    
C87   I9    S    
C63   C72   S    
C76   C110  A    
C63   H25   S    
C177  O27   A    
O41   Zn14  S    
C78   C112  A    
C11   C180  A    
C149  C157  A    
C78   H31   S    
C9    C178  A    
C19   C41   A    
O34   Zn13  S    
C76   H29   S    
C154  H62   S    
O1    Zn1   S    
C30   I1    S    
C68   C86   A    
C171  O25   A    
C65   H1    S    
C33   I23   S    
C16   C168  A    
C38   C42   A    
C8    C161  A    
C55   O41   A    
C147  H50   S    
C127  C179  A    
C45   C51   S    
C115  O14   A    
C56   C65   S    
C144  C153  A    
O28   Zn8   S    
C49   O46   A    
C133  H61   S    
C58   C66   S    
C129  C138  A    
C131  H59   S    
C106  C123  A    
C32   I22   S    
C103  C108  A    
O36   Zn11  S    
C55   C72   S    
O4    Zn12  S    
C114  C124  A    
C2    I24   S    
O1    Zn5   S    
C165  C178  A    
C90   C100  A    
C3    C168  A    
C68   I3    S    
C145  H48   S    
C81   H33   S    
C75   C109  A    
C101  C119  A    
C64   C67   S    
C108  C118  A    
C154  C163  A    
C36   C40   A    
C125  H53   S    
C110  C120  A    
C43   C49   S    
C17   H9    S    
C135  C149  A    
C87   C170  A    
C112  C122  A    
C24   C94   A    
O8    Zn11  S    
C98   H43   S    
C61   C63   S    
C148  O3    A    
C62   C72   S    
O31   Zn16  S    
C2    C88   A    
O12   Zn9   S    
C38   C47   A    
C51   O35   A    
C77   C86   A    
C89   I11   S    
C141  I20   S    
C23   C28   A    
C143  H46   S    
C24   C91   A    
C106  C110  A    
C130  H58   S    
C127  H54   S    
O49   Zn10  S    
C13   C89   A    
O11   Zn14  S    
O12   Zn2   S    
C100  C113  A    
O6    Zn9   S    
C157  C166  A    
C60   C65   S    
C136  C150  A    
C155  C164  A    
C173  O22   A    
C52   O39   A    
C16   C148  S    
O1    Zn16  S    
C151  C160  A    
C126  O21   A    
O23   Zn15  S    
C3    C10   A    
O45   Zn11  S    
C99   C112  A    
C11   C164  A    
C54   O43   A    
O7    Zn10  S    
C9    C162  A    
C144  H44   S    
C102  C116  A    
C104  O15   A    
C157  H2    S    
C139  I18   S    
C12   C137  S    
O46   Zn6   S    
C166  C179  A    
O3    Zn13  S    
C160  H4    S    
C10   C115  S    
O20   Zn4   S    
