data_mof_unit_1635.cif
_audit_creation_date              2012-10-26T20:55:24-0400
_audit_creation_method            fapswitch 2.2
_symmetry_space_group_name_H-M    P1
_symmetry_Int_Tables_number       1
_space_group_crystal_system       triclinic
_cell_length_a                    15.834593
_cell_length_b                    17.179915
_cell_length_c                    17.714017
_cell_angle_alpha                 81.476305
_cell_angle_beta                  93.885601
_cell_angle_gamma                 84.373561
_cell_volume                      4726.07218843

loop_
_atom_site_label
_atom_site_type_symbol
_atom_type_description
_atom_site_fract_x
_atom_site_fract_y
_atom_site_fract_z
_atom_type_partial_charge
C1    C     C_R   0.510172 0.348470 0.498270 0.570349
C2    C     C_R   0.489988 0.896659 0.528423 0.218611
C3    C     C_R   0.592132 0.134833 0.479348 0.257416
C4    C     C_R   0.412589 0.861424 0.533871 0.251174
C5    C     C_R   0.592570 0.215435 0.490245 0.230018
C6    C     C_R   0.411571 0.780568 0.524078 0.227633
C7    C     C_R   0.245441 0.451924 0.531056 0.103767
C8    C     C_R   0.754913 0.544645 0.462247 0.130174
C9    C     C_R   0.156932 0.461503 0.530395 -0.132603
C10   C     C_R   0.843740 0.528094 0.464007 -0.122168
C11   C     C_R   0.106391 0.525100 0.485047 0.178074
C12   C     C_R   0.489926 0.651641 0.500390 0.532610
C13   C     C_R   0.892900 0.474462 0.521524 0.176686
C14   C     C_R   0.150209 0.581200 0.437073 -0.028489
C15   C     C_R   0.848008 0.421073 0.571640 -0.024479
C16   C     C_R   0.509413 0.504692 0.649273 0.542861
C17   C     C_R   0.491011 0.499493 0.350138 0.539164
C18   C     C_R   0.241266 0.569740 0.442245 0.047430
C19   C     C_R   0.756912 0.430645 0.559655 0.048079
C20   C     C_R   0.513507 0.515740 0.731333 -0.038925
C21   C     C_R   0.490996 0.500813 0.266000 -0.021438
C22   C     C_R   0.437909 0.525155 0.770589 0.247290
C23   C     C_R   0.514525 0.263357 0.490444 -0.070429
C24   C     C_R   0.566539 0.515846 0.228906 0.271670
C25   C     C_R   0.445956 0.532192 0.849706 0.291093
C26   C     C_R   0.560751 0.530018 0.147064 0.287837
C27   C     C_R   0.526744 0.517950 0.890845 -0.023851
C28   C     C_R   0.488132 0.509184 0.105590 -0.010559
C29   C     C_R   0.599054 0.512426 0.851362 -0.187972
C30   C     C_R   0.416648 0.492062 0.143889 -0.188515
C31   C     C_R   0.594352 0.516149 0.772238 -0.069204
C32   C     C_R   0.415864 0.490015 0.222448 -0.079005
C33   C     C_2   0.540601 0.518037 0.973924 -0.117569
C34   C     C_R   0.486390 0.737052 0.507153 -0.075092
C35   C     C_2   0.481344 0.502026 0.023042 -0.094316
C36   C     C_3   0.296655 0.494831 0.767936 -0.098580
C37   C     C_3   0.715772 0.535181 0.243241 -0.058500
C38   C     C_R   0.718253 0.623434 0.407206 0.035297
C39   C     C_R   0.635440 0.643312 0.368025 -0.019053
C40   C     C_R   0.613889 0.708411 0.309917 -0.149310
C41   C     C_R   0.672924 0.760566 0.289719 -0.121147
C42   C     C_R   0.752204 0.749031 0.330075 -0.128476
C43   C     C_R   0.774220 0.683251 0.388043 -0.150707
C44   C     C_R   0.288203 0.375035 0.574342 0.052750
C45   C     C_R   0.438444 0.231233 0.476226 -0.180619
C46   C     C_R   0.342666 0.373394 0.640368 -0.068662
C47   C     C_R   0.381485 0.302977 0.683131 -0.136849
C48   C     C_R   0.359802 0.230928 0.665310 -0.111395
C49   C     C_R   0.297597 0.230540 0.605244 -0.113024
C50   C     C_R   0.263067 0.301810 0.559399 -0.129158
C51   C     C_R   0.106301 0.649597 0.378809 0.024438
C52   C     C_R   0.021575 0.650647 0.347648 -0.091693
C53   C     C_R   0.982695 0.713654 0.293403 -0.129525
C54   C     C_R   0.029791 0.773622 0.263124 -0.105447
C55   C     C_R   0.114947 0.772021 0.289184 -0.115846
C56   C     C_R   0.562963 0.771292 0.508560 -0.189516
C57   C     C_R   0.151702 0.713335 0.348609 -0.104848
C58   C     C_R   0.889407 0.355540 0.635782 0.021287
C59   C     C_R   0.978577 0.330519 0.644353 -0.083660
C60   C     C_R   0.014482 0.271352 0.704171 -0.123895
C61   C     C_R   0.963015 0.232423 0.755206 -0.102785
C62   C     C_R   0.875452 0.253881 0.747996 -0.121879
C63   C     C_R   0.839265 0.315346 0.690866 -0.124879
C64   C     C_R   0.336304 0.470683 0.256683 0.063206
C65   C     C_R   0.334350 0.399245 0.306297 -0.038221
C66   C     C_R   0.259677 0.382819 0.340433 -0.092301
C67   C     C_R   0.436776 0.151809 0.470406 0.228539
C68   C     C_R   0.185934 0.436086 0.323110 -0.107148
C69   C     C_R   0.186656 0.506090 0.271876 -0.120755
C70   C     C_R   0.261798 0.523891 0.239219 -0.098378
C71   C     C_R   0.676489 0.525099 0.736861 0.065583
C72   C     C_R   0.749085 0.472391 0.765934 -0.110690
C73   C     C_R   0.829318 0.486967 0.742374 -0.117470
C74   C     C_R   0.837541 0.551921 0.686743 -0.107938
C75   C     C_R   0.765485 0.603392 0.655515 -0.099737
C76   C     C_R   0.685585 0.591496 0.682018 -0.034133
C77   C     C_3   0.604680 0.643737 0.086742 -0.170227
C78   C     C_R   0.566221 0.847682 0.524604 0.232324
C79   C     C_3   0.361284 0.635891 0.879853 -0.135384
C80   C     C_3   0.687885 0.911365 0.514424 -0.063821
C81   C     C_3   0.323830 0.079871 0.492136 -0.080523
C82   C     C_3   0.729480 0.121641 0.433330 -0.093166
C83   C     C_3   0.264482 0.895947 0.526545 -0.108419
C84   C     C_3   0.702423 0.233870 0.572177 -0.123474
C85   C     C_3   0.337263 0.710833 0.610808 -0.078432
C86   C     C_R   0.514075 0.100819 0.478425 0.210939
Cu1   Cu    Cu3+1 0.585060 0.496170 0.503810 0.963041
Cu2   Cu    Cu3+1 0.414940 0.503830 0.496190 0.956283
H1    H     H_    0.876408 0.557897 0.418931 0.109143
H2    H     H_    0.378922 0.269412 0.466187 0.169678
H3    H     H_    0.258667 0.533403 0.800989 0.177102
H4    H     H_    0.325219 0.438586 0.805098 0.117729
H5    H     H_    0.249633 0.478334 0.725730 0.100479
H6    H     H_    0.705566 0.599584 0.220029 0.151462
H7    H     H_    0.738025 0.497285 0.200927 0.167423
H8    H     H_    0.768353 0.528272 0.289351 0.114932
H9    H     H_    0.581355 0.616165 0.380503 0.183395
H10   H     H_    0.549649 0.719147 0.281458 0.091638
H11   H     H_    0.655584 0.810906 0.244816 0.108275
H12   H     H_    0.128284 0.417190 0.566183 0.114291
H13   H     H_    0.797156 0.791632 0.316459 0.108273
H14   H     H_    0.836612 0.680285 0.417776 0.111409
H15   H     H_    0.348683 0.426102 0.662726 0.185569
H16   H     H_    0.426191 0.304947 0.732262 0.099760
H17   H     H_    0.388066 0.176071 0.699808 0.112272
H18   H     H_    0.275640 0.175044 0.595615 0.104181
H19   H     H_    0.215180 0.299935 0.512742 0.095399
H20   H     H_    0.985286 0.602042 0.361700 0.126983
H21   H     H_    0.916588 0.714455 0.272489 0.101529
H22   H     H_    0.000364 0.820555 0.218769 0.103395
H23   H     H_    0.277745 0.606253 0.405252 0.134656
H24   H     H_    0.152768 0.816648 0.263837 0.103609
H25   H     H_    0.216399 0.719072 0.369400 0.109812
H26   H     H_    0.023102 0.353129 0.605129 0.131449
H27   H     H_    0.083291 0.255384 0.710222 0.104868
H28   H     H_    0.990923 0.185530 0.800288 0.106297
H29   H     H_    0.834945 0.223418 0.787202 0.102047
H30   H     H_    0.771469 0.329732 0.693071 0.081695
H31   H     H_    0.391267 0.357633 0.320074 0.110923
H32   H     H_    0.259086 0.328755 0.380267 0.110607
H33   H     H_    0.128377 0.423361 0.349756 0.116860
H34   H     H_    0.717994 0.391610 0.590166 0.129471
H35   H     H_    0.129457 0.547211 0.258045 0.119460
H36   H     H_    0.262302 0.579253 0.200785 0.103253
H37   H     H_    0.743796 0.420913 0.808347 0.102143
H38   H     H_    0.885144 0.447005 0.766665 0.128132
H39   H     H_    0.899712 0.561789 0.667324 0.129081
H40   H     H_    0.771808 0.653105 0.611560 0.118625
H41   H     H_    0.630902 0.633696 0.659539 0.120994
H42   H     H_    0.585933 0.674074 0.135665 0.109371
H43   H     H_    0.553452 0.656631 0.039033 0.126173
H44   H     H_    0.662045 0.669313 0.065480 0.135991
H45   H     H_    0.423779 0.478824 0.002244 0.177174
H46   H     H_    0.353098 0.664802 0.818738 0.130651
H47   H     H_    0.413954 0.659003 0.911642 0.119823
H48   H     H_    0.301492 0.651707 0.906306 0.131197
H49   H     H_    0.701733 0.961255 0.547163 0.211640
H50   H     H_    0.654428 0.934717 0.456236 0.161004
H51   H     H_    0.751822 0.879133 0.506165 0.102977
H52   H     H_    0.354493 0.070065 0.551935 0.149150
H53   H     H_    0.324951 0.023231 0.469511 0.195874
H54   H     H_    0.255692 0.102877 0.493700 0.101192
H55   H     H_    0.777743 0.141401 0.474408 0.157961
H56   H     H_    0.604296 0.528783 0.993155 0.188058
H57   H     H_    0.702438 0.170985 0.386780 0.155792
H58   H     H_    0.765344 0.076380 0.405193 0.103564
H59   H     H_    0.233899 0.848436 0.560112 0.168486
H60   H     H_    0.266740 0.887290 0.465647 0.132322
H61   H     H_    0.222036 0.951152 0.527445 0.094564
H62   H     H_    0.710890 0.169450 0.595459 0.129323
H63   H     H_    0.662176 0.266869 0.608610 0.110411
H64   H     H_    0.766560 0.254521 0.573728 0.139886
H65   H     H_    0.336737 0.757166 0.648487 0.119988
H66   H     H_    0.392199 0.665092 0.629797 0.166053
H67   H     H_    0.661031 0.508949 0.882836 0.122365
H68   H     H_    0.278152 0.681753 0.617637 0.159256
H69   H     H_    0.359730 0.479076 0.112242 0.126181
H70   H     H_    0.622809 0.735723 0.505310 0.169668
N1    N     N_2   0.513850 0.018367 0.474477 -0.213812
N2    N     N_2   0.491324 0.978654 0.534080 -0.204703
N3    N     N_R   0.287170 0.509590 0.490460 -0.233894
N4    N     N_R   0.712830 0.490410 0.509540 -0.232836
N5    N     N_2   0.014335 0.530254 0.485637 -0.263336
N6    N     N_2   0.984737 0.473194 0.525307 -0.269838
O1    O     O_R   0.579730 0.382480 0.503570 -0.454318
O2    O     O_3   0.643089 0.509081 0.276323 -0.549022
O3    O     O_3   0.625989 0.561252 0.109103 -0.616762
O4    O     O_3   0.374639 0.552775 0.886284 -0.604392
O5    O     O_3   0.641111 0.860928 0.562792 -0.567547
O6    O     O_3   0.361654 0.131495 0.438605 -0.572806
O7    O     O_3   0.666249 0.084149 0.475432 -0.605613
O8    O     O_3   0.345395 0.903693 0.562168 -0.590366
O9    O     O_3   0.668257 0.249178 0.495200 -0.552064
O10   O     O_3   0.338281 0.743601 0.533112 -0.574165
O11   O     O_R   0.420270 0.617520 0.496430 -0.460413
O12   O     O_R   0.436070 0.388960 0.497130 -0.511138
O13   O     O_R   0.563930 0.611040 0.502870 -0.551334
O14   O     O_R   0.580160 0.496380 0.617190 -0.518251
O15   O     O_R   0.419840 0.503620 0.382810 -0.518249
O16   O     O_R   0.436500 0.502850 0.610750 -0.480831
O17   O     O_R   0.563500 0.497150 0.389250 -0.461720
O18   O     O_3   0.358116 0.536941 0.729052 -0.588327

loop_
_geom_bond_atom_site_label_1
_geom_bond_atom_site_label_2
_ccdc_geom_bond_type
C81   H52   S    
C66   C68   A    
Cu1   Cu2   S    
C19   H34   S    
C34   C56   A    
C16   O16   A    
C23   C45   A    
C55   H24   S    
C30   H69   S    
C41   C42   A    
C14   C18   A    
C24   O2    S    
N5    N6    D    
C3    O7    S    
C35   H45   S    
C49   C50   A    
C1    O12   A    
Cu1   O1    S    
C53   C54   A    
C27   C33   S    
C15   C19   A    
C79   H48   S    
C7    N3    A    
C54   H22   S    
Cu2   O11   S    
Cu2   O15   S    
C24   C26   A    
N1    N2    D    
C40   H10   S    
C38   C39   A    
C18   N3    A    
C39   H9    S    
C27   C29   A    
C69   H35   S    
C44   C50   A    
C73   H38   S    
C56   C78   A    
C37   H7    S    
C75   H40   S    
C73   C74   A    
C10   H1    S    
C62   H29   S    
C56   H70   S    
C33   C35   D    
C82   O7    S    
C36   H5    S    
C14   C51   S    
C28   C35   S    
C16   O14   A    
C68   C69   A    
C22   C25   A    
C45   C67   A    
C41   H11   S    
C51   C57   A    
C64   C70   A    
C79   O4    S    
C86   N1    S    
C19   N4    A    
C29   H67   S    
C85   H66   S    
C17   O15   A    
C31   C71   S    
C12   O13   A    
C59   C60   A    
C33   H56   S    
C48   H17   S    
C66   H32   S    
C77   O3    S    
C3    C86   A    
C61   C62   A    
C8    C38   S    
C80   O5    S    
C61   H28   S    
C82   H58   S    
C44   C46   A    
Cu2   O16   S    
C67   O6    S    
C21   C32   A    
C26   O3    S    
C74   C75   A    
C51   C52   A    
C47   C48   A    
C18   H23   S    
C32   C64   S    
C4    C6    A    
C39   C40   A    
C63   H30   S    
C72   C73   A    
C57   H25   S    
C6    O10   S    
C58   C59   A    
C7    C44   S    
C78   O5    S    
C17   C21   S    
C6    C34   A    
C37   H8    S    
C60   C61   A    
C77   H44   S    
C2    C4    A    
C75   C76   A    
C62   C63   A    
C2    C78   A    
C17   O17   A    
Cu1   O13   S    
C25   O4    S    
C74   H39   S    
C5    C23   A    
C1    O1    A    
C16   C20   S    
C83   O8    S    
C22   O18   S    
C76   H41   S    
C11   N5    S    
C85   O10   S    
C65   H31   S    
C85   H65   S    
C81   O6    S    
C45   H2    S    
C9    C11   A    
C37   O2    S    
C12   O11   A    
C83   H59   S    
C84   H64   S    
C36   H3    S    
C8    C10   A    
C81   H54   S    
C20   C22   A    
C81   H53   S    
C1    C23   S    
C9    H12   S    
C55   C57   A    
C50   H19   S    
C15   C58   S    
C36   O18   S    
C42   C43   A    
C12   C34   S    
C84   O9    S    
C42   H13   S    
C82   H57   S    
C52   C53   A    
C13   N6    S    
C53   H21   S    
C58   C63   A    
C7    C9    A    
C79   H46   S    
C46   C47   A    
C48   C49   A    
C67   C86   A    
C47   H16   S    
C4    O8    S    
C5    O9    S    
C77   H43   S    
C82   H55   S    
C3    C5    A    
C10   C13   A    
C68   H33   S    
Cu1   O17   S    
C54   C55   A    
C49   H18   S    
C25   C27   A    
C80   H51   S    
C79   H47   S    
C46   H15   S    
C26   C28   A    
Cu2   O12   S    
C72   H37   S    
C64   C65   A    
C13   C15   A    
C43   H14   S    
C38   C43   A    
C29   C31   A    
C8    N4    A    
Cu1   O14   S    
C30   C32   A    
C36   H4    S    
C71   C76   A    
C59   H26   S    
C80   H50   S    
C28   C30   A    
C11   C14   A    
C37   H6    S    
C77   H42   S    
C69   C70   A    
Cu2   N3    S    
C83   H60   S    
C84   H63   S    
C70   H36   S    
C71   C72   A    
Cu1   N4    S    
C52   H20   S    
C2    N2    S    
C65   C66   A    
C21   C24   A    
C60   H27   S    
C40   C41   A    
C85   H68   S    
C80   H49   S    
C83   H61   S    
C20   C31   A    
C84   H62   S    
