data_mof_unit_464.cif
_audit_creation_date              2012-12-10T17:15:53-0500
_audit_creation_method            fapswitch 2.2
_symmetry_space_group_name_H-M    P1
_symmetry_Int_Tables_number       1
_space_group_crystal_system       triclinic
_cell_length_a                    10.161448
_cell_length_b                    10.745621
_cell_length_c                    10.744852
_cell_angle_alpha                 90.229597
_cell_angle_beta                  94.791931
_cell_angle_gamma                 80.684353
_cell_volume                      1153.66779267

loop_
_atom_site_label
_atom_site_type_symbol
_atom_type_description
_atom_site_fract_x
_atom_site_fract_y
_atom_site_fract_z
_atom_type_partial_charge
C1    C     C_R   0.444870 0.515853 0.266831 0.884649
C2    C     C_R   0.631970 0.042000 0.505957 0.042573
C3    C     C_R   0.513006 0.125435 0.527325 -0.080551
C4    C     C_R   0.394318 0.079720 0.541829 -0.223962
C5    C     C_R   0.389062 0.954183 0.524724 -0.195487
C6    C     C_R   0.500254 0.874185 0.485764 -0.081697
C7    C     C_2   0.415290 0.541052 0.133520 -0.225969
C8    C     C_2   0.508845 0.577713 0.064616 -0.026725
C9    C     C_2   0.585921 0.512224 0.864673 -0.340119
C10   C     C_2   0.490467 0.575008 0.929998 -0.195465
C11   C     C_2   0.072986 0.484763 0.497716 0.037688
C12   C     C_R   0.504476 0.259867 0.512488 0.877276
C13   C     C_2   0.925410 0.506350 0.516195 -0.023920
C14   C     C_R   0.555460 0.496213 0.732882 0.927497
C15   C     C_R   0.498384 0.740488 0.491439 0.858480
C16   C     C_R   0.762217 0.074071 0.524493 -0.364402
C17   C     C_R   0.872719 0.997484 0.477628 0.500601
C18   C     C_R   0.852436 0.889092 0.411797 0.509794
C19   C     C_R   0.726826 0.851943 0.404593 -0.358090
C20   C     C_R   0.619231 0.921289 0.463817 0.035451
H1    H     H_    0.305003 0.141320 0.565829 0.172171
H2    H     H_    0.112277 0.403805 0.443564 0.073885
H3    H     H_    0.880463 0.394881 0.376504 0.152978
H4    H     H_    0.780163 0.154986 0.579502 0.195877
H5    H     H_    0.715436 0.769291 0.350712 0.218117
H6    H     H_    0.297440 0.920156 0.541968 0.218118
H7    H     H_    0.392663 0.614154 0.885817 0.162534
H8    H     H_    0.684216 0.472925 0.908187 0.158787
N1    N     N_2   0.157290 0.551390 0.551110 0.086270
N2    N     N_2   0.842740 0.448550 0.448960 -0.247051
O1    O     O_R   0.568950 0.489660 0.307530 -0.603570
O2    O     O_R   0.348880 0.522640 0.340350 -0.592347
O3    O     O_R   0.610060 0.300270 0.483590 -0.621009
O4    O     O_R   0.389990 0.333260 0.516410 -0.638021
O5    O     O_R   0.651120 0.477360 0.659650 -0.624225
O6    O     O_R   0.431050 0.510340 0.692470 -0.631887
O7    O     O_R   0.610010 0.666740 0.483590 -0.622376
O8    O     O_R   0.389940 0.699730 0.516410 -0.599855
Zn1   Zn    Zn3+2 0.646940 0.477980 0.478090 0.939994
Zn2   Zn    Zn3+2 0.353060 0.522020 0.521910 0.993731
C21   C     C_1   0.286514 0.518564 0.077014 0.160402
N3    N     N_1   0.183786 0.500694 0.032094 -0.218659
C22   C     C_1   0.874976 0.587028 0.615275 0.412906
N4    N     N_1   0.835775 0.652373 0.694672 -0.222841
O9    O     O_3   0.103763 0.668250 0.585460 -0.493646
C23   C     C_3   0.163270 0.689731 0.704704 -0.110928
H9    H     H_    0.262662 0.717526 0.698800 0.175914
H10   H     H_    0.170144 0.606708 0.768078 0.124471
H11   H     H_    0.099521 0.769686 0.747012 0.145733
O10   O     O_3   0.001963 0.023442 0.497859 -0.577646
C24   C     C_3   0.007995 0.145444 0.453320 -0.371266
H12   H     H_    0.983903 0.215703 0.527399 0.172603
H13   H     H_    0.942110 0.170842 0.365850 0.147029
H14   H     H_    0.111465 0.148720 0.430020 0.192591
O11   O     O_3   0.958349 0.812312 0.363779 -0.539394
C25   C     C_3   0.970352 0.854557 0.241912 -0.256640
H15   H     H_    0.996677 0.951135 0.242644 0.159221
H16   H     H_    0.877214 0.851919 0.180194 0.147647
H17   H     H_    0.052602 0.790485 0.201680 0.198969
C26   C     C_1   0.635449 0.610359 0.116774 0.224685
N5    N     N_1   0.737402 0.635069 0.156215 -0.220896

loop_
_geom_bond_atom_site_label_1
_geom_bond_atom_site_label_2
_ccdc_geom_bond_type
C10   H7    S    
C17   O10   S    
O5    Zn1   S    
C9    C14   S    
C15   O8    A    
C24   H12   S    
C25   H16   S    
O7    Zn1   S    
C6    C20   A    
C21   N3    T    
C11   H2    S    
C19   C20   A    
C25   H17   S    
C1    O1    A    
O11   C25   S    
C24   H14   S    
C13   C22   S    
C7    C21   S    
O10   C24   S    
C6    C15   S    
C7    C8    D    
C16   H4    S    
O9    C23   S    
C8    C26   S    
O8    Zn2   S    
C4    H1    S    
C11   C13   S    
C23   H11   S    
O3    Zn1   S    
C18   O11   S    
O4    Zn2   S    
C4    C5    A    
N1    Zn2   S    
O1    Zn1   S    
N2    Zn1   S    
C17   C18   A    
C2    C3    A    
O2    Zn2   S    
C22   N4    T    
C14   O6    A    
C5    C6    A    
C19   H5    S    
C23   H10   S    
C12   O4    A    
C5    H6    S    
H3    N2    S    
C13   N2    D    
O6    Zn2   S    
C2    C16   A    
C25   H15   S    
C11   N1    D    
C8    C10   S    
C18   C19   A    
C9    C10   D    
C14   O5    A    
C23   H9    S    
C16   C17   A    
C3    C12   S    
C12   O3    A    
C1    C7    S    
C2    C20   A    
C1    O2    A    
C15   O7    A    
C3    C4    A    
C9    H8    S    
N1    O9    S    
C26   N5    T    
C24   H13   S    
