data_mof_unit_194.cif
_audit_creation_date              2012-12-10T20:37:27-0500
_audit_creation_method            fapswitch 2.2
_symmetry_space_group_name_H-M    P1
_symmetry_Int_Tables_number       1
_space_group_crystal_system       triclinic
_cell_length_a                    15.753858
_cell_length_b                    10.662627
_cell_length_c                    9.879662
_cell_angle_alpha                 89.331788
_cell_angle_beta                  90.318565
_cell_angle_gamma                 90.692271
_cell_volume                      1659.30268173

loop_
_atom_site_label
_atom_site_type_symbol
_atom_type_description
_atom_site_fract_x
_atom_site_fract_y
_atom_site_fract_z
_atom_type_partial_charge
C1    C     C_R   0.503359 0.259739 0.500734 0.949634
C2    C     C_3   0.083317 0.495821 0.505959 0.021469
C3    C     C_3   0.974317 0.613737 0.453901 -0.397562
C4    C     C_3   0.916373 0.503328 0.501152 -0.023386
C5    C     C_3   0.028483 0.516542 0.379314 0.385992
C6    C     C_3   0.970434 0.408700 0.425612 0.425294
C7    C     C_1   0.174043 0.496397 0.503133 0.085082
C8    C     C_1   0.825715 0.503261 0.500323 0.048340
C9    C     C_R   0.527207 0.062097 0.623177 -0.019710
C10   C     C_R   0.521191 0.128933 0.501749 -0.163811
C11   C     C_R   0.540208 0.068431 0.380205 -0.214320
C12   C     C_R   0.337991 0.499490 0.499831 0.921605
C13   C     C_R   0.547523 0.938782 0.378544 0.445430
C14   C     C_R   0.528855 0.870488 0.499065 -0.264489
C15   C     C_R   0.529272 0.934064 0.621514 -0.082497
C16   C     C_3   0.478837 0.920121 0.749876 0.754444
C17   C     C_3   0.478282 0.064320 0.753780 0.445614
C18   C     C_R   0.425583 0.492085 0.070483 0.171657
C19   C     C_R   0.572049 0.525189 0.073127 -0.125302
C20   C     C_R   0.571695 0.530282 0.929782 0.468541
C21   C     C_R   0.425499 0.493233 0.928349 0.127538
C22   C     C_3   0.358645 0.393667 0.922509 -0.018952
C23   C     C_R   0.507438 0.739681 0.499228 0.904918
C24   C     C_3   0.359675 0.390570 0.077165 -0.546938
C25   C     C_R   0.661946 0.500514 0.500268 0.870078
C26   C     C_3   0.971007 0.482477 0.628222 0.147813
C27   C     C_3   0.025270 0.385121 0.553597 -0.417396
C28   C     C_1   0.249197 0.497761 0.500444 -0.140140
C29   C     C_1   0.750612 0.502129 0.500516 -0.142162
C30   C     C_3   0.029176 0.590515 0.581934 0.450884
H1    H     H_    0.046654 0.293038 0.593721 0.185211
H2    H     H_    0.630029 0.546014 0.127903 0.182057
H3    H     H_    0.380820 0.307784 0.873470 0.191949
H4    H     H_    0.300034 0.422914 0.124454 0.232043
H5    H     H_    0.384968 0.301666 0.120265 0.198207
H6    H     H_    0.953027 0.705753 0.413462 0.186254
H7    H     H_    0.546534 0.120344 0.285748 0.192332
N1    N     N_R   0.499430 0.499140 0.142800 -0.139610
N2    N     N_R   0.499430 0.499180 0.857150 -0.175538
O1    O     O_R   0.500010 0.316790 0.614690 -0.592329
O2    O     O_R   0.500000 0.316760 0.385350 -0.637951
O3    O     O_R   0.376780 0.500010 0.614650 -0.576054
O4    O     O_R   0.376770 0.499970 0.385310 -0.611583
O5    O     O_R   0.500000 0.683240 0.614650 -0.572534
O6    O     O_R   0.499990 0.683210 0.385310 -0.601746
O7    O     O_R   0.623230 0.500030 0.614690 -0.607974
O8    O     O_R   0.623220 0.499990 0.385350 -0.634387
Zn1   Zn    Zn3+2 0.500010 0.500020 0.653130 1.009292
Zn2   Zn    Zn3+2 0.499990 0.499980 0.346870 0.963409
O9    O     O_3   0.526027 0.862884 0.853790 -0.749224
H8    H     H_    0.490864 0.867503 0.936561 0.364538
O10   O     O_3   0.397019 0.115053 0.736537 -0.807974
H9    H     H_    0.364334 0.090677 0.818537 0.334407
N3    N     N_2   0.524541 0.118549 0.868770 -0.313165
H10   H     H_    0.498101 0.198033 0.907757 0.224184
C31   C     C_3   0.616519 0.126006 0.865688 -0.709671
H11   H     H_    0.640804 0.152701 0.967196 0.244627
H12   H     H_    0.637412 0.198556 0.790985 0.236754
H13   H     H_    0.644029 0.034161 0.839475 0.271330
O11   O     O_3   0.643512 0.574559 0.867089 -0.738892
H14   H     H_    0.623874 0.636151 0.798344 0.381287
N4    N     N_2   0.280261 0.441288 0.865088 -0.242818
H15   H     H_    0.257359 0.521644 0.908511 0.261934
C32   C     C_3   0.215823 0.347212 0.838357 -0.742619
H16   H     H_    0.163931 0.390091 0.778358 0.241757
H17   H     H_    0.189876 0.309296 0.935032 0.242272
H18   H     H_    0.242311 0.269775 0.777980 0.260725
N5    N     N_2   0.934299 0.467612 0.761610 -0.287807
H19   H     H_    0.883061 0.406554 0.763253 0.246858
C33   C     C_3   0.993837 0.443927 0.870258 -0.715041
H20   H     H_    0.960096 0.446555 0.968492 0.248080
H21   H     H_    0.044749 0.516817 0.871296 0.275946
H22   H     H_    0.021853 0.349559 0.859185 0.228030
O12   O     O_3   0.936984 0.316125 0.340940 -0.744239
H23   H     H_    0.986826 0.270637 0.306680 0.343507
O13   O     O_3   0.061172 0.530993 0.248729 -0.752667
H24   H     H_    0.011355 0.548074 0.189978 0.342867
O14   O     O_3   0.062829 0.683803 0.665498 -0.742007
H25   H     H_    0.013039 0.729099 0.700227 0.344726
O15   O     O_3   0.567552 0.883549 0.257641 -0.737192
H26   H     H_    0.603508 0.810149 0.278569 0.343777
O16   O     O_3   0.398244 0.862745 0.733075 -0.748329
H27   H     H_    0.372557 0.894419 0.647437 0.335324

loop_
_geom_bond_atom_site_label_1
_geom_bond_atom_site_label_2
_ccdc_geom_bond_type
C23   O6    A    
C18   C21   A    
C2    C7    S    
C4    C8    S    
O8    Zn2   S    
N1    Zn2   S    
C26   C27   S    
C12   C28   S    
C18   C24   S    
C8    C29   T    
C16   O9    S    
C12   O4    A    
C5    C6    S    
C15   C16   S    
C31   H11   S    
C11   H7    S    
N4    C32   S    
C1    O1    A    
N5    H19   S    
C19   C20   A    
C16   C17   S    
C12   O3    A    
C33   H20   S    
C20   O11   S    
C9    C10   A    
C25   O8    A    
C13   O15   S    
C13   C14   A    
C19   H2    S    
C17   O10   S    
O2    Zn2   S    
C6    O12   S    
O7    Zn1   S    
C25   C29   S    
N3    C31   S    
C24   H5    S    
O12   H23   S    
C27   H1    S    
C32   H18   S    
O13   H24   S    
C4    C6    S    
C20   N2    A    
O14   H25   S    
O4    Zn2   S    
C24   H4    S    
C23   O5    A    
O11   H14   S    
C32   H17   S    
C14   C23   S    
C3    C30   S    
N4    H15   S    
C19   N1    A    
C22   N4    S    
C6    C27   S    
C21   N2    A    
O6    Zn2   S    
C33   H22   S    
C16   O16   S    
O9    H8    S    
O3    Zn1   S    
C2    C27   S    
C1    O2    A    
C26   C30   S    
C22   C24   S    
C2    C5    S    
C3    C4    S    
O10   H9    S    
C9    C17   S    
O1    Zn1   S    
C22   H3    S    
N3    H10   S    
C1    C10   S    
O15   H26   S    
C3    C5    S    
C4    C26   S    
C31   H13   S    
C2    C30   S    
C26   N5    S    
C32   H16   S    
C5    O13   S    
C18   N1    A    
C11   C13   A    
C3    H6    S    
C25   O7    A    
C31   H12   S    
C9    C15   A    
C10   C11   A    
C7    C28   T    
C30   O14   S    
N5    C33   S    
O16   H27   S    
C14   C15   A    
C33   H21   S    
C21   C22   S    
C17   N3    S    
O5    Zn1   S    
N2    Zn1   S    
