data_mof_unit_3878.cif
_audit_creation_date              2012-12-11T14:30:01-0500
_audit_creation_method            fapswitch 2.2
_symmetry_space_group_name_H-M    P1
_symmetry_Int_Tables_number       1
_space_group_crystal_system       triclinic
_cell_length_a                    12.617265
_cell_length_b                    12.617562
_cell_length_c                    26.801651
_cell_angle_alpha                 89.997869
_cell_angle_beta                  90.003401
_cell_angle_gamma                 120.001879
_cell_volume                      3695.08665278

loop_
_atom_site_label
_atom_site_type_symbol
_atom_type_description
_atom_site_fract_x
_atom_site_fract_y
_atom_site_fract_z
_atom_type_partial_charge
C1    C     C_R   0.556148 0.457959 0.821570 0.542089
C2    C     C_R   0.901795 0.443842 0.678427 0.542098
C3    C     C_R   0.542040 0.098188 0.821571 0.542105
C4    C     C_R   0.556148 0.457957 0.678428 0.542082
C5    C     C_R   0.901813 0.443850 0.821571 0.542083
C6    C     C_R   0.542038 0.098216 0.678418 0.542087
C7    C     C_R   0.457963 0.556143 0.321568 0.542090
C8    C     C_R   0.443854 0.901815 0.178430 0.542062
C9    C     C_R   0.098184 0.542038 0.321568 0.542081
C10   C     C_R   0.457959 0.556147 0.178430 0.542081
C11   C     C_R   0.443883 0.901842 0.321557 0.542090
C12   C     C_R   0.098184 0.542040 0.178431 0.542074
C13   C     C_R   0.997582 0.501447 0.973756 0.049109
C14   C     C_R   0.504012 0.002776 0.526184 0.049100
C15   C     C_R   0.498540 0.496139 0.973753 0.049109
C16   C     C_R   0.997555 0.501430 0.526240 0.049089
C17   C     C_R   0.503861 0.002402 0.973754 0.049105
C18   C     C_R   0.498559 0.496110 0.526239 0.049116
C19   C     C_R   0.501683 0.998000 0.473687 0.049106
C20   C     C_R   0.002357 0.503844 0.026253 0.049108
C21   C     C_R   0.496167 0.498493 0.473742 0.049129
C22   C     C_R   0.501472 0.997620 0.026251 0.049108
C23   C     C_R   0.002335 0.503828 0.473743 0.049103
C24   C     C_R   0.496147 0.498529 0.026250 0.049111
C25   C     C_R   0.992042 0.691450 0.974087 -0.122701
C26   C     C_R   0.699317 0.007796 0.525910 -0.122691
C27   C     C_R   0.308584 0.300543 0.974094 -0.122707
C28   C     C_R   0.992036 0.691446 0.525901 -0.122687
C29   C     C_R   0.699460 0.008043 0.974101 -0.122697
C30   C     C_R   0.308579 0.300546 0.525898 -0.122700
C31   C     C_R   0.691289 0.991680 0.474104 -0.122711
C32   C     C_R   0.008155 0.699511 0.025894 -0.122697
C33   C     C_R   0.300518 0.308603 0.474091 -0.122715
C34   C     C_R   0.691401 0.991925 0.025907 -0.122705
C35   C     C_R   0.008159 0.699511 0.474095 -0.122703
C36   C     C_R   0.300523 0.308603 0.025900 -0.122707
C37   C     C_R   0.966098 0.580628 0.896168 -0.152710
C38   C     C_R   0.614478 0.033899 0.603809 -0.152696
C39   C     C_R   0.419386 0.385435 0.896172 -0.152712
C40   C     C_R   0.966071 0.580616 0.603824 -0.152642
C41   C     C_R   0.614564 0.033948 0.896175 -0.152712
C42   C     C_R   0.419393 0.385426 0.603821 -0.152716
C43   C     C_R   0.580649 0.966009 0.396154 -0.152741
C44   C     C_R   0.033980 0.614586 0.103826 -0.152718
C45   C     C_R   0.385433 0.419373 0.396165 -0.152779
C46   C     C_R   0.580614 0.966045 0.103830 -0.152723
C47   C     C_R   0.033975 0.614580 0.396168 -0.152722
C48   C     C_R   0.385425 0.419389 0.103826 -0.152720
C49   C     C_R   0.033464 0.517603 0.129982 0.001014
C50   C     C_R   0.484284 0.966685 0.369973 0.001006
C51   C     C_R   0.482397 0.515881 0.129980 0.001017
C52   C     C_R   0.033462 0.517598 0.370014 0.001015
C53   C     C_R   0.484119 0.966520 0.129980 0.001018
C54   C     C_R   0.482408 0.515858 0.370014 0.001008
C55   C     C_R   0.517589 0.033653 0.629930 0.001025
C56   C     C_R   0.966518 0.484102 0.870024 0.001018
C57   C     C_R   0.515894 0.482390 0.629972 0.001025
C58   C     C_R   0.517599 0.033488 0.870023 0.001014
C59   C     C_R   0.966500 0.484095 0.629973 0.001023
C60   C     C_R   0.515889 0.482399 0.870022 0.001020
C61   C     C_R   0.987583 0.593174 0.947691 0.012334
C62   C     C_R   0.605590 0.012488 0.552280 0.012379
C63   C     C_R   0.406837 0.394382 0.947693 0.012327
C64   C     C_R   0.987561 0.593162 0.552302 0.012344
C65   C     C_R   0.605618 0.012455 0.947697 0.012335
C66   C     C_R   0.406845 0.394370 0.552299 0.012354
C67   C     C_R   0.593218 0.987582 0.447668 0.012280
C68   C     C_R   0.012485 0.605637 0.052304 0.012317
C69   C     C_R   0.394384 0.406820 0.447686 0.012316
C70   C     C_R   0.593163 0.987540 0.052310 0.012321
C71   C     C_R   0.012476 0.605629 0.447688 0.012291
C72   C     C_R   0.394375 0.406840 0.052306 0.012321
C73   C     C_R   0.004743 0.409597 0.894977 0.002568
C74   C     C_R   0.404960 0.995745 0.604932 0.002613
C75   C     C_R   0.590366 0.595145 0.894967 0.002561
C76   C     C_R   0.004727 0.409587 0.605024 0.002591
C77   C     C_R   0.404850 0.995220 0.894966 0.002557
C78   C     C_R   0.590383 0.595125 0.605023 0.002565
C79   C     C_R   0.410060 0.005335 0.394860 0.002497
C80   C     C_R   0.995124 0.404835 0.105047 0.002546
C81   C     C_R   0.595172 0.590295 0.394953 0.002529
C82   C     C_R   0.409657 0.004811 0.105036 0.002548
C83   C     C_R   0.995116 0.404826 0.394951 0.002537
C84   C     C_R   0.595153 0.590342 0.105039 0.002553
C85   C     C_R   0.003387 0.407571 0.947439 0.034625
C86   C     C_R   0.404415 0.997234 0.552469 0.034629
C87   C     C_R   0.592393 0.595836 0.947430 0.034626
C88   C     C_R   0.003353 0.407550 0.552562 0.034620
C89   C     C_R   0.404162 0.996560 0.947429 0.034630
C90   C     C_R   0.592421 0.595800 0.552561 0.034629
C91   C     C_R   0.408042 0.004168 0.447325 0.034636
C92   C     C_R   0.996440 0.404122 0.052584 0.034629
C93   C     C_R   0.595882 0.592314 0.447417 0.034631
C94   C     C_R   0.407633 0.003488 0.052574 0.034633
C95   C     C_R   0.996417 0.404105 0.447416 0.034624
C96   C     C_R   0.595853 0.592368 0.052576 0.034625
C97   C     C_R   0.995974 0.308022 0.025861 -0.127991
C98   C     C_R   0.312564 0.005013 0.474020 -0.127985
C99   C     C_R   0.691926 0.688027 0.025848 -0.127993
C100  C     C_R   0.995938 0.307996 0.474145 -0.127979
C101  C     C_R   0.311976 0.003909 0.025844 -0.127989
C102  C     C_R   0.691973 0.687956 0.474145 -0.128017
C103  C     C_R   0.308609 0.997292 0.525706 -0.127985
C104  C     C_R   0.003718 0.311881 0.974175 -0.127993
C105  C     C_R   0.688109 0.691834 0.525830 -0.128004
C106  C     C_R   0.308109 0.996184 0.974157 -0.127987
C107  C     C_R   0.003669 0.311849 0.525832 -0.127963
C108  C     C_R   0.688065 0.691894 0.974161 -0.127988
Cr1   Cr    Cr6+3 0.487630 0.241180 0.750000 0.995385
Cr2   Cr    Cr6+3 0.753550 0.512370 0.750000 0.995426
Cr3   Cr    Cr6+3 0.758820 0.246450 0.750000 0.995433
Cr4   Cr    Cr6+3 0.241180 0.487630 0.250000 0.995422
Cr5   Cr    Cr6+3 0.512370 0.753550 0.250000 0.995406
Cr6   Cr    Cr6+3 0.246450 0.758820 0.250000 0.995434
O1    O     O_R   0.460870 0.120930 0.805240 -0.517831
O2    O     O_R   0.660060 0.539130 0.694760 -0.517842
O3    O     O_R   0.879070 0.339940 0.805240 -0.517850
O4    O     O_R   0.460870 0.120930 0.694760 -0.517907
O5    O     O_R   0.660060 0.539130 0.805240 -0.517840
O6    O     O_R   0.879070 0.339940 0.694760 -0.517843
O7    O     O_R   0.120930 0.460870 0.305240 -0.517839
O8    O     O_R   0.539130 0.660060 0.194760 -0.517845
O9    O     O_R   0.339940 0.879070 0.305240 -0.517792
O10   O     O_R   0.120930 0.460870 0.194760 -0.517834
O11   O     O_R   0.539130 0.660060 0.305240 -0.517849
O12   O     O_R   0.339940 0.879070 0.194760 -0.517850
O13   O     O_R   0.498910 0.350470 0.801870 -0.499972
O14   O     O_R   0.851560 0.501090 0.698130 -0.499979
O15   O     O_R   0.649530 0.148440 0.801870 -0.499958
O16   O     O_R   0.498910 0.350470 0.698130 -0.500001
O17   O     O_R   0.851560 0.501090 0.801870 -0.499960
O18   O     O_R   0.649530 0.148440 0.698130 -0.499926
O19   O     O_R   0.350470 0.498910 0.301870 -0.499969
O20   O     O_R   0.501090 0.851560 0.198130 -0.499979
O21   O     O_R   0.148440 0.649530 0.301870 -0.499962
O22   O     O_R   0.350470 0.498910 0.198130 -0.499971
O23   O     O_R   0.501090 0.851560 0.301870 -0.500012
O24   O     O_R   0.148440 0.649530 0.198130 -0.499979
O25   O     O_3   0.666667 0.333333 0.750000 -0.215597
O26   O     O_3   0.333333 0.666667 0.250000 -0.215586
H1    H     H_    0.056887 0.699069 0.122993 0.119360
H2    H     H_    0.642093 0.942873 0.377017 0.119446
H3    H     H_    0.300953 0.357790 0.122996 0.119350
H4    H     H_    0.056884 0.699067 0.376999 0.119425
H5    H     H_    0.642216 0.943176 0.123003 0.119345
H6    H     H_    0.300953 0.357790 0.376995 0.119355
H7    H     H_    0.698832 0.056475 0.623016 0.119221
H8    H     H_    0.943285 0.642261 0.876989 0.119316
H9    H     H_    0.357788 0.300964 0.622994 0.119252
H10   H     H_    0.699029 0.056796 0.877003 0.119319
H11   H     H_    0.943255 0.642250 0.622999 0.119314
H12   H     H_    0.357775 0.300970 0.876999 0.119328
H13   H     H_    0.015399 0.778127 0.045373 0.090209
H14   H     H_    0.762567 0.984227 0.454647 0.090226
H15   H     H_    0.221926 0.237209 0.045383 0.090214
H16   H     H_    0.015421 0.778138 0.454613 0.090307
H17   H     H_    0.762796 0.984723 0.045393 0.090194
H18   H     H_    0.221910 0.237224 0.454608 0.090180
H19   H     H_    0.777766 0.014720 0.545422 0.090158
H20   H     H_    0.984907 0.762875 0.954597 0.090190
H21   H     H_    0.237159 0.221977 0.545385 0.090092
H22   H     H_    0.778045 0.015222 0.954617 0.090180
H23   H     H_    0.984911 0.762877 0.545388 0.090218
H24   H     H_    0.237179 0.221959 0.954608 0.090199
C109  C     C_3   0.951535 0.286295 0.133533 -0.382152
H25   H     H_    0.920720 0.291931 0.171736 0.144140
H26   H     H_    0.870152 0.210667 0.114886 0.114420
H27   H     H_    0.025456 0.262973 0.135414 0.132376
C110  C     C_3   0.335292 0.049058 0.366318 -0.382203
H28   H     H_    0.371649 0.079531 0.328076 0.144129
H29   H     H_    0.237943 0.975326 0.364523 0.132301
H30   H     H_    0.341394 0.130699 0.384872 0.114532
C111  C     C_3   0.713700 0.665325 0.133521 -0.382141
H31   H     H_    0.708097 0.628861 0.171721 0.144142
H32   H     H_    0.789344 0.659624 0.114865 0.114405
H33   H     H_    0.736981 0.762553 0.135411 0.132389
C112  C     C_3   0.951532 0.286291 0.366464 -0.382160
H34   H     H_    0.920709 0.291925 0.328261 0.144135
H35   H     H_    0.025457 0.262982 0.364582 0.132387
H36   H     H_    0.870160 0.210658 0.385109 0.114464
C113  C     C_3   0.334684 0.048383 0.133511 -0.382154
H37   H     H_    0.237462 0.974426 0.135421 0.132407
H38   H     H_    0.371192 0.079290 0.171700 0.144112
H39   H     H_    0.340348 0.129696 0.114843 0.114397
C114  C     C_3   0.713710 0.665265 0.366471 -0.382162
H40   H     H_    0.708083 0.628820 0.328267 0.144145
H41   H     H_    0.737017 0.762501 0.364589 0.132354
H42   H     H_    0.789344 0.659530 0.385120 0.114434
C115  C     C_3   0.286360 0.952423 0.633351 -0.382041
H43   H     H_    0.263604 0.026715 0.635413 0.132609
H44   H     H_    0.210514 0.871524 0.614555 0.114168
H45   H     H_    0.291599 0.920956 0.671470 0.144101
C116  C     C_3   0.048259 0.334563 0.866512 -0.382126
H46   H     H_    0.974275 0.237345 0.864628 0.132370
H47   H     H_    0.079141 0.371004 0.828311 0.144174
H48   H     H_    0.129582 0.340236 0.885180 0.114384
C117  C     C_3   0.665383 0.713677 0.633494 -0.382141
H49   H     H_    0.628903 0.708108 0.671686 0.144145
H50   H     H_    0.762599 0.736926 0.635402 0.132407
H51   H     H_    0.659725 0.789324 0.614820 0.114340
C118  C     C_3   0.286300 0.951673 0.866488 -0.382120
H52   H     H_    0.291881 0.920766 0.828295 0.144159
H53   H     H_    0.210634 0.870360 0.885157 0.114372
H54   H     H_    0.263064 0.025654 0.864582 0.132408
C119  C     C_3   0.048284 0.334584 0.633493 -0.382122
H55   H     H_    0.974312 0.237360 0.635386 0.132394
H56   H     H_    0.129606 0.340262 0.614824 0.114383
H57   H     H_    0.079180 0.371047 0.671691 0.144161
C120  C     C_3   0.665360 0.713692 0.866491 -0.382135
H58   H     H_    0.628890 0.708103 0.828292 0.144150
H59   H     H_    0.659676 0.789338 0.885152 0.114389
H60   H     H_    0.762586 0.736959 0.864598 0.132397
H61   H     H_    0.994835 0.231517 0.044625 0.099407
H62   H     H_    0.237352 0.006422 0.455237 0.099424
H63   H     H_    0.768416 0.763424 0.044609 0.099406
H64   H     H_    0.994797 0.231487 0.455385 0.099429
H65   H     H_    0.236580 0.005004 0.044603 0.099391
H66   H     H_    0.768474 0.763335 0.455385 0.099381
H67   H     H_    0.232264 0.996553 0.544440 0.099352
H68   H     H_    0.004764 0.236461 0.955422 0.099400
H69   H     H_    0.763527 0.768305 0.544589 0.099383
H70   H     H_    0.231631 0.995121 0.955396 0.099388
H71   H     H_    0.004693 0.236415 0.544592 0.099423
H72   H     H_    0.763473 0.768374 0.955403 0.099409

loop_
_geom_bond_atom_site_label_1
_geom_bond_atom_site_label_2
_ccdc_geom_bond_type
C44   C49   A    
C80   C92   A    
C109  H25   S    
C82   C94   A    
C73   C116  S    
C52   C83   A    
C18   C21   A    
C118  H53   S    
C118  H52   S    
Cr4   O26   S    
C5    C56   S    
Cr4   O19   S    
C38   C55   A    
C50   C79   A    
C12   C49   S    
Cr3   O25   S    
C113  H37   S    
C78   C90   A    
C117  H51   S    
C31   C67   A    
C99   C108  A    
C20   C92   A    
C82   C113  S    
C77   C89   A    
C28   C64   A    
C21   C93   A    
C119  H57   S    
Cr2   O25   S    
C48   C72   A    
C41   C58   A    
Cr4   O10   S    
Cr1   O1    S    
C26   C62   A    
C24   C96   A    
C51   C84   A    
C1    O5    A    
C108  H72   S    
C114  H41   S    
C46   H5    S    
Cr5   O11   S    
C86   C103  A    
C98   C103  A    
C14   C62   A    
C96   C99   A    
C33   H18   S    
C120  H60   S    
C102  C105  A    
C115  H44   S    
C84   C96   A    
C117  H50   S    
C42   H9    S    
C104  H68   S    
C58   C77   A    
C55   C74   A    
Cr1   O13   S    
C48   C51   A    
C100  H64   S    
Cr5   O8    S    
C94   C101  A    
C44   H1    S    
C112  H35   S    
C4    C57   S    
C92   C97   A    
C9    O7    A    
Cr6   O21   S    
C19   C67   A    
C78   C117  S    
Cr6   O26   S    
Cr2   O14   S    
C76   C88   A    
C79   C91   A    
C13   C20   A    
C33   C69   A    
C32   C68   A    
C116  H48   S    
C25   C32   A    
C113  H38   S    
C98   H62   S    
C35   C71   A    
C26   C31   A    
C109  H26   S    
C40   C59   A    
C3    O15   A    
C22   C94   A    
C115  H43   S    
C9    C52   S    
Cr4   O22   S    
C6    C55   S    
C10   C51   S    
C57   C78   A    
C42   C57   A    
C81   C114  S    
Cr3   O15   S    
Cr1   O4    S    
C107  H71   S    
C111  H32   S    
C16   C88   A    
C87   C108  A    
C45   C69   A    
C45   H6    S    
C18   C90   A    
C110  H28   S    
C23   C71   A    
Cr2   O17   S    
C17   C89   A    
C35   H16   S    
C28   C35   A    
C6    O18   A    
C1    C60   S    
C88   C107  A    
C83   C112  S    
C95   C100  A    
C14   C19   A    
C114  H42   S    
C4    O16   A    
C41   H10   S    
C116  H47   S    
C111  H31   S    
C8    O20   A    
C47   H4    S    
C7    O11   A    
C40   H11   S    
C21   C69   A    
C53   C82   A    
Cr2   O5    S    
C115  H45   S    
C29   C34   A    
C27   H24   S    
C74   C115  S    
C81   C93   A    
C12   O10   A    
C112  H36   S    
C83   C95   A    
C25   H20   S    
C120  H58   S    
Cr5   O26   S    
C26   H19   S    
C25   C61   A    
C74   C86   A    
C14   C86   A    
C30   C66   A    
C85   C104  A    
C27   C63   A    
C37   C56   A    
C29   C65   A    
Cr6   O9    S    
C9    O21   A    
C8    O12   A    
C15   C24   A    
C59   C76   A    
C45   C54   A    
C112  H34   S    
C16   C23   A    
C109  H27   S    
Cr5   O20   S    
C7    C54   S    
C91   C98   A    
C118  H54   S    
Cr5   O23   S    
C44   C68   A    
C47   C71   A    
C13   C85   A    
C84   C111  S    
Cr2   O2    S    
C80   C109  S    
C31   H14   S    
C22   C70   A    
C76   C119  S    
C24   C72   A    
C15   C87   A    
C73   C85   A    
C111  H33   S    
C75   C87   A    
C101  C106  A    
C119  H55   S    
C75   C120  S    
C100  C107  A    
C2    O6    A    
C56   C73   A    
C113  H39   S    
C30   C33   A    
C2    C59   S    
C93   C102  A    
C29   H22   S    
C20   C68   A    
C11   O9    A    
C1    O13   A    
C90   C105  A    
C10   O22   A    
C10   O8    A    
C77   C118  S    
C8    C53   S    
C37   C61   A    
C43   C50   A    
C7    O19   A    
C47   C52   A    
C27   C36   A    
C18   C66   A    
C39   C63   A    
C60   C75   A    
C17   C65   A    
C17   C22   A    
C40   C64   A    
C49   C80   A    
Cr3   O3    S    
Cr1   O25   S    
C89   C106  A    
C79   C110  S    
C11   O23   A    
C36   H15   S    
C4    O2    A    
Cr4   O7    S    
C11   C50   S    
C3    O1    A    
C114  H40   S    
C106  H70   S    
C99   H63   S    
C105  H69   S    
C39   C60   A    
C39   H12   S    
C46   C53   A    
C120  H59   S    
C23   C95   A    
C12   O24   A    
Cr6   O24   S    
C37   H8    S    
C41   C65   A    
C117  H49   S    
C38   H7    S    
C46   C70   A    
C97   C104  A    
C19   C91   A    
C102  H66   S    
C32   H13   S    
C3    C58   S    
C101  H65   S    
Cr3   O18   S    
C5    O17   A    
C13   C61   A    
C48   H3    S    
C43   C67   A    
C116  H46   S    
C5    O3    A    
Cr1   O16   S    
C42   C66   A    
Cr6   O12   S    
C15   C63   A    
Cr3   O6    S    
C43   H2    S    
C97   H61   S    
C110  H30   S    
C16   C64   A    
C30   H21   S    
C119  H56   S    
C34   C70   A    
C6    O4    A    
C54   C81   A    
C34   H17   S    
C36   C72   A    
C28   H23   S    
C103  H67   S    
C38   C62   A    
C110  H29   S    
C2    O14   A    
