data_mof_unit_1911.cif
_audit_creation_date              2012-12-10T18:58:14-0500
_audit_creation_method            fapswitch 2.2
_symmetry_space_group_name_H-M    P1
_symmetry_Int_Tables_number       1
_space_group_crystal_system       triclinic
_cell_length_a                    11.048678
_cell_length_b                    10.842078
_cell_length_c                    9.565425
_cell_angle_alpha                 89.532053
_cell_angle_beta                  102.987005
_cell_angle_gamma                 90.732147
_cell_volume                      1116.4310436

loop_
_atom_site_label
_atom_site_type_symbol
_atom_type_description
_atom_site_fract_x
_atom_site_fract_y
_atom_site_fract_z
_atom_type_partial_charge
C1    C     C_R   0.501638 0.262383 0.500830 0.815690
C2    C     C_R   0.511909 0.129268 0.503872 -0.084962
C3    C     C_R   0.531632 0.065633 0.383453 -0.196533
C4    C     C_R   0.530106 0.937003 0.382376 -0.189711
C5    C     C_R   0.508765 0.870757 0.501563 -0.138249
C6    C     C_R   0.502860 0.935155 0.625628 0.082554
C7    C     C_3   0.410425 0.929305 0.719075 0.666631
C8    C     C_3   0.415857 0.069575 0.722262 -0.386851
C9    C     C_R   0.542898 0.600220 0.084325 0.223383
C10   C     C_R   0.439792 0.410319 0.059725 -0.170904
C11   C     C_R   0.437616 0.411676 0.910416 0.641723
C12   C     C_R   0.262751 0.499607 0.441585 0.862235
C13   C     C_R   0.547665 0.598214 0.939239 0.239378
C14   C     C_3   0.675255 0.657935 0.973136 -0.067738
C15   C     C_3   0.665318 0.663075 0.129622 -0.465108
C16   C     C_R   0.500629 0.737540 0.499714 0.796289
C17   C     C_R   0.737287 0.499171 0.558397 0.849763
C18   C     C_2   0.127521 0.498077 0.408662 -0.358064
C19   C     C_2   0.067510 0.496310 0.515445 -0.130727
C20   C     C_2   0.872597 0.497614 0.591271 -0.353658
C21   C     C_2   0.932697 0.494702 0.484716 -0.150204
C22   C     C_R   0.506136 0.062257 0.627468 -0.022624
Cu1   Cu    Cu3+1 0.499990 0.499980 0.640670 1.004103
Cu2   Cu    Cu3+1 0.500010 0.500020 0.359330 0.949853
H1    H     H_    0.882459 0.491676 0.373248 0.173989
H2    H     H_    0.460377 0.106653 0.829756 0.239767
H3    H     H_    0.392717 0.336611 0.103825 0.172326
H4    H     H_    0.676127 0.751336 0.924381 0.213992
H5    H     H_    0.733517 0.606312 0.205281 0.208363
H6    H     H_    0.656382 0.758578 0.166678 0.182601
H7    H     H_    0.117961 0.496668 0.627076 0.198933
H8    H     H_    0.923546 0.499199 0.702539 0.150181
H9    H     H_    0.076820 0.498077 0.297187 0.148904
H10   H     H_    0.542986 0.114633 0.288012 0.171041
H11   H     H_    0.540409 0.890166 0.286399 0.175451
H12   H     H_    0.327948 0.115408 0.668496 0.200338
N1    N     N_R   0.500780 0.500930 0.148120 -0.223046
N2    N     N_R   0.500790 0.500890 0.852210 -0.248949
O1    O     O_R   0.500000 0.319640 0.618810 -0.521745
O2    O     O_R   0.500010 0.319680 0.381230 -0.599867
O3    O     O_R   0.320680 0.500000 0.575130 -0.549101
O4    O     O_R   0.320690 0.500040 0.337550 -0.577862
O5    O     O_R   0.499990 0.680320 0.618770 -0.568078
O6    O     O_R   0.500000 0.680360 0.381190 -0.579989
O7    O     O_R   0.679310 0.499960 0.662450 -0.584830
O8    O     O_R   0.679320 0.500000 0.424870 -0.583336
F1    F     F_    0.371181 0.324124 0.825417 -0.683873
C23   C     C_3   0.784091 0.577804 0.955237 -0.801093
H13   H     H_    0.813894 0.606657 0.856921 0.240789
H14   H     H_    0.866003 0.593395 0.045044 0.218432
H15   H     H_    0.759504 0.478014 0.951653 0.245996
C24   C     C_3   0.282461 0.875776 0.648007 -0.827025
H16   H     H_    0.287020 0.773917 0.641161 0.243660
H17   H     H_    0.214703 0.898537 0.713543 0.237534
H18   H     H_    0.249004 0.914235 0.538226 0.190225
F2    F     F_    0.459749 0.877106 0.851893 -0.679994

loop_
_geom_bond_atom_site_label_1
_geom_bond_atom_site_label_2
_ccdc_geom_bond_type
C10   H3    S    
C2    C22   A    
C11   N2    A    
C8    C22   S    
Cu1   Cu2   S    
C14   H4    S    
C12   O3    A    
Cu1   O7    S    
Cu1   N2    S    
Cu2   O4    S    
C16   O6    A    
C11   F1    S    
Cu1   O3    S    
C24   H18   S    
C19   H7    S    
C24   H17   S    
C9    N1    A    
C2    C3    A    
C9    C15   S    
C4    H11   S    
Cu2   O8    S    
C7    C8    S    
C13   C14   S    
C17   O8    A    
C16   O5    A    
C13   N2    A    
C6    C7    S    
C12   O4    A    
C7    F2    S    
C10   N1    A    
Cu1   O1    S    
C23   H14   S    
C23   H13   S    
C19   C21   S    
C17   O7    A    
C7    C24   S    
C15   H5    S    
C8    H12   S    
C5    C6    A    
Cu2   O6    S    
C18   H9    S    
C10   C11   A    
C1    O1    A    
C9    C13   A    
C3    C4    A    
C6    C22   A    
C17   C20   S    
C8    H2    S    
C20   C21   D    
C15   H6    S    
Cu2   N1    S    
C1    C2    S    
C20   H8    S    
C12   C18   S    
C21   H1    S    
C14   C15   S    
C18   C19   D    
C5    C16   S    
C14   C23   S    
C1    O2    A    
Cu2   O2    S    
C3    H10   S    
Cu1   O5    S    
C23   H15   S    
C24   H16   S    
C4    C5    A    
