data_mof_unit_4554.cif
_audit_creation_date              2012-12-11T15:10:47-0500
_audit_creation_method            fapswitch 2.2
_symmetry_space_group_name_H-M    P1
_symmetry_Int_Tables_number       1
_space_group_crystal_system       triclinic
_cell_length_a                    21.119223
_cell_length_b                    7.232052
_cell_length_c                    18.255499
_cell_angle_alpha                 90.287231
_cell_angle_beta                  93.508193
_cell_angle_gamma                 90.263836
_cell_volume                      2782.96576168

loop_
_atom_site_label
_atom_site_type_symbol
_atom_type_description
_atom_site_fract_x
_atom_site_fract_y
_atom_site_fract_z
_atom_type_partial_charge
O1    O     O_R   0.448880 0.506250 0.415280 -0.531680
O2    O     O_R   0.551120 0.006250 0.584720 -0.529729
O3    O     O_R   0.434830 0.174000 0.557310 -0.520537
O4    O     O_R   0.565170 0.674000 0.442690 -0.521238
C1    C     C_R   0.416972 0.344547 0.579675 0.699245
C2    C     C_R   0.583002 0.844600 0.420318 0.696708
O5    O     O_R   0.441680 0.176440 0.414130 -0.531532
O6    O     O_R   0.558320 0.676440 0.585870 -0.530822
O7    O     O_R   0.558020 0.007570 0.440520 -0.519018
O8    O     O_R   0.441980 0.507570 0.559480 -0.521718
C3    C     C_R   0.427804 0.343767 0.388233 0.710263
C4    C     C_R   0.572052 0.845246 0.611714 0.715106
O9    O     O_3   0.538160 0.339670 0.508820 -0.364574
O10   O     O_3   0.461840 0.839670 0.491180 -0.367123
V1    V     V_3+5 0.492920 0.064260 0.498360 1.415622
V2    V     V_3+5 0.507080 0.564260 0.501640 1.412610
C5    C     C_R   0.882216 0.898121 0.684459 0.279555
C6    C     C_R   0.121798 0.502945 0.313743 0.274291
C7    C     C_R   0.888726 0.936923 0.817834 -0.273724
C8    C     C_R   0.112109 0.445638 0.181584 -0.300741
C9    C     C_R   0.584534 0.805659 0.745212 -0.298681
C10   C     C_R   0.409408 0.246356 0.260070 -0.287197
C11   C     C_R   0.621149 0.766093 0.809830 0.325791
C12   C     C_R   0.368667 0.182844 0.201826 0.326533
C13   C     C_R   0.687781 0.778769 0.810826 0.340377
C14   C     C_R   0.303400 0.221092 0.201454 0.344268
C15   C     C_R   0.717648 0.853308 0.749316 0.021477
C16   C     C_R   0.280135 0.346239 0.254148 0.026599
C17   C     C_R   0.680068 0.872672 0.682208 -0.042095
C18   C     C_R   0.321057 0.392813 0.316578 -0.054150
C19   C     C_R   0.784559 0.892983 0.750642 -0.038808
C20   C     C_R   0.215824 0.411601 0.249930 -0.028022
C21   C     C_R   0.814787 0.897152 0.683055 -0.098122
C22   C     C_R   0.188987 0.477323 0.314965 -0.139162
C23   C     C_R   0.776492 0.905644 0.616205 0.319252
C24   C     C_R   0.230356 0.514420 0.378160 0.311790
C25   C     C_R   0.710329 0.905174 0.617453 -0.230379
C26   C     C_R   0.295533 0.480939 0.376234 -0.209967
C27   C     C_R   0.821305 0.937281 0.816736 0.325643
C28   C     C_R   0.178894 0.422313 0.181940 0.330682
C29   C     C_R   0.918840 0.914804 0.751209 0.234360
C30   C     C_R   0.083852 0.478286 0.248562 0.289217
C31   C     C_R   0.613103 0.850204 0.680644 -0.102171
C32   C     C_R   0.386064 0.340881 0.319601 -0.108760
H1    H     H_    0.533447 0.788279 0.743779 0.122780
H2    H     H_    0.458978 0.207024 0.262318 0.124339
H3    H     H_    0.682633 0.922970 0.566091 0.111186
H4    H     H_    0.326236 0.520426 0.423323 0.132521
C33   C     C_1   0.864646 0.938901 0.132254 -0.185203
C34   C     C_1   0.135350 0.438997 0.867720 -0.186985
C35   C     C_1   0.821860 0.924847 0.176100 0.018411
C36   C     C_1   0.178131 0.424935 0.823871 0.016751
C37   C     C_1   0.771344 0.905749 0.228282 0.009961
C38   C     C_1   0.228645 0.405760 0.771697 0.007876
C39   C     C_1   0.728761 0.889154 0.272259 0.004429
C40   C     C_1   0.271228 0.389040 0.727732 0.003396
C41   C     C_1   0.678132 0.870087 0.324283 -0.000922
C42   C     C_1   0.321853 0.369796 0.675720 -0.002345
C43   C     C_1   0.635240 0.856029 0.367986 -0.211778
C44   C     C_1   0.364738 0.355754 0.632012 -0.211817
O11   O     O_R   0.058070 0.289240 0.940580 -0.519484
O12   O     O_R   0.941930 0.789240 0.059420 -0.516084
O13   O     O_R   0.058330 0.616740 0.085880 -0.529561
O14   O     O_R   0.941670 0.116740 0.914120 -0.538246
C45   C     C_R   0.071930 0.449537 0.111912 0.694249
C46   C     C_R   0.927949 0.947996 0.888178 0.692922
O15   O     O_R   0.065180 0.619040 0.942700 -0.522558
O16   O     O_R   0.934820 0.119040 0.057300 -0.527002
O17   O     O_R   0.948870 0.787780 0.915270 -0.522626
O18   O     O_R   0.051130 0.287780 0.084730 -0.526295
C47   C     C_R   0.083173 0.450341 0.920143 0.704754
C48   C     C_R   0.916832 0.950311 0.079838 0.709636
O19   O     O_3   0.961870 0.453310 0.991210 -0.367084
O20   O     O_3   0.038130 0.953310 0.008790 -0.364619
V3    V     V_3+5 0.007070 0.728770 0.001630 1.440541
V4    V     V_3+5 0.992930 0.228770 0.998370 1.418655
O21   O     O_3   0.984248 0.911924 0.747888 -0.648272
H5    H     H_    0.005724 0.939910 0.796280 0.287861
O22   O     O_3   0.018918 0.497662 0.252758 -0.622099
H6    H     H_    0.996151 0.450670 0.207464 0.282589
N1    N     N_2   0.803713 0.933499 0.547661 -0.479810
H7    H     H_    0.792556 0.060570 0.525079 0.247625
C49   C     C_3   0.793296 0.784243 0.495076 -0.492953
H8    H     H_    0.822426 0.808589 0.447418 0.205611
H9    H     H_    0.742632 0.777110 0.475109 0.169724
H10   H     H_    0.807286 0.649837 0.520128 0.198669
N2    N     N_2   0.208190 0.603361 0.441378 -0.526475
H11   H     H_    0.213464 0.745163 0.440595 0.248279
C50   C     C_3   0.226190 0.522474 0.511996 -0.549501
H12   H     H_    0.193178 0.571046 0.552948 0.209395
H13   H     H_    0.274981 0.566308 0.530761 0.187850
H14   H     H_    0.223507 0.369068 0.509079 0.198828
N3    N     N_2   0.914226 0.875544 0.618570 -0.454494
H15   H     H_    0.950559 0.969267 0.612966 0.277924
C51   C     C_3   0.933291 0.687442 0.604271 -0.469164
H16   H     H_    0.950259 0.677711 0.548014 0.189145
H17   H     H_    0.892661 0.590684 0.608313 0.183367
H18   H     H_    0.972341 0.645389 0.644176 0.208512
N4    N     N_2   0.089354 0.545279 0.377788 -0.458177
H19   H     H_    0.100511 0.667855 0.404521 0.271099
C52   C     C_3   0.074183 0.389027 0.422737 -0.438233
H20   H     H_    0.047253 0.436896 0.469578 0.177064
H21   H     H_    0.118086 0.319352 0.444309 0.189798
H22   H     H_    0.044318 0.288100 0.389938 0.204107
O23   O     O_3   0.789787 0.995850 0.876983 -0.631942
H23   H     H_    0.820139 0.039180 0.916803 0.280252
O24   O     O_3   0.210562 0.428642 0.117682 -0.626497
H24   H     H_    0.180524 0.443304 0.074469 0.278787
N5    N     N_2   0.724381 0.693072 0.869492 -0.472561
H25   H     H_    0.704159 0.694877 0.919494 0.302284
C53   C     C_3   0.749482 0.513528 0.851710 -0.498653
H26   H     H_    0.779883 0.462131 0.898995 0.204628
H27   H     H_    0.778982 0.522600 0.803515 0.188724
H28   H     H_    0.710084 0.413370 0.839717 0.210352
N6    N     N_2   0.260709 0.113693 0.154635 -0.468968
H29   H     H_    0.278007 0.074861 0.105260 0.305326
C54   C     C_3   0.230465 0.962147 0.190764 -0.519201
H30   H     H_    0.195855 0.892522 0.151378 0.210304
H31   H     H_    0.204406 0.013512 0.237781 0.185684
H32   H     H_    0.266491 0.859513 0.210677 0.207302
O25   O     O_3   0.593157 0.702986 0.871504 -0.641500
H33   H     H_    0.546435 0.700438 0.861844 0.299673
O26   O     O_3   0.390677 0.070803 0.147456 -0.640177
H34   H     H_    0.437200 0.055650 0.155858 0.298681

loop_
_geom_bond_atom_site_label_1
_geom_bond_atom_site_label_2
_ccdc_geom_bond_type
N2    H11   S    
O13   C45   A    
C52   H20   S    
C15   C17   A    
C51   H16   S    
O1    C3    A    
O2    C4    A    
C2    O7    A    
N1    H7    S    
C23   N1    S    
C51   H18   S    
O26   H34   S    
C11   O25   S    
O21   H5    S    
O15   V3    S    
O5    C3    A    
N3    H15   S    
C49   H8    S    
C23   C25   A    
C12   C14   A    
C4    C31   S    
N5    C53   S    
C29   O21   S    
C8    C28   A    
C41   C43   T    
C46   O17   A    
C42   C44   T    
C45   O18   A    
C18   C26   A    
C7    C46   S    
C14   N6    S    
C6    C30   A    
C9    C31   A    
C10   C32   A    
C53   H26   S    
C40   C42   S    
C16   C18   A    
N6    C54   S    
C33   C48   S    
O15   C47   A    
C34   C36   T    
O24   H24   S    
C19   C21   A    
C25   H3    S    
C26   H4    S    
C13   N5    S    
O11   C47   A    
O5    V1    S    
C30   O22   S    
C24   N2    S    
C17   C31   A    
C18   C32   A    
C5    C21   A    
N1    C49   S    
C36   C38   S    
C9    H1    S    
C37   C39   T    
O11   V4    S    
C38   C40   T    
O20   V3    S    
C15   C19   A    
C8    C45   S    
C16   C20   A    
O4    C2    A    
C54   H32   S    
C33   C35   T    
C12   O26   S    
O16   C48   A    
C35   C37   S    
C20   C22   A    
O4    V2    S    
C34   C47   S    
C39   C41   S    
N4    H19   S    
O6    C4    A    
C49   H10   S    
O14   V4    S    
O12   C48   A    
C3    C32   S    
C53   H27   S    
O1    V2    S    
C50   H14   S    
O2    V1    S    
C6    C22   A    
O25   H33   S    
C7    C27   A    
C28   O24   S    
C49   H9    S    
C52   H22   S    
C9    C11   A    
O18   V4    S    
C13   C15   A    
O19   V4    S    
C10   C12   A    
O12   V3    S    
C50   H13   S    
C6    N4    S    
O3    V1    S    
C52   H21   S    
C27   O23   S    
C1    C44   S    
C10   H2    S    
C2    C43   S    
O3    C1    A    
C8    C30   A    
C51   H17   S    
O16   V4    S    
O23   H23   S    
C14   C16   A    
C54   H31   S    
O7    V1    S    
C1    O8    A    
O8    V2    S    
C54   H30   S    
N3    C51   S    
O13   V3    S    
C24   C26   A    
C21   C23   A    
C19   C27   A    
O17   V3    S    
C53   H28   S    
C22   C24   A    
C20   C28   A    
C5    C29   A    
O22   H6    S    
C7    C29   A    
C11   C13   A    
C5    N3    S    
O6    V2    S    
O9    V2    S    
C17   C25   A    
N2    C50   S    
O10   V1    S    
C50   H12   S    
N5    H25   S    
N4    C52   S    
N6    H29   S    
O14   C46   A    
