data_mof_unit_1503.cif
_audit_creation_date              2012-12-11T15:59:27-0500
_audit_creation_method            fapswitch 2.2
_symmetry_space_group_name_H-M    P1
_symmetry_Int_Tables_number       1
_space_group_crystal_system       triclinic
_cell_length_a                    10.839757
_cell_length_b                    10.705651
_cell_length_c                    17.118318
_cell_angle_alpha                 100.260665
_cell_angle_beta                  100.205189
_cell_angle_gamma                 60.728361
_cell_volume                      1695.73897949

loop_
_atom_site_label
_atom_site_type_symbol
_atom_type_description
_atom_site_fract_x
_atom_site_fract_y
_atom_site_fract_z
_atom_type_partial_charge
C1    C     C_R   0.358435 0.764788 0.395435 0.574482
C2    C     C_R   0.883022 0.185937 0.198723 -0.058738
C3    C     C_R   0.832435 0.212152 0.273570 -0.048485
C4    C     C_R   0.947068 0.363761 0.322779 0.164665
C5    C     C_R   0.976931 0.356636 0.246034 0.181358
C6    C     C_R   0.870276 0.074031 0.143544 -0.037663
C7    C     C_R   0.775331 0.026142 0.150323 0.292108
C8    C     C_R   0.712244 0.066636 0.219912 0.180493
C9    C     C_R   0.755572 0.140369 0.283337 -0.085637
C10   C     C_R   0.858011 0.310175 0.334237 -0.014402
C11   C     C_R   0.345881 0.790933 0.147509 -0.029082
C12   C     C_R   0.407675 0.376294 0.357099 0.550503
C13   C     C_R   0.471687 0.761373 0.195454 -0.037847
C14   C     C_R   0.473173 0.776097 0.279787 -0.020269
C15   C     C_R   0.233395 0.796697 0.258177 0.219858
C16   C     C_R   0.243420 0.773117 0.176807 0.217275
C17   C     C_R   0.596330 0.712154 0.159785 -0.059327
C18   C     C_R   0.722765 0.683922 0.206831 -0.070174
C19   C     C_R   0.724395 0.714067 0.289539 -0.041192
C20   C     C_R   0.598365 0.771160 0.325499 0.217266
C21   C     C_R   0.349587 0.796506 0.312630 -0.032055
C22   C     C_R   0.348351 0.329509 0.827586 -0.024707
C23   C     C_R   0.777079 0.373222 0.403676 0.557866
C24   C     C_R   0.479597 0.230559 0.794393 -0.074493
C25   C     C_R   0.502114 0.248887 0.720649 -0.093154
C26   C     C_R   0.266829 0.467244 0.715525 0.211908
C27   C     C_R   0.250732 0.453313 0.791416 0.217936
C28   C     C_R   0.589061 0.105862 0.829541 0.195497
C29   C     C_R   0.728554 0.062169 0.819530 0.175753
C30   C     C_R   0.753235 0.079505 0.745826 0.159391
C31   C     C_R   0.634158 0.142794 0.690599 0.177414
C32   C     C_R   0.390485 0.363545 0.678593 -0.045027
C33   C     C_1   0.770582 0.369905 0.715037 -0.004002
C34   C     C_R   0.380457 0.716883 0.631221 0.502860
C35   C     C_1   0.815126 0.331337 0.780936 -0.013016
C36   C     C_1   0.357559 0.765972 0.713543 0.033566
C37   C     C_1   0.323983 0.811911 0.780380 0.058322
C38   C     C_R   0.962208 0.279505 0.099920 0.572172
C39   C     C_R   0.323420 0.305271 0.118399 0.582449
C40   C     C_R   0.297917 0.880521 0.080624 0.548677
C41   C     C_R   0.879951 0.300788 0.860352 0.545331
C42   C     C_R   0.309990 0.292470 0.894077 0.574186
C43   C     C_R   0.279998 0.881295 0.857708 0.568433
C44   C     C_R   0.408682 0.377055 0.599089 0.525825
C45   C     C_R   0.719485 0.411910 0.635843 0.504954
C46   C     C_1   0.380295 0.367991 0.271666 0.042015
C47   C     C_1   0.355114 0.350015 0.200192 0.081884
C48   C     C_R   0.938819 0.275223 0.182021 -0.023608
Cr1   Cr    Cr6+3 0.608100 0.610860 0.522250 1.158141
Cr2   Cr    Cr6+3 0.288890 0.599990 0.488420 1.189754
Cr3   Cr    Cr6+3 0.603040 0.289190 0.489390 1.102739
Cr4   Cr    Cr6+3 0.053960 0.052250 0.967380 1.125247
Cr5   Cr    Cr6+3 0.059890 0.373160 0.992710 1.193937
Cr6   Cr    Cr6+3 0.373370 0.061690 0.991710 1.143233
H1    H     H_    0.814378 0.656712 0.177796 0.245825
H2    H     H_    0.818814 0.712692 0.324073 0.221367
H3    H     H_    0.934194 0.015537 0.095544 0.235467
H4    H     H_    0.730393 0.129766 0.338356 0.217417
H5    H     H_    0.595914 0.695781 0.095418 0.160306
O1    O     O_R   0.749810 0.499790 0.438040 -0.457410
O2    O     O_R   0.298970 0.468800 0.557390 -0.413693
O3    O     O_R   0.489400 0.255930 0.561910 -0.435782
O4    O     O_R   0.723890 0.306050 0.584610 -0.485475
O5    O     O_3   0.500010 0.500010 0.500020 -0.404705
O6    O     O_R   0.171100 0.914680 0.053100 -0.483730
O7    O     O_R   0.941680 0.184840 0.050710 -0.538380
O8    O     O_R   0.922080 0.403420 0.072610 -0.469619
O9    O     O_R   0.196880 0.369150 0.083850 -0.433254
O10   O     O_R   0.411730 0.181020 0.091530 -0.471192
O11   O     O_R   0.365010 0.944360 0.063320 -0.465124
O12   O     O_R   0.477660 0.726260 0.439290 -0.472810
O13   O     O_R   0.159380 0.906670 0.876210 -0.420471
O14   O     O_R   0.930820 0.177420 0.886730 -0.480146
O15   O     O_R   0.910360 0.395420 0.895720 -0.461553
O16   O     O_R   0.186010 0.361730 0.919870 -0.436065
O17   O     O_R   0.400000 0.173010 0.914630 -0.488749
O18   O     O_R   0.354140 0.936940 0.899340 -0.471872
O19   O     O_3   0.162410 0.162370 0.983930 -0.322364
O20   O     O_R   0.260150 0.743000 0.412270 -0.439052
O21   O     O_R   0.297740 0.466550 0.394720 -0.403377
O22   O     O_R   0.488080 0.253500 0.386430 -0.451177
O23   O     O_R   0.722670 0.303800 0.421940 -0.545126
O24   O     O_R   0.751130 0.502220 0.613520 -0.418313
O25   O     O_R   0.478890 0.728510 0.601960 -0.451852
O26   O     O_R   0.261470 0.745430 0.587750 -0.427769
Br1   Br    Br    0.027768 0.448550 0.412561 -0.285078
Br2   Br    Br    0.589317 0.902838 0.418860 -0.297643
Cl1   Cl    Cl    0.121237 0.611948 0.667956 -0.382961
Br3   Br    Br    0.562622 0.937052 0.808604 -0.342511
Cl2   Cl    Cl    0.104484 0.592600 0.839628 -0.393168
Br4   Br    Br    0.872294 0.931108 0.890210 -0.204288
Br5   Br    Br    0.939414 0.978809 0.710221 -0.291170
Br6   Br    Br    0.627119 0.987132 0.616915 -0.234925
Cl3   Cl    Cl    0.056423 0.457969 0.232199 -0.555540
Cl4   Cl    Cl    0.744446 0.908858 0.073059 -0.477794
Br7   Br    Br    0.567769 0.023785 0.232772 -0.450999
Cl5   Cl    Cl    0.069706 0.828289 0.286717 -0.488535
Cl6   Cl    Cl    0.131624 0.713604 0.111198 -0.461331

loop_
_geom_bond_atom_site_label_1
_geom_bond_atom_site_label_2
_ccdc_geom_bond_type
C19   H2    S    
C25   C31   A    
C1    C21   S    
C43   O13   A    
C23   O23   A    
Cr2   O5    S    
C39   O9    A    
Cr5   O15   S    
C8    Br7   S    
Cr2   O20   S    
C5    Cl3   S    
C7    C8    A    
C45   O24   A    
C26   C32   A    
C42   O16   A    
C1    O12   A    
Cr1   O1    S    
C40   O11   A    
C3    C9    A    
C14   C21   A    
C36   C37   T    
Cr5   O8    S    
C18   C19   A    
C30   C31   A    
C4    Br1   S    
C15   C16   A    
C20   Br2   S    
C33   C45   S    
C27   Cl2   S    
C9    H4    S    
Cr5   O9    S    
Cr2   O26   S    
C41   O15   A    
C38   O7    A    
C8    C9    A    
C28   Br3   S    
Cr3   O22   S    
C38   C48   S    
Cr6   O18   S    
C25   C32   A    
Cr1   O5    S    
C13   C14   A    
C6    H3    S    
Cr5   O16   S    
Cr3   O3    S    
C34   O25   A    
C15   Cl5   S    
Cr4   O19   S    
C32   C44   S    
C23   O1    A    
C5    C48   A    
C14   C20   A    
Cr3   O4    S    
C24   C25   A    
C30   Br5   S    
Cr4   O14   S    
C44   O3    A    
C31   Br6   S    
C45   O4    A    
C2    C6    A    
C34   O26   A    
C37   C43   S    
C29   C30   A    
Cr4   O13   S    
C11   C16   A    
Cr6   O11   S    
C17   C18   A    
C39   O10   A    
Cr3   O23   S    
C18   H1    S    
C17   H5    S    
Cr6   O17   S    
C12   C46   S    
C22   C27   A    
C26   C27   A    
C1    O20   A    
C22   C24   A    
C4    C10   A    
C44   O2    A    
C29   Br4   S    
Cr4   O7    S    
Cr1   O25   S    
C39   C47   S    
C46   C47   T    
C28   C29   A    
Cr3   O5    S    
C24   C28   A    
C4    C5    A    
Cr2   O21   S    
C6    C7    A    
C10   C23   S    
C43   O18   A    
C7    Cl4   S    
C42   O17   A    
C13   C17   A    
C40   O6    A    
C2    C48   A    
Cr1   O24   S    
C19   C20   A    
C2    C3    A    
C3    C10   A    
C11   C13   A    
C16   Cl6   S    
C22   C42   S    
Cr6   O10   S    
C12   O21   A    
C33   C35   T    
C12   O22   A    
Cr5   O19   S    
C34   C36   S    
C11   C40   S    
C35   C41   S    
C41   O14   A    
C15   C21   A    
C38   O8    A    
C26   Cl1   S    
Cr1   O12   S    
Cr2   O2    S    
Cr4   O6    S    
Cr6   O19   S    
