data_mof_unit_466.cif
_audit_creation_date              2013-03-05T16:03:27-0500
_audit_creation_method            fapswitch 2.2
_symmetry_space_group_name_H-M    P1
_symmetry_Int_Tables_number       1
_space_group_crystal_system       triclinic
_cell_length_a                    6.948768
_cell_length_b                    18.133735
_cell_length_c                    20.306023
_cell_angle_alpha                 68.546819
_cell_angle_beta                  90.898867
_cell_angle_gamma                 90.731468
_cell_volume                      2381.06714951

loop_
_atom_site_label
_atom_site_type_symbol
_atom_site_description
_atom_site_fract_x
_atom_site_fract_y
_atom_site_fract_z
_atom_type_partial_charge
O1    O     O_R   0.488960 0.443750 0.941980 -0.604378
O2    O     O_R   0.823890 0.406510 0.087590 -0.598878
O3    O     O_R   0.999680 0.556250 0.058020 -0.606453
C1    C     C_R   0.655547 0.383368 0.115032 0.929142
O4    O     O_R   0.818360 0.434410 0.944340 -0.586172
O5    O     O_R   0.994110 0.584350 0.913750 -0.597897
C2    C     C_R   0.648585 0.420265 0.923954 0.969604
O6    O     O_R   0.494530 0.415650 0.086250 -0.601519
O7    O     O_3   0.662590 0.549160 0.990130 -0.241228
V1    V     V_3+5 0.935320 0.490880 0.001830 1.184073
O8    O     O_R   0.324180 0.593490 0.912410 -0.570085
C3    C     C_R   0.153670 0.619568 0.886872 0.978738
O9    O     O_R   0.329720 0.565590 0.055660 -0.562871
C4    C     C_R   0.163414 0.575380 0.079622 1.042627
V2    V     V_3+5 0.435990 0.509120 0.998170 1.208242
O10   O     O_3   0.158850 0.450840 0.009870 -0.286454
C5    C     C_3   0.026115 0.708168 0.308163 -0.129845
C6    C     C_3   0.214852 0.676840 0.288245 -0.218270
H1    H     H_    0.281972 0.618688 0.318044 0.153287
C7    C     C_1   0.159272 0.620344 0.125923 -0.276262
C8    C     C_1   0.108883 0.874011 0.378606 -0.255940
C9    C     C_3   0.956745 0.736144 0.229612 -0.150144
C10   C     C_3   0.146015 0.705650 0.210279 0.187167
C11   C     C_3   0.055703 0.817332 0.215504 -0.066366
C12   C     C_3   0.122750 0.789792 0.293256 0.047882
C13   C     C_3   0.244321 0.787160 0.194891 -0.249372
C14   C     C_3   0.309153 0.758913 0.273415 -0.033376
C15   C     C_1   0.154540 0.658566 0.164111 0.011772
C16   C     C_1   0.114162 0.835903 0.340362 0.072683
H2    H     H_    0.810417 0.726972 0.211057 0.136644
C17   C     C_R   0.950163 0.775798 0.867674 -0.086060
C18   C     C_R   0.842070 0.844695 0.853733 -0.137695
C19   C     C_R   0.871836 0.909657 0.792628 -0.139925
C20   C     C_R   0.001259 0.904688 0.742966 -0.142176
C21   C     C_R   0.060664 0.828466 0.745719 0.082183
C22   C     C_R   0.051499 0.762894 0.811824 0.048439
C23   C     C_R   0.126850 0.817365 0.684333 -0.274886
C24   C     C_R   0.205727 0.743780 0.689778 0.118245
C25   C     C_R   0.215998 0.680247 0.756557 0.124214
C26   C     C_R   0.141587 0.689164 0.818255 -0.303986
C27   C     C_R   0.273509 0.731796 0.629011 -0.165859
C28   C     C_R   0.351273 0.659629 0.633818 -0.102066
C29   C     C_R   0.361254 0.597482 0.698707 -0.101047
C30   C     C_R   0.293501 0.607073 0.759235 -0.164288
H3    H     H_    0.402656 0.651719 0.586787 0.134161
H4    H     H_    0.912908 0.346301 0.419463 0.129440
C31   C     C_R   0.464651 0.104971 0.254560 -0.152517
C32   C     C_R   0.395763 0.096816 0.192765 -0.075724
C33   C     C_R   0.408395 0.159912 0.128453 -0.116247
C34   C     C_R   0.490117 0.231657 0.125387 -0.158698
C35   C     C_R   0.560138 0.242068 0.187284 0.118302
C36   C     C_R   0.546997 0.177291 0.253363 0.105949
C37   C     C_R   0.646000 0.314862 0.183841 -0.309245
C38   C     C_R   0.719240 0.322511 0.246725 0.120428
C39   C     C_R   0.705799 0.257780 0.312817 0.118677
C40   C     C_R   0.619462 0.185081 0.316286 -0.305723
C41   C     C_R   0.803009 0.394607 0.245466 -0.178844
C42   C     C_R   0.872963 0.402574 0.307209 -0.112791
C43   C     C_R   0.859631 0.339579 0.371557 -0.099063
C44   C     C_R   0.776420 0.268079 0.374692 -0.160841
H5    H     H_    0.333381 0.041010 0.194762 0.162031
H6    H     H_    0.355802 0.153068 0.080517 0.142146
H7    H     H_    0.499373 0.278397 0.073840 0.109184
H8    H     H_    0.814377 0.445860 0.197025 0.116763
H9    H     H_    0.766765 0.221417 0.426268 0.100053
O11   O     O_R   0.770540 0.084530 0.414050 -0.590662
O12   O     O_R   0.445710 0.065660 0.555720 -0.577008
O13   O     O_R   0.270420 0.915650 0.586190 -0.559064
C45   C     C_R   0.615135 0.080113 0.576027 1.020679
O14   O     O_R   0.441140 0.093540 0.412470 -0.599577
O15   O     O_R   0.265820 0.943740 0.441930 -0.598295
C46   C     C_R   0.609582 0.116669 0.385117 0.929353
O16   O     O_R   0.775150 0.056440 0.558310 -0.585057
O17   O     O_3   0.602370 0.950960 0.510050 -0.272335
V3    V     V_3+5 0.329450 0.009140 0.498150 1.193995
O18   O     O_R   0.935790 0.934280 0.444060 -0.588774
C47   C     C_R   0.103233 0.920102 0.423802 0.963880
O19   O     O_R   0.940370 0.906390 0.587310 -0.596128
C48   C     C_R   0.110607 0.882722 0.614091 0.936176
V4    V     V_3+5 0.828810 0.990710 0.501460 1.190739
O20   O     O_3   0.105780 0.049100 0.489960 -0.277199
C49   C     C_3   0.710181 0.320696 0.716566 -0.026566
C50   C     C_3   0.527851 0.288814 0.690977 -0.237673
H10   H     H_    0.443739 0.320955 0.642133 0.149304
H11   H     H_    0.299201 0.266481 0.782555 0.140377
C51   C     C_1   0.624149 0.125855 0.621428 -0.193602
C52   C     C_1   0.638140 0.374641 0.878490 -0.266937
C53   C     C_3   0.813183 0.240870 0.732406 -0.206748
C54   C     C_3   0.629885 0.208641 0.707858 0.146581
C55   C     C_3   0.734450 0.211450 0.809187 -0.213979
C56   C     C_3   0.632304 0.291564 0.792320 0.148069
C57   C     C_3   0.552158 0.179532 0.783644 -0.030854
C58   C     C_3   0.449066 0.259338 0.767761 -0.221518
C59   C     C_1   0.627979 0.163388 0.660151 0.078463
C60   C     C_1   0.633831 0.336983 0.839883 0.064563
H12   H     H_    0.962985 0.233625 0.717601 0.140147
H13   H     H_    0.813604 0.966199 0.788979 0.189773
C61   C     C_2   0.104040 0.978983 0.701126 1.018237
O21   O     O_2   0.276031 0.977254 0.690118 -0.615706
O22   O     O_R   0.009726 0.051670 0.679984 -0.809985
H14   H     H_    0.097196 0.097998 0.653758 0.321118
H15   H     H_    0.266651 0.777783 0.576955 0.105139
H16   H     H_    0.300134 0.555620 0.807602 0.126877
H17   H     H_    0.453832 0.053663 0.302986 0.132924
H18   H     H_    0.940996 0.674627 0.355632 0.187005
H19   H     H_    0.936687 0.458179 0.305146 0.121574
C62   C     C_2   0.800524 0.399794 0.677086 0.974636
O23   O     O_2   0.856461 0.414865 0.616770 -0.645747
O24   O     O_R   0.820748 0.455769 0.709181 -0.818564
H20   H     H_    0.884106 0.506667 0.677178 0.326346
C63   C     C_2   0.463057 0.100400 0.823749 0.987907
O25   O     O_2   0.403615 0.086412 0.883459 -0.628392
O26   O     O_R   0.449121 0.042974 0.793131 -0.789522
H21   H     H_    0.387187 0.992001 0.825651 0.335501
H22   H     H_    0.818585 0.179314 0.858028 0.155098
C64   C     C_2   0.502232 0.772804 0.300162 0.973146
O27   O     O_2   0.591749 0.717046 0.341342 -0.676548
O28   O     O_R   0.575178 0.849902 0.280052 -0.796882
H23   H     H_    0.702950 0.852189 0.303974 0.335478
H24   H     H_    0.335169 0.819570 0.148589 0.167929
C65   C     C_2   0.966961 0.895434 0.172827 1.037477
O29   O     O_2   0.913522 0.908092 0.112075 -0.620687
O30   O     O_R   0.946675 0.953458 0.202295 -0.812894
H25   H     H_    0.884617 0.003452 0.168250 0.331169
H26   H     H_    0.419925 0.541137 0.702117 0.145719
C66   C     C_2   0.978124 0.730452 0.943171 0.983738
O31   O     O_2   0.141125 0.721580 0.967970 -0.664560
O32   O     O_R   0.817759 0.709278 0.987206 -0.760218
H27   H     H_    0.852583 0.690971 0.039258 0.322681
H28   H     H_    0.757845 0.853101 0.894939 0.170999

loop_
_geom_bond_atom_site_label_1
_geom_bond_atom_site_label_2
_geom_bond_distance
_ccdc_geom_bond_type
C35   C37   1.420217 A    
C39   C40   1.419867 A    
C53   H12   1.110575 S    
C66   O31   1.220603 D    
C1    C37   1.493661 S    
C27   C28   1.391782 A    
C21   C22   1.432821 A    
C1    O6    1.296951 A    
O32   H27   1.011584 S    
C29   H26   1.083038 S    
C18   H28   1.084806 S    
C41   C42   1.393053 A    
O30   H25   1.013891 S    
C37   C38   1.419914 A    
C64   O27   1.220552 D    
O13   V3    2.006657 S    
C23   C48   1.487830 S    
C13   C14   1.547155 S    
C33   H6    1.082808 S    
C21   C23   1.417647 A    
C11   C13   1.547709 S    
C6    H1    1.110239 S    
C17   C22   1.435334 A    
O5    C3    1.296527 A    
C24   C25   1.423915 A    
H4    C43   1.082811 S    
O19   V4    2.003991 S    
V2    O10   2.158867 S    
C50   C58   1.557601 S    
C27   H15   1.081513 S    
C20   C21   1.428736 A    
C10   C13   1.546635 S    
C54   C59   1.480838 S    
O28   H23   1.013030 S    
C11   C65   1.498288 S    
C51   C59   1.213498 T    
H11   C58   1.110505 S    
C2    C52   1.448121 S    
C31   C32   1.393058 A    
C64   O28   1.396104 S    
C40   C46   1.493234 S    
C52   C60   1.213319 T    
C62   O23   1.221969 D    
C45   O16   1.299141 A    
O1    V2    1.963720 S    
O7    V1    2.149008 S    
C14   C64   1.492335 S    
O13   C48   1.290778 A    
C43   C44   1.393235 A    
O17   V4    1.706904 S    
O9    C4    1.299927 A    
C34   H7    1.081620 S    
C62   O24   1.397199 S    
O8    V2    2.003996 S    
C30   H16   1.080124 S    
C34   C35   1.415672 A    
C12   C16   1.485189 S    
C50   C54   1.545314 S    
O11   C46   1.296665 A    
O17   V3    2.149008 S    
C35   C36   1.427146 A    
C4    C7    1.453201 S    
C22   C26   1.444848 A    
O18   C47   1.299655 A    
C24   C27   1.417270 A    
C25   C26   1.426095 A    
O4    C2    1.297510 A    
O19   C48   1.304350 A    
V3    O20   1.703194 S    
C7    C15   1.215450 T    
C42   C43   1.389292 A    
C10   C15   1.483210 S    
C8    C16   1.214939 T    
C49   C50   1.545902 S    
C49   C56   1.537056 S    
C6    C10   1.544611 S    
C42   H19   1.082985 S    
C28   H3    1.082738 S    
C3    C26   1.501315 S    
O2    C1    1.300720 A    
C29   C30   1.392534 A    
C23   C24   1.414928 A    
C5    H18   1.108496 S    
C56   C58   1.544567 S    
C55   C57   1.545585 S    
C50   H10   1.110265 S    
C5    C6    1.552432 S    
C63   O26   1.396226 S    
C49   C62   1.498607 S    
C11   C12   1.537959 S    
C54   C57   1.537254 S    
C65   O29   1.221921 D    
C31   C36   1.416278 A    
O3    C4    1.301078 A    
C32   C33   1.389355 A    
C53   C55   1.557466 S    
C44   H9    1.081601 S    
C61   O21   1.222184 D    
O6    V2    2.003636 S    
C61   O22   1.396596 S    
O9    V2    1.969136 S    
C9    C11   1.547323 S    
O12   V3    1.973669 S    
C28   C29   1.387066 A    
C55   C56   1.544790 S    
O2    V1    2.008996 S    
O15   C47   1.298325 A    
C41   H8    1.081410 S    
O26   H21   1.013871 S    
C38   C39   1.427065 A    
C66   O32   1.399263 S    
C31   H17   1.081468 S    
C9    H2    1.110409 S    
C63   O25   1.221935 D    
O1    C2    1.297889 A    
C17   C18   1.401354 A    
C6    C14   1.545485 S    
O18   V4    1.969092 S    
C13   H24   1.110356 S    
V4    O20   2.158920 S    
O5    V1    2.006600 S    
O14   C46   1.300715 A    
O8    C3    1.308443 A    
C57   C63   1.497994 S    
C25   C30   1.420648 A    
C12   C14   1.534117 S    
O11   V4    1.998748 S    
C5    C9    1.556975 S    
C5    C12   1.544873 S    
C18   C19   1.379376 A    
C55   H22   1.110280 S    
O7    V2    1.710363 S    
O4    V1    1.973665 S    
O3    V1    1.966434 S    
V1    O10   1.703109 S    
O24   H20   1.013848 S    
O15   V3    1.966300 S    
C32   H5    1.083047 S    
C49   C53   1.545886 S    
C57   C58   1.545743 S    
C20   C61   1.484655 S    
O16   V4    1.980835 S    
C19   C20   1.389550 A    
C19   H13   1.083791 S    
C65   O30   1.397146 S    
C56   C60   1.480742 S    
C53   C54   1.544829 S    
C33   C34   1.393549 A    
C8    C47   1.451007 S    
O14   V3    2.008975 S    
C9    C10   1.543753 S    
O22   H14   1.014227 S    
C17   C66   1.461761 S    
O12   C45   1.296417 A    
C39   C44   1.415712 A    
C45   C51   1.448469 S    
C36   C40   1.419900 A    
C38   C41   1.416091 A    
