data_mof_unit_3710.cif
_audit_creation_date              2012-12-10T19:54:17-0500
_audit_creation_method            fapswitch 2.2
_symmetry_space_group_name_H-M    P1
_symmetry_Int_Tables_number       1
_space_group_crystal_system       triclinic
_cell_length_a                    15.712896
_cell_length_b                    14.932726
_cell_length_c                    14.193859
_cell_angle_alpha                 89.723307
_cell_angle_beta                  91.088741
_cell_angle_gamma                 89.990796
_cell_volume                      3329.75537546

loop_
_atom_site_label
_atom_site_type_symbol
_atom_type_description
_atom_site_fract_x
_atom_site_fract_y
_atom_site_fract_z
_atom_type_partial_charge
C1    C     C_R   0.498750 0.327703 0.500252 0.873317
C2    C     C_R   0.518348 0.909460 0.571236 -0.222164
C3    C     C_R   0.469468 0.048334 0.499964 0.103873
C4    C     C_R   0.469456 0.951600 0.500474 0.101883
C5    C     C_R   0.438409 0.534009 0.098760 -0.313983
C6    C     C_R   0.561400 0.534243 0.900908 -0.314184
C7    C     C_R   0.438506 0.542063 0.197568 0.310029
C8    C     C_R   0.561409 0.542207 0.802016 0.309983
C9    C     C_R   0.562105 0.451680 0.209754 -0.069852
C10   C     C_R   0.438022 0.451536 0.790679 -0.071375
C11   C     C_R   0.565446 0.443785 0.110129 0.018249
C12   C     C_R   0.498825 0.672285 0.499734 0.865632
C13   C     C_R   0.434695 0.443567 0.890366 0.018377
C14   C     C_R   0.500375 0.484152 0.053259 0.074552
C15   C     C_R   0.499553 0.484211 0.946872 0.074708
C16   C     C_R   0.337885 0.500127 0.499209 0.911021
C17   C     C_R   0.662124 0.500172 0.500803 0.911767
C18   C     C_3   0.973732 0.426724 0.541933 0.189325
C19   C     C_3   0.026405 0.577838 0.458720 0.191277
C20   C     C_3   0.027539 0.430302 0.451836 -0.260836
C21   C     C_3   0.972518 0.574255 0.548818 -0.261321
C22   C     C_1   0.249076 0.501089 0.497741 -0.193800
C23   C     C_R   0.444827 0.190746 0.573122 -0.248404
C24   C     C_1   0.750957 0.500919 0.502367 -0.197282
C25   C     C_3   0.030131 0.498724 0.589224 0.190746
C26   C     C_3   0.969984 0.505833 0.411415 0.190262
C27   C     C_3   0.083029 0.502903 0.499510 0.021470
C28   C     C_3   0.917057 0.501621 0.501119 0.021824
C29   C     C_1   0.173855 0.502011 0.497948 -0.073320
C30   C     C_1   0.826198 0.501480 0.502412 -0.074622
C31   C     C_R   0.433553 0.098291 0.573882 0.185630
C32   C     C_R   0.431065 0.901751 0.426447 0.188895
C33   C     C_3   0.640202 0.395004 0.067933 -0.422857
C34   C     C_R   0.442596 0.809335 0.426909 -0.250704
C35   C     C_3   0.613892 0.305808 0.023079 -0.338899
C36   C     C_3   0.691256 0.254553 0.988656 -0.887186
C37   C     C_3   0.360329 0.394119 0.932977 -0.422970
C38   C     C_3   0.387309 0.304698 0.977785 -0.340385
C39   C     C_3   0.310342 0.252387 0.012033 -0.884811
C40   C     C_3   0.937620 0.340290 0.583529 -0.394387
C41   C     C_3   0.007670 0.275344 0.614747 -0.881288
C42   C     C_3   0.062769 0.664228 0.417298 -0.396141
C43   C     C_3   0.992939 0.729530 0.386405 -0.878466
C44   C     C_3   0.930111 0.504645 0.312211 -0.394158
C45   C     C_R   0.490083 0.231984 0.500920 -0.050271
C46   C     C_3   0.997330 0.504662 0.236082 -0.883558
C47   C     C_3   0.070096 0.500042 0.688383 -0.393430
C48   C     C_3   0.002950 0.499970 0.764588 -0.884175
C49   C     C_3   0.386006 0.056159 0.655218 -0.427719
C50   C     C_3   0.300662 0.016445 0.624129 -0.865951
C51   C     C_3   0.380496 0.943964 0.345316 -0.427559
C52   C     C_3   0.296194 0.983429 0.376693 -0.866899
C53   C     C_3   0.370225 0.600077 0.238767 -0.391480
C54   C     C_3   0.283059 0.554790 0.232263 -0.862624
C55   C     C_3   0.629933 0.599975 0.760279 -0.387706
C56   C     C_R   0.490318 0.767990 0.499006 -0.041774
C57   C     C_3   0.716858 0.554037 0.766887 -0.865433
C58   C     C_R   0.524894 0.182096 0.428559 -0.203172
C59   C     C_R   0.527490 0.817731 0.571544 -0.204185
C60   C     C_R   0.515876 0.090371 0.429106 -0.224255
H1    H     H_    0.052355 0.372047 0.412542 0.152381
H2    H     H_    0.551027 0.948091 0.625306 0.136385
H3    H     H_    0.390630 0.569219 0.056731 0.150318
H4    H     H_    0.609080 0.569548 0.942602 0.149863
H5    H     H_    0.725473 0.294791 0.935314 0.264233
H6    H     H_    0.735321 0.238779 0.048580 0.258623
H7    H     H_    0.670206 0.190775 0.955757 0.246908
H8    H     H_    0.580281 0.263868 0.075539 0.215747
H9    H     H_    0.570656 0.318027 0.961739 0.229969
H10   H     H_    0.671175 0.438346 0.014946 0.205888
H11   H     H_    0.689409 0.381278 0.123529 0.192711
H12   H     H_    0.947636 0.632470 0.588126 0.150524
H13   H     H_    0.275648 0.291812 0.065262 0.264792
H14   H     H_    0.266551 0.236720 0.951995 0.258209
H15   H     H_    0.331900 0.188516 0.045010 0.247696
H16   H     H_    0.421319 0.263571 0.925341 0.214366
H17   H     H_    0.430390 0.316730 0.039182 0.230573
H18   H     H_    0.329351 0.436858 0.986076 0.206262
H19   H     H_    0.310993 0.380605 0.877605 0.192998
H20   H     H_    0.050392 0.260556 0.555357 0.257603
H21   H     H_    0.045529 0.303480 0.674236 0.261348
H22   H     H_    0.978529 0.211662 0.638705 0.249205
H23   H     H_    0.609896 0.418968 0.253684 0.140969
H24   H     H_    0.896807 0.356398 0.644093 0.206046
H25   H     H_    0.897022 0.307415 0.528897 0.201996
H26   H     H_    0.954708 0.701550 0.327116 0.262085
H27   H     H_    0.950547 0.744562 0.446016 0.257381
H28   H     H_    0.022311 0.793042 0.362287 0.248932
H29   H     H_    0.103629 0.696805 0.471898 0.203448
H30   H     H_    0.103345 0.648129 0.356586 0.201753
H31   H     H_    0.033645 0.568266 0.236931 0.262909
H32   H     H_    0.041943 0.447634 0.246531 0.259063
H33   H     H_    0.965689 0.497951 0.165867 0.247790
H34   H     H_    0.390401 0.418622 0.747039 0.140434
H35   H     H_    0.890735 0.443203 0.304793 0.200874
H36   H     H_    0.887472 0.563324 0.302497 0.206945
H37   H     H_    0.958196 0.556880 0.754116 0.257917
H38   H     H_    0.966782 0.436276 0.763858 0.263076
H39   H     H_    0.034640 0.506825 0.834760 0.248067
H40   H     H_    0.112871 0.441470 0.698109 0.203681
H41   H     H_    0.109363 0.561569 0.695692 0.204436
H42   H     H_    0.261979 0.067204 0.585118 0.257603
H43   H     H_    0.310223 0.956773 0.579455 0.272200
H44   H     H_    0.265046 0.994922 0.687151 0.247811
H45   H     H_    0.417583 0.231024 0.628318 0.146355
H46   H     H_    0.425251 0.003928 0.690738 0.205589
H47   H     H_    0.373116 0.107061 0.710087 0.200740
H48   H     H_    0.259055 0.932520 0.415719 0.257379
H49   H     H_    0.307250 0.043056 0.421435 0.272612
H50   H     H_    0.258233 0.004969 0.313804 0.247578
H51   H     H_    0.418334 0.996352 0.309822 0.205653
H52   H     H_    0.365717 0.893148 0.290368 0.199165
H53   H     H_    0.262136 0.547760 0.157490 0.242381
H54   H     H_    0.285263 0.487339 0.265475 0.279552
H55   H     H_    0.235476 0.596124 0.269174 0.240662
H56   H     H_    0.413535 0.769236 0.371640 0.133634
H57   H     H_    0.384671 0.617932 0.312138 0.250188
H58   H     H_    0.367263 0.664796 0.199765 0.168000
H59   H     H_    0.737935 0.546856 0.841670 0.241886
H60   H     H_    0.764647 0.594960 0.729347 0.245479
H61   H     H_    0.714135 0.486570 0.734436 0.277918
H62   H     H_    0.615513 0.618512 0.686852 0.251092
H63   H     H_    0.633369 0.664454 0.799022 0.168676
H64   H     H_    0.560676 0.213856 0.373070 0.150254
H65   H     H_    0.565148 0.785845 0.626981 0.140996
H66   H     H_    0.546732 0.051654 0.375115 0.137008
N1    N     N_R   0.500000 0.499980 0.252470 -0.117160
N2    N     N_R   0.500000 0.500020 0.747530 -0.116789
O1    O     O_R   0.500010 0.369070 0.579480 -0.621921
O2    O     O_R   0.499990 0.630930 0.420520 -0.639280
O3    O     O_R   0.500010 0.369060 0.420520 -0.618887
O4    O     O_R   0.499990 0.630940 0.579480 -0.637848
O5    O     O_R   0.376780 0.500000 0.579460 -0.623393
O6    O     O_R   0.623220 0.500000 0.420540 -0.622923
O7    O     O_R   0.376780 0.499990 0.420510 -0.619204
O8    O     O_R   0.623220 0.500010 0.579490 -0.618680
Zn1   Zn    Zn3+2 0.500000 0.500010 0.606140 0.930705
Zn2   Zn    Zn3+2 0.500000 0.499990 0.393860 0.931330

loop_
_geom_bond_atom_site_label_1
_geom_bond_atom_site_label_2
_ccdc_geom_bond_type
O7    Zn2   S    
C34   C56   A    
C51   H52   S    
C23   C45   A    
C22   C29   T    
C27   C29   S    
C40   H24   S    
C35   C36   S    
C41   H20   S    
C36   H7    S    
C26   C44   S    
C49   H47   S    
C38   H16   S    
C53   C54   S    
O5    Zn1   S    
C48   H37   S    
C37   H19   S    
C9    N1    A    
C12   O2    A    
C47   H41   S    
C43   H28   S    
C52   H49   S    
C19   C21   S    
C1    O1    A    
C38   C39   S    
C11   C14   A    
C36   H6    S    
C46   H32   S    
C10   H34   S    
C58   C60   A    
C23   H45   S    
C54   H53   S    
C5    H3    S    
C18   C20   S    
C39   H14   S    
C6    H4    S    
C20   H1    S    
C19   C26   S    
C18   C40   S    
C6    C15   A    
C8    N2    A    
C16   C22   S    
N1    Zn2   S    
C39   H15   S    
C19   C27   S    
C25   C47   S    
C13   C37   S    
C19   C42   S    
C57   H59   S    
C3    C60   A    
C55   H62   S    
C50   H43   S    
C18   C25   S    
C31   C49   S    
C10   N2    A    
C16   O5    A    
C8    C55   S    
C44   C46   S    
C55   H63   S    
C45   C58   A    
C17   C24   S    
C21   H12   S    
C51   C52   S    
C11   C33   S    
C18   C28   S    
C5    C7    A    
C2    C59   A    
C6    C8    A    
C46   H31   S    
O4    Zn1   S    
C47   H40   S    
C42   H30   S    
C32   C34   A    
C40   H25   S    
C2    C4    A    
N2    Zn1   S    
C32   C51   S    
C37   C38   S    
C44   H36   S    
C47   C48   S    
C52   H50   S    
C41   H21   S    
C54   H55   S    
C17   O8    A    
C4    C32   A    
C3    C31   A    
C9    C11   A    
C52   H48   S    
C5    C14   A    
C12   C56   S    
C33   H10   S    
C9    H23   S    
C57   H60   S    
C40   C41   S    
C38   H17   S    
C21   C28   S    
C50   H42   S    
C13   C15   A    
C59   H65   S    
C42   C43   S    
C7    C53   S    
C3    C4    S    
O2    Zn2   S    
C48   H39   S    
C21   C25   S    
C51   H51   S    
C12   O4    A    
C53   H58   S    
C43   H26   S    
C58   H64   S    
O8    Zn1   S    
C1    O3    A    
C10   C13   A    
O6    Zn2   S    
C49   H46   S    
C20   C27   S    
C25   C27   S    
C48   H38   S    
C37   H18   S    
C26   C28   S    
C56   C59   A    
C42   H29   S    
C43   H27   S    
C36   H5    S    
C55   C57   S    
C28   C30   S    
C44   H35   S    
C1    C45   S    
C46   H33   S    
C20   C26   S    
C35   H8    S    
C41   H22   S    
C54   H54   S    
C60   H66   S    
C33   C35   S    
C53   H57   S    
C39   H13   S    
C24   C30   T    
C33   H11   S    
C57   H61   S    
O1    Zn1   S    
C35   H9    S    
C49   C50   S    
C17   O6    A    
O3    Zn2   S    
C14   C15   S    
C7    N1    A    
C16   O7    A    
C34   H56   S    
C50   H44   S    
C2    H2    S    
C23   C31   A    
