data_mof_unit_4818.cif
_audit_creation_date              2012-12-10T16:56:30-0500
_audit_creation_method            fapswitch 2.2
_symmetry_space_group_name_H-M    P1
_symmetry_Int_Tables_number       1
_space_group_crystal_system       triclinic
_cell_length_a                    10.898975
_cell_length_b                    10.958627
_cell_length_c                    9.707669
_cell_angle_alpha                 90.471117
_cell_angle_beta                  89.651595
_cell_angle_gamma                 89.799699
_cell_volume                      1159.39472438

loop_
_atom_site_label
_atom_site_type_symbol
_atom_type_description
_atom_site_fract_x
_atom_site_fract_y
_atom_site_fract_z
_atom_type_partial_charge
C1    C     C_R   0.507510 0.266274 0.499664 0.911442
C2    C     C_3   0.877315 0.490269 0.505100 -0.172551
C3    C     C_3   0.926890 0.624925 0.473095 0.197957
C4    C     C_3   0.927779 0.404273 0.384756 -0.186142
C5    C     C_2   0.540145 0.935436 0.393505 -0.067956
C6    C     C_2   0.499204 0.868801 0.502411 0.227546
C7    C     C_2   0.517535 0.067391 0.389164 -0.128568
C8    C     C_2   0.532210 0.137149 0.501048 -0.195960
C9    C     C_2   0.451628 0.413615 0.922479 0.217796
C10   C     C_2   0.434363 0.425814 0.076371 0.186582
C11   C     C_R   0.260315 0.494653 0.501697 0.885268
C12   C     C_R   0.503143 0.734950 0.500442 0.834460
C13   C     C_R   0.739505 0.493917 0.500376 0.816821
C14   C     C_3   0.073218 0.421502 0.648990 -0.186231
C15   C     C_3   0.925013 0.432645 0.649097 0.154868
C16   C     C_3   0.070820 0.622301 0.492042 -0.349077
C17   C     C_3   0.071371 0.415258 0.377253 -0.262862
C18   C     C_3   0.122457 0.487277 0.509465 -0.223714
Cu1   Cu    Cu3+1 0.500030 0.500020 0.638630 1.078982
Cu2   Cu    Cu3+1 0.499970 0.499980 0.361370 1.067598
H1    H     H_    0.895000 0.440609 0.284627 0.213167
H2    H     H_    0.109293 0.650079 0.390475 0.178723
H3    H     H_    0.491983 0.107855 0.291548 0.192630
H4    H     H_    0.567502 0.099881 0.596256 0.198206
H5    H     H_    0.422489 0.329347 0.873702 0.093064
H6    H     H_    0.365300 0.369317 0.124990 0.057453
H7    H     H_    0.088875 0.477060 0.288650 0.154300
N1    N     N_2   0.498630 0.498660 0.846910 0.000790
N2    N     N_2   0.498590 0.498630 0.153040 -0.004874
O1    O     O_R   0.500020 0.321960 0.617040 -0.591356
O2    O     O_R   0.499980 0.321920 0.382900 -0.568769
O3    O     O_R   0.317710 0.500000 0.617070 -0.537492
O4    O     O_R   0.317670 0.499960 0.382930 -0.601827
O5    O     O_R   0.500020 0.678080 0.617100 -0.575557
O6    O     O_R   0.499980 0.678040 0.382960 -0.582050
O7    O     O_R   0.682330 0.500040 0.617070 -0.594659
O8    O     O_R   0.682290 0.500000 0.382930 -0.533217
C19   C     C_2   0.122349 0.468360 0.790134 0.835099
O9    O     O_2   0.179132 0.563217 0.803633 -0.505073
O10   O     O_R   0.097546 0.399424 0.908144 -0.714390
H8    H     H_    0.132075 0.437526 0.995149 0.339036
O11   O     O_3   0.901996 0.647571 0.332396 -0.715386
H9    H     H_    0.938830 0.726732 0.305190 0.375071
C20   C     C_2   0.608960 0.883457 0.273945 0.857900
O12   O     O_2   0.690241 0.808279 0.291862 -0.577267
O13   O     O_R   0.584888 0.925653 0.141255 -0.724967
H10   H     H_    0.638375 0.884562 0.068581 0.361540
O14   O     O_3   0.442860 0.927842 0.612985 -0.727769
H11   H     H_    0.419418 0.868215 0.684487 0.360935
O15   O     O_3   0.490170 0.611453 0.901590 -0.557991
H12   H     H_    0.548344 0.661618 0.848350 0.385583
C21   C     C_2   0.125873 0.288888 0.651840 1.004983
O16   O     O_2   0.236997 0.274549 0.660677 -0.593483
O17   O     O_R   0.053009 0.184396 0.658684 -0.609916
H13   H     H_    0.102618 0.106048 0.663115 0.354687
O18   O     O_3   0.605633 0.535138 0.098702 -0.593424
H14   H     H_    0.640459 0.592437 0.166895 0.401062
O19   O     O_3   0.875757 0.314119 0.661651 -0.650826
H15   H     H_    0.784970 0.315641 0.663500 0.342150
C22   C     C_2   0.878206 0.503172 0.777898 0.924092
O20   O     O_2   0.909832 0.607911 0.801295 -0.540845
O21   O     O_R   0.806876 0.442781 0.876175 -0.678560
H16   H     H_    0.793333 0.494016 0.962129 0.373709
C23   C     C_2   0.123847 0.724009 0.581354 0.924728
O22   O     O_2   0.083273 0.746547 0.696278 -0.475687
O23   O     O_R   0.209545 0.803060 0.523078 -0.763268
H17   H     H_    0.221027 0.879254 0.581215 0.364270
C24   C     C_2   0.863325 0.732481 0.549551 0.948283
O24   O     O_2   0.775108 0.718233 0.625600 -0.585515
O25   O     O_R   0.901682 0.851642 0.521641 -0.743510
H18   H     H_    0.852289 0.915577 0.574122 0.350093
C25   C     C_2   0.137089 0.301412 0.322618 0.897124
O26   O     O_2   0.105313 0.258295 0.211774 -0.548018
O27   O     O_R   0.235518 0.248528 0.391255 -0.743154
H19   H     H_    0.268706 0.173422 0.341899 0.340066
C26   C     C_2   0.873088 0.275695 0.381396 0.914296
O28   O     O_2   0.769078 0.261531 0.337695 -0.599146
O29   O     O_R   0.939864 0.173540 0.422567 -0.670220
H20   H     H_    0.892023 0.094884 0.412128 0.358915

loop_
_geom_bond_atom_site_label_1
_geom_bond_atom_site_label_2
_ccdc_geom_bond_type
C11   C18   S    
Cu2   O8    S    
C1    C8    S    
C15   C22   S    
C14   C18   S    
Cu1   Cu2   S    
C9    H5    S    
C7    C8    D    
C3    O11   S    
C20   O12   D    
C6    O14   S    
C26   O29   S    
Cu1   O7    S    
C6    C12   S    
C5    C6    D    
C1    O2    A    
O18   H14   S    
C22   O21   S    
C2    C13   S    
O13   H10   S    
Cu2   O6    S    
N1    O15   S    
C14   C21   S    
C3    C24   S    
C20   O13   S    
C24   O24   D    
O25   H18   S    
C9    C10   S    
C13   O8    A    
C10   H6    S    
O23   H17   S    
Cu1   O3    S    
C21   O17   S    
O15   H12   S    
Cu2   N2    S    
O27   H19   S    
C17   H7    S    
C11   O4    A    
C26   O28   D    
C13   O7    A    
C25   O27   S    
C5    C7    S    
O29   H20   S    
O19   H15   S    
C22   O20   D    
C23   O23   S    
C2    C4    S    
O21   H16   S    
C2    C15   S    
C14   C19   S    
C17   C18   S    
C12   O6    A    
Cu1   N1    S    
Cu2   O4    S    
C16   C18   S    
O10   H8    S    
C5    C20   S    
C11   O3    A    
C15   O19   S    
O11   H9    S    
C4    C17   S    
C12   O5    A    
C21   O16   D    
O17   H13   S    
O14   H11   S    
C16   H2    S    
C25   O26   D    
Cu1   O5    S    
N2    O18   S    
C23   O22   D    
C2    C3    S    
C19   O10   S    
C4    H1    S    
C10   N2    D    
C19   O9    D    
C7    H3    S    
C1    O1    A    
C8    H4    S    
C4    C26   S    
C17   C25   S    
C24   O25   S    
C14   C15   S    
C16   C23   S    
Cu1   O1    S    
C3    C16   S    
C9    N1    D    
Cu2   O2    S    
