data_mof_unit_2569.cif
_audit_creation_date              2012-10-26T18:48:17-0400
_audit_creation_method            fapswitch 2.2
_symmetry_space_group_name_H-M    P1
_symmetry_Int_Tables_number       1
_space_group_crystal_system       triclinic
_cell_length_a                    10.64265
_cell_length_b                    8.678592
_cell_length_c                    7.492933
_cell_angle_alpha                 102.906462
_cell_angle_beta                  94.692656
_cell_angle_gamma                 92.560852
_cell_volume                      670.912457986

loop_
_atom_site_label
_atom_site_type_symbol
_atom_type_description
_atom_site_fract_x
_atom_site_fract_y
_atom_site_fract_z
_atom_type_partial_charge
C1    C     C_R   0.496174 0.199908 0.453364 0.540960
C2    C     C_3   0.124057 0.498760 0.501628 0.047670
C3    C     C_3   0.970998 0.554806 0.669303 0.108289
C4    C     C_3   0.029002 0.445194 0.330696 0.108289
C5    C     C_2   0.494383 0.031879 0.427306 -0.157796
C6    C     C_2   0.505616 0.968120 0.572694 -0.157796
C7    C     C_R   0.503826 0.800092 0.546636 0.540960
C8    C     C_R   0.259955 0.497868 0.500846 0.562157
C9    C     C_R   0.740045 0.502132 0.499154 0.562158
C10   C     C_3   0.042256 0.406399 0.605831 0.073127
C11   C     C_3   0.957744 0.593601 0.394169 0.073127
C12   C     C_3   0.946982 0.349394 0.433798 -0.137122
C13   C     C_3   0.053018 0.650606 0.566202 -0.137122
C14   C     C_3   0.875943 0.501240 0.498372 0.047670
Cu1   Cu    Cu3+1 0.514140 0.517380 0.684380 0.975091
Cu2   Cu    Cu3+1 0.485860 0.482620 0.315620 0.975091
H1    H     H_    0.903380 0.227515 0.379498 0.110987
H2    H     H_    0.852496 0.774416 0.354661 0.230677
H3    H     H_    0.022270 0.652923 0.937555 0.233429
H4    H     H_    0.894206 0.524438 0.899150 0.261617
H5    H     H_    0.977730 0.347077 0.062444 0.233430
H6    H     H_    0.105794 0.475562 0.100850 0.261617
H7    H     H_    0.096620 0.772485 0.620502 0.110987
H8    H     H_    0.399433 0.379311 0.949093 0.252030
H9    H     H_    0.600567 0.620688 0.050907 0.252030
H10   H     H_    0.483824 0.960300 0.287247 0.138192
H11   H     H_    0.516175 0.039700 0.712753 0.138192
H12   H     H_    0.013913 0.237870 0.749104 0.226505
H13   H     H_    0.147504 0.225584 0.645339 0.230677
H14   H     H_    0.986086 0.762130 0.250895 0.226505
N1    N     N_2   0.464560 0.456420 0.038510 -0.256999
N2    N     N_2   0.535440 0.543580 0.961490 -0.256999
N3    N     N_3   0.091076 0.305375 0.722861 -0.623733
N4    N     N_3   0.908924 0.694625 0.277139 -0.623733
N5    N     N_3   0.937692 0.617463 0.854663 -0.590355
N6    N     N_3   0.062308 0.382537 0.145337 -0.590355
O1    O     O_R   0.509190 0.286130 0.619780 -0.510655
O2    O     O_R   0.490810 0.713870 0.380220 -0.510655
O3    O     O_R   0.485310 0.256770 0.308360 -0.496661
O4    O     O_R   0.514690 0.743230 0.691640 -0.496660
O5    O     O_R   0.328790 0.514640 0.655680 -0.497209
O6    O     O_R   0.671210 0.485360 0.344320 -0.497209
O7    O     O_R   0.304910 0.485280 0.344260 -0.490203
O8    O     O_R   0.695090 0.514720 0.655740 -0.490202

loop_
_geom_bond_atom_site_label_1
_geom_bond_atom_site_label_2
_ccdc_geom_bond_type
C12   H1    S    
H12   N3    S    
C2    C4    S    
C9    C14   S    
C4    N6    S    
C6    C7    S    
C1    O1    A    
C4    C12   S    
H2    N4    S    
N1    N2    D    
C3    C13   S    
C8    O7    A    
C3    N5    S    
C7    O4    A    
H9    N2    S    
H8    N1    S    
Cu1   N2    S    
H5    N6    S    
H3    N5    S    
C6    H11   S    
C4    C11   S    
C11   C13   S    
Cu2   O7    S    
Cu1   O5    S    
C9    O6    A    
C3    C14   S    
C10   C12   S    
C1    C5    S    
C7    O2    A    
C12   C14   S    
Cu1   O8    S    
C10   N3    S    
C5    C6    D    
C11   C14   S    
Cu1   O4    S    
H14   N4    S    
Cu2   O3    S    
C5    H10   S    
C2    C10   S    
H13   N3    S    
H6    N6    S    
C8    O5    A    
C13   H7    S    
C3    C10   S    
C2    C13   S    
C1    O3    A    
Cu1   O1    S    
C9    O8    A    
Cu2   O6    S    
H4    N5    S    
C11   N4    S    
C2    C8    S    
Cu1   Cu2   S    
Cu2   O2    S    
Cu2   N1    S    
