data_mof_unit_3698.cif
_audit_creation_date              2013-03-05T16:09:57-0500
_audit_creation_method            fapswitch 2.2
_symmetry_space_group_name_H-M    P1
_symmetry_Int_Tables_number       1
_space_group_crystal_system       triclinic
_cell_length_a                    10.772358
_cell_length_b                    9.82961
_cell_length_c                    10.627518
_cell_angle_alpha                 91.009
_cell_angle_beta                  91.271438
_cell_angle_gamma                 91.189446
_cell_volume                      1124.62414645

loop_
_atom_site_label
_atom_site_type_symbol
_atom_site_description
_atom_site_fract_x
_atom_site_fract_y
_atom_site_fract_z
_atom_type_partial_charge
O1    O     O_R   0.316770 0.614620 0.499990 -0.565039
O2    O     O_R   0.683230 0.614620 0.500010 -0.573833
O3    O     O_R   0.316800 0.385290 0.500000 -0.602529
O4    O     O_R   0.683200 0.385290 0.500000 -0.588105
C1    C     C_R   0.260153 0.498563 0.501175 0.998210
C2    C     C_R   0.740163 0.502038 0.496151 0.999730
O5    O     O_R   0.500010 0.614690 0.316770 -0.640980
O6    O     O_R   0.499990 0.614690 0.683230 -0.606502
O7    O     O_R   0.500040 0.385360 0.316770 -0.607829
O8    O     O_R   0.499960 0.385360 0.683230 -0.643506
C3    C     C_R   0.478886 0.498761 0.261771 0.927536
C4    C     C_R   0.505163 0.501572 0.741724 0.917976
Zn1   Zn    Zn3+2 0.500000 0.653120 0.500000 1.095200
Zn2   Zn    Zn3+2 0.500000 0.346880 0.500000 1.067528
H1    H     H_    0.465117 0.278426 0.109116 0.229699
H2    H     H_    0.483590 0.283410 0.883713 0.220410
C5    C     C_R   0.384525 0.739153 0.116624 0.205959
C6    C     C_R   0.545054 0.754162 0.911828 0.188783
C7    C     C_R   0.416936 0.866764 0.066873 0.253189
C8    C     C_R   0.505866 0.874250 0.972368 0.236991
C9    C     C_R   0.494013 0.627213 0.948119 -0.085751
C10   C     C_R   0.438204 0.620745 0.064751 -0.102308
C11   C     C_R   0.449366 0.497137 0.128959 -0.027369
C12   C     C_R   0.501012 0.503748 0.877496 -0.026744
C13   C     C_R   0.463043 0.375288 0.062537 -0.047118
C14   C     C_R   0.481014 0.378724 0.935527 -0.124329
C15   C     C_R   0.060858 0.393659 0.434394 0.213513
C16   C     C_R   0.932515 0.399048 0.427041 0.222936
C17   C     C_R   0.872928 0.507717 0.487294 -0.356137
C18   C     C_R   0.127787 0.496643 0.501773 -0.336001
C19   C     C_R   0.941387 0.616556 0.546039 0.201318
C20   C     C_R   0.068578 0.606301 0.559716 0.242623
C21   C     C_R   0.560416 0.071626 0.409277 0.045239
C22   C     C_R   0.438971 0.072300 0.590293 0.034143
H3    H     H_    0.608465 0.125853 0.336598 0.189761
H4    H     H_    0.390292 0.127035 0.662600 0.156046
C23   C     C_R   0.560555 0.927706 0.409362 0.058137
C24   C     C_R   0.438889 0.928401 0.590206 0.098619
H5    H     H_    0.608936 0.872936 0.336861 0.154484
H6    H     H_    0.390929 0.874186 0.662928 0.170472
N1    N     N_R   0.500000 0.857200 0.500000 -0.097431
N2    N     N_R   0.500000 0.142810 0.500000 -0.113568
N3    N     N_R   0.291017 0.727231 0.211044 0.252524
O9    O     O_R   0.284028 0.816924 0.301940 -0.283413
O10   O     O_R   0.213127 0.624191 0.207492 -0.342123
N4    N     N_R   0.651517 0.757936 0.832922 0.265694
O11   O     O_R   0.664244 0.851213 0.748629 -0.284395
O12   O     O_R   0.734159 0.663710 0.842347 -0.335861
Cl1   Cl    Cl    0.349165 0.017507 0.122971 -0.441541
Cl2   Cl    Cl    0.573758 0.033244 0.937112 -0.511206
N5    N     N_R   0.123047 0.289781 0.365079 0.262392
O13   O     O_R   0.138575 0.170646 0.413770 -0.249107
O14   O     O_R   0.171691 0.317331 0.257260 -0.294729
N6    N     N_R   0.863824 0.300615 0.349946 0.242274
O15   O     O_R   0.789654 0.340703 0.260296 -0.355489
O16   O     O_R   0.877404 0.170977 0.366939 -0.275328
N7    N     N_R   0.883989 0.738685 0.590159 0.273315
O17   O     O_R   0.840741 0.823062 0.507847 -0.290299
O18   O     O_R   0.908595 0.784047 0.703904 -0.207654
N8    N     N_R   0.137795 0.708677 0.631631 0.250943
O19   O     O_R   0.200457 0.675542 0.732218 -0.383676
O20   O     O_R   0.141151 0.834143 0.594498 -0.275746

loop_
_geom_bond_atom_site_label_1
_geom_bond_atom_site_label_2
_geom_bond_distance
_ccdc_geom_bond_type
C18   C20   1.403736 A    
O7    Zn2   1.990212 S    
C5    N3    1.442004 S    
O6    Zn1   1.990103 S    
C5    C10   1.418609 A    
C6    C9    1.416370 A    
N3    O10   1.301257 A    
C4    C12   1.444398 S    
C22   H4    1.081656 S    
C19   C20   1.380581 A    
C22   N2    1.365980 A    
Zn2   N2    2.005929 S    
O6    C4    1.285013 A    
C19   N7    1.437763 S    
Zn1   N1    2.006027 S    
C17   C19   1.414729 A    
O4    Zn2   2.001574 S    
N4    O11   1.300435 A    
C9    C10   1.391444 A    
C15   C18   1.406619 A    
C24   H6    1.081214 S    
O7    C3    1.289834 A    
N7    O17   1.301412 A    
O2    C2    1.276779 A    
O3    Zn2   2.016971 S    
O8    C4    1.290454 A    
C8    Cl2   1.761558 S    
O1    C1    1.282780 A    
C21   N2    1.365931 A    
C6    N4    1.435921 S    
C3    C11   1.439685 S    
C16   C17   1.409147 A    
C5    C7    1.410058 A    
C15   N5    1.434526 S    
C21   C23   1.414723 A    
O5    C3    1.285241 A    
C6    C8    1.411224 A    
C11   C13   1.391659 A    
N3    O9    1.300817 A    
C23   N1    1.366130 A    
N6    O16   1.300973 A    
N7    O18   1.300866 A    
O4    C2    1.291786 A    
O1    Zn1   2.002038 S    
C20   N8    1.438482 S    
N5    O14   1.300987 A    
N5    O13   1.301055 A    
N4    O12   1.301520 A    
O5    Zn1   1.977045 S    
C2    C17   1.435359 S    
C24   N1    1.365919 A    
C23   H5    1.081673 S    
C1    C18   1.425777 S    
O8    Zn2   1.977137 S    
C9    C12   1.419890 A    
C15   C16   1.385190 A    
O2    Zn1   2.017468 S    
C7    Cl1   1.765527 S    
N6    O15   1.301495 A    
C16   N6    1.438908 S    
H1    C13   1.081231 S    
C21   H3    1.081393 S    
C13   C14   1.368760 A    
C22   C24   1.414440 A    
C10   C11   1.409961 A    
N8    O20   1.301521 A    
C7    C8    1.405082 A    
C12   C14   1.399518 A    
N8    O19   1.301475 A    
O3    C1    1.280745 A    
H2    C14   1.079513 S    
