data_mof_unit_2025.cif
_audit_creation_date              2013-03-05T16:10:41-0500
_audit_creation_method            fapswitch 2.2
_symmetry_space_group_name_H-M    P1
_symmetry_Int_Tables_number       1
_space_group_crystal_system       triclinic
_cell_length_a                    8.279862
_cell_length_b                    15.103952
_cell_length_c                    18.844198
_cell_angle_alpha                 101.147672
_cell_angle_beta                  92.054613
_cell_angle_gamma                 98.744734
_cell_volume                      2280.10882271

loop_
_atom_site_label
_atom_site_type_symbol
_atom_site_description
_atom_site_fract_x
_atom_site_fract_y
_atom_site_fract_z
_atom_type_partial_charge
P1    P     P_3+3 0.039430 0.410940 0.333230 0.438796
O1    O     O_2   0.871960 0.437280 0.322960 -0.387079
O2    O     O_3   0.121410 0.444460 0.412450 -0.400253
O3    O     O_3   0.661450 0.607570 0.372550 -0.355146
O4    O     O_2   0.761726 0.541880 0.245526 -0.412782
O5    O     O_3   0.005029 0.291928 0.306516 -0.590643
O6    O     O_3   0.708311 0.710598 0.264163 -0.584545
C1    C     C_3   0.521778 0.810757 0.238646 -1.226704
H1    H     H_    0.609805 0.840500 0.203180 0.266790
H2    H     H_    0.437456 0.754329 0.203287 0.257688
P2    P     P_3+3 0.676770 0.715000 0.563590 0.456979
P3    P     P_3+3 0.129973 0.772685 0.411521 0.469129
O7    O     O_2   0.852310 0.726980 0.542430 -0.284570
O8    O     O_3   0.084010 0.657370 0.410280 -0.378941
O9    O     O_2   0.998709 0.816946 0.454946 -0.349027
O10   O     O_3   0.753012 0.729982 0.654486 -0.538724
O11   O     O_3   0.091315 0.791146 0.324057 -0.547345
C2    C     C_3   0.115066 0.714481 0.272742 0.515259
H3    H     H_    0.025866 0.653652 0.277456 0.165915
H4    H     H_    0.240712 0.699475 0.279931 0.005236
C3    C     C_3   0.088971 0.734137 0.197240 -1.024077
H5    H     H_    0.958055 0.737517 0.185382 0.281359
H6    H     H_    0.163556 0.800452 0.193314 0.266281
C4    C     C_3   0.235290 0.772242 0.672442 1.287861
H7    H     H_    0.324655 0.742354 0.636691 -0.160864
C5    C     C_3   0.310008 0.839296 0.742766 -1.176525
H8    H     H_    0.366351 0.802432 0.780315 0.233375
H9    H     H_    0.403005 0.894847 0.731836 0.234761
H10   H     H_    0.211800 0.871302 0.771475 0.280902
Ba1   Ba    Ba6+2 0.853520 0.540910 0.466490 1.592826
C6    C     C_3   0.938207 0.252074 0.361676 0.483258
H11   H     H_    0.830862 0.283114 0.380474 0.084602
H12   H     H_    0.031770 0.260546 0.407245 0.117328
C7    C     C_3   0.883009 0.150672 0.330830 -1.037068
H13   H     H_    0.774888 0.140946 0.291776 0.266817
H14   H     H_    0.850088 0.113422 0.374591 0.219943
H15   H     H_    0.983158 0.120765 0.302463 0.271187
C8    C     C_3   0.670610 0.779999 0.706746 0.467308
H16   H     H_    0.540777 0.756035 0.696331 0.039023
C9    C     C_3   0.718146 0.882955 0.710516 -1.092525
H17   H     H_    0.852367 0.901248 0.707035 0.296135
H18   H     H_    0.684180 0.922824 0.762200 0.244070
H19   H     H_    0.651644 0.903235 0.665931 0.234957
P4    P     P_3+3 0.150290 0.589140 0.666780 0.501367
O12   O     O_2   0.317750 0.562750 0.677090 -0.405814
O13   O     O_3   0.068300 0.555620 0.587560 -0.359724
O14   O     O_3   0.528270 0.392500 0.627460 -0.327934
O15   O     O_3   0.133171 0.704871 0.697977 -0.619479
P5    P     P_3+3 0.059557 0.222455 0.578304 0.492635
O16   O     O_3   0.609290 0.386840 0.459690 -0.445448
O17   O     O_3   0.105700 0.342700 0.589730 -0.333800
O18   O     O_2   0.209039 0.182573 0.546356 -0.361886
O19   O     O_3   0.057603 0.194090 0.664532 -0.558689
Ba2   Ba    Ba6+2 0.336320 0.459170 0.533520 1.607374
P6    P     P_3+3 0.637519 0.600888 0.279819 0.422337
C10   C     C_3   0.609419 0.773469 0.297119 1.204379
H20   H     H_    0.510001 0.741574 0.326695 -0.066260
H21   H     H_    0.450271 0.863390 0.264485 0.256926
O20   O     O_3   0.580430 0.613240 0.540320 -0.457074
C11   C     C_3   0.465750 0.328285 0.308847 0.309557
H22   H     H_    0.345883 0.346434 0.324765 0.076613
H23   H     H_    0.563944 0.386676 0.331292 0.139807
C12   C     C_3   0.471771 0.310654 0.226490 -0.718667
H24   H     H_    0.474651 0.375874 0.207854 0.142830
H25   H     H_    0.586193 0.283807 0.211095 0.232787
P7    P     P_3+3 0.513764 0.273544 0.428426 0.493277
O21   O     O_2   0.337390 0.273050 0.457610 -0.316078
O22   O     O_3   0.490245 0.249427 0.333574 -0.546894
H26   H     H_    0.125556 0.679457 0.155889 0.234575
C13   C     C_3   0.916263 0.217015 0.700011 0.998102
H27   H     H_    0.853227 0.264340 0.674026 -0.064990
C14   C     C_3   0.976823 0.272359 0.776579 -0.737998
H28   H     H_    0.103401 0.308992 0.775602 0.206937
H29   H     H_    0.901256 0.325837 0.792585 0.142485
P8    P     P_3+3 0.547145 0.397528 0.722290 0.512030
C15   C     C_3   0.532735 0.269058 0.799986 0.383231
H30   H     H_    0.647760 0.311088 0.823908 0.074632
O23   O     O_2   0.406807 0.447605 0.752497 -0.384493
O24   O     O_3   0.485888 0.282868 0.730477 -0.497477
H31   H     H_    0.561838 0.199529 0.795871 0.111216
H32   H     H_    0.437299 0.269012 0.905450 0.234100
C16   C     C_3   0.393362 0.275044 0.850314 -0.954677
H33   H     H_    0.294384 0.216473 0.829696 0.241624
H34   H     H_    0.344526 0.340083 0.853344 0.258829
C17   C     C_R   0.986023 0.474985 0.050351 0.014566
C18   C     C_R   0.881862 0.432864 0.095880 0.128587
C19   C     C_R   0.714970 0.405486 0.073740 -0.138238
C20   C     C_R   0.652139 0.420927 0.008010 -0.189379
C21   C     C_R   0.756799 0.457974 0.960439 0.144847
C22   C     C_R   0.924797 0.483625 0.981073 0.040351
C23   C     C_R   0.697454 0.466292 0.891573 -0.223897
C24   C     C_R   0.806229 0.482932 0.838019 -0.049854
C25   C     C_R   0.973595 0.516820 0.860288 0.015974
C26   C     C_R   0.030890 0.518909 0.932783 0.009456
C27   C     C_R   0.756914 0.460924 0.762691 0.027737
C28   C     C_R   0.873566 0.483882 0.713358 0.222549
C29   C     C_R   0.031179 0.532361 0.735269 0.209011
C30   C     C_R   0.083761 0.547828 0.810505 -0.113962
C31   C     C_R   0.150648 0.508745 0.074001 -0.025725
C32   C     C_R   0.209246 0.505675 0.145356 0.000589
C33   C     C_R   0.103990 0.463219 0.192003 -0.066925
C34   C     C_R   0.944254 0.421407 0.163593 -0.134945
H35   H     H_    0.631890 0.374179 0.108011 0.132536
H36   H     H_    0.521961 0.402027 0.993828 0.139328
H37   H     H_    0.567467 0.451104 0.877833 0.163388
H38   H     H_    0.863387 0.383806 0.194975 0.168300
C35   C     C_R   0.242927 0.592097 0.838155 -0.107221
C36   C     C_R   0.299653 0.593357 0.909857 0.097297
C37   C     C_R   0.195116 0.553497 0.956484 0.004397
C38   C     C_R   0.254230 0.550038 0.027452 0.013252
C39   C     C_R   0.460877 0.632607 0.935555 -0.192626
C40   C     C_R   0.519150 0.629813 0.005563 -0.189460
C41   C     C_R   0.417120 0.588019 0.051678 0.134256
C42   C     C_R   0.372300 0.546582 0.169949 -0.019705
C43   C     C_R   0.475407 0.585038 0.121802 -0.259134
C44   C     C_R   0.426169 0.550336 0.242613 0.140891
C45   C     C_R   0.318685 0.514046 0.289573 -0.524034
C46   C     C_R   0.160666 0.467392 0.265768 0.245183
H39   H     H_    0.326534 0.623505 0.804195 0.172627
H40   H     H_    0.542899 0.664877 0.901419 0.185897
H41   H     H_    0.644796 0.659906 0.023477 0.141043
H42   H     H_    0.601439 0.614577 0.138445 0.186225
H43   H     H_    0.361893 0.518577 0.345227 0.179709
C47   C     C_R   0.866294 0.166404 0.524476 0.136192
C48   C     C_R   0.805217 0.071700 0.515034 0.012835
C49   C     C_R   0.659024 0.888579 0.517473 0.004521
C50   C     C_R   0.817299 0.925088 0.548739 -0.112531
C51   C     C_R   0.891682 0.013040 0.544879 -0.142468
C52   C     C_R   0.582641 0.798033 0.519820 0.185782
H44   H     H_    0.884844 0.887250 0.578443 0.207713
H45   H     H_    0.013593 0.036348 0.570325 0.169072
C53   C     C_R   0.425452 0.765844 0.485951 -0.432221
C54   C     C_R   0.616422 0.189567 0.463622 0.295556
C55   C     C_R   0.552799 0.094763 0.452163 -0.188080
C56   C     C_R   0.644588 0.036876 0.482402 -0.061201
C57   C     C_R   0.399818 0.055287 0.413942 0.636163
C58   C     C_R   0.328349 0.967615 0.419025 -0.360270
C59   C     C_R   0.412278 0.911206 0.451683 -0.075325
C60   C     C_R   0.572926 0.945033 0.482973 0.088076
C61   C     C_R   0.339169 0.821264 0.452775 0.190448
C62   C     C_R   0.767373 0.223794 0.502132 -0.531211
H46   H     H_    0.204515 0.945096 0.396189 0.194958
H47   H     H_    0.367372 0.696888 0.486801 0.179670
H48   H     H_    0.811731 0.296648 0.512881 0.190178
O25   O     O_3   0.704894 0.842841 0.350420 -0.623319
C63   C     C_3   0.812903 0.905161 0.320316 -0.097001
H49   H     H_    0.746160 0.957177 0.303933 0.116867
H50   H     H_    0.873853 0.871156 0.273450 0.168241
H51   H     H_    0.909368 0.941717 0.362641 0.175258
C64   C     C_2   0.718318 0.757146 0.777863 0.455456
H52   H     H_    0.792593 0.808061 0.820151 0.038184
O26   O     O_2   0.679458 0.679241 0.787580 -0.652537
C65   C     C_2   0.325004 0.245618 0.189229 0.657144
H53   H     H_    0.203249 0.262337 0.197068 0.034517
O27   O     O_2   0.341520 0.174299 0.149044 -0.582187
O28   O     O_3   0.810774 0.134760 0.706503 -0.655576
C66   C     C_3   0.660227 0.117764 0.663478 -0.243862
H54   H     H_    0.648292 0.049774 0.627998 0.161272
H55   H     H_    0.640499 0.169704 0.630958 0.149992
H56   H     H_    0.555389 0.108003 0.697338 0.165154
C67   C     C_2   0.972758 0.214939 0.833897 0.688399
H57   H     H_    0.022008 0.151216 0.823993 0.042202
O29   O     O_2   0.912273 0.238776 0.891427 -0.594653
O30   O     O_3   0.830769 0.460794 0.641102 -0.660614
C68   C     C_3   0.747860 0.528902 0.624178 0.190409
H58   H     H_    0.830757 0.590938 0.621490 0.160963
H59   H     H_    0.654031 0.549768 0.662139 0.116577
H60   H     H_    0.686293 0.498782 0.570958 0.215235
O31   O     O_3   0.313341 0.102418 0.374019 -0.593341
C69   C     C_3   0.305708 0.060224 0.299845 -0.145391
H61   H     H_    0.221645 0.993641 0.288186 0.108343
H62   H     H_    0.429470 0.051396 0.281073 0.141324
H63   H     H_    0.255272 0.104907 0.267667 0.193979
O32   O     O_3   0.136521 0.815625 0.631214 -0.589406
C70   C     C_3   0.226384 0.896032 0.614718 -0.335527
H64   H     H_    0.219379 0.955924 0.658782 0.175727
H65   H     H_    0.170602 0.909942 0.564771 0.197762
H66   H     H_    0.357089 0.890738 0.605650 0.098422

loop_
_geom_bond_atom_site_label_1
_geom_bond_atom_site_label_2
_geom_bond_distance
_ccdc_geom_bond_type
P7    O22   1.751321 S    
C19   C20   1.400569 A    
C12   H25   1.112287 S    
C68   H58   1.084858 S    
C2    C3    1.523128 S    
P2    O7    1.514507 D    
O31   C69   1.414501 S    
C23   H37   1.077036 S    
C39   C40   1.398952 A    
C15   O24   1.415427 S    
O6    P6    1.755711 S    
C58   H46   1.076052 S    
C4    O32   1.419850 S    
C1    C10   1.537772 S    
C42   C43   1.413466 A    
P8    C27   1.905465 S    
C70   H65   1.103690 S    
C17   C18   1.407804 A    
C10   H20   1.111962 S    
C56   C60   1.425629 A    
Ba1   Ba2   4.565245 S    
C5    H8    1.111748 S    
O16   Ba2   2.936994 S    
C11   C12   1.527008 S    
C13   O28   1.434516 S    
C33   C46   1.437616 A    
O30   C68   1.398959 S    
C4    C5    1.548013 S    
C7    H13   1.111570 S    
O25   C63   1.412261 S    
C8    H16   1.079001 S    
O2    Ba2   2.795262 S    
C69   H61   1.111241 S    
C63   H51   1.108545 S    
C29   C30   1.432110 A    
C36   C37   1.408647 A    
C11   H23   1.109418 S    
P1    O1    1.515498 D    
P4    C29   1.906795 S    
C10   O25   1.419823 S    
O32   C70   1.418791 S    
P1    Ba1   3.437864 S    
C67   O29   1.224149 D    
C66   H54   1.100120 S    
C70   H64   1.113608 S    
P2    Ba1   3.450431 S    
C1    H1    1.109581 S    
P5    O17   1.767127 S    
P3    O11   1.750346 S    
C48   C51   1.403754 A    
C35   C36   1.410122 A    
P3    C61   1.854555 S    
C34   H38   1.078523 S    
C13   H27   1.119633 S    
C21   C23   1.406197 A    
C2    H4    1.107004 S    
C14   H28   1.110796 S    
C52   C53   1.402028 A    
C1    H21   1.110730 S    
C20   C21   1.403527 A    
C48   C56   1.423808 A    
C53   H47   1.082113 S    
C9    H18   1.111143 S    
P7    O21   1.578294 D    
Ba1   O16   2.820667 S    
C68   H59   1.114324 S    
C43   H42   1.080387 S    
C3    H5    1.109673 S    
C28   C29   1.401281 A    
O6    C10   1.415177 S    
O8    Ba1   2.775399 S    
P2    O20   1.591353 S    
O19   C13   1.423459 S    
P2    C52   1.873949 S    
C35   H39   1.078472 S    
C40   C41   1.403526 A    
C20   H36   1.082121 S    
P4    O13   1.573632 S    
C22   C26   1.409344 A    
C70   H66   1.114041 S    
C63   H50   1.110775 S    
Ba2   O20   2.820082 S    
C9    H19   1.104767 S    
C49   C60   1.422629 A    
C13   C14   1.544772 S    
P1    O5    1.746384 S    
C4    O15   1.392410 S    
C33   C34   1.413935 A    
O7    Ba1   2.898400 S    
C32   C42   1.417734 A    
C15   H30   1.089948 S    
C12   C65   1.497941 S    
C14   H29   1.099027 S    
C62   H48   1.082756 S    
C15   C16   1.521959 S    
C23   C24   1.409677 A    
C18   C19   1.404552 A    
C2    H3    1.107887 S    
C55   C57   1.420411 A    
Ba2   O21   2.898690 S    
C49   C52   1.426418 A    
C31   C38   1.413092 A    
C24   C27   1.423700 A    
H32   C16   1.113436 S    
C30   C35   1.415439 A    
C28   O30   1.358438 S    
C3    H26   1.106887 S    
C39   H40   1.079114 S    
P1    O2    1.573606 S    
C66   H55   1.111452 S    
O2    Ba1   2.941086 S    
C17   C31   1.404922 A    
P7    C54   1.839525 S    
P2    O10   1.764313 S    
C31   C32   1.424699 A    
P3    O9    1.539795 D    
C14   C67   1.508609 S    
P5    O18   1.548254 D    
Ba1   O20   2.937836 S    
O13   Ba2   2.941994 S    
C6    H12   1.110665 S    
O11   C2    1.401617 S    
C6    C7    1.521950 S    
C25   C26   1.422872 A    
C4    H7    1.106736 S    
O16   P7    1.751044 S    
C38   C41   1.405644 A    
C59   C61   1.404981 A    
O14   Ba2   2.765470 S    
C19   H35   1.079303 S    
C9    H17   1.111108 S    
P3    O8    1.720756 S    
O12   Ba2   2.873507 S    
C68   H60   1.090412 S    
C16   H34   1.110185 S    
C3    H6    1.110829 S    
O3    P6    1.733175 S    
C54   C55   1.420370 A    
C64   O26   1.222303 D    
C47   C62   1.389889 A    
C65   O27   1.220360 D    
C50   C51   1.393238 A    
C18   C34   1.410771 A    
C51   H45   1.079223 S    
P4    O12   1.515851 D    
C63   H49   1.109738 S    
O28   C66   1.423656 S    
C54   C62   1.396233 A    
O4    P6    1.540523 D    
C6    H11   1.104677 S    
C15   H31   1.101673 S    
C57   C58   1.388411 A    
C42   C44   1.412678 A    
C17   C22   1.420170 A    
C55   C56   1.424921 A    
C7    H15   1.108921 S    
C66   H56   1.104326 S    
C53   C61   1.397884 A    
C58   C59   1.392719 A    
C26   C37   1.404139 A    
C5    H9    1.105020 S    
C36   C39   1.403556 A    
Ba1   O13   2.794623 S    
O1    Ba1   2.872971 S    
O17   Ba2   2.776142 S    
C45   H43   1.081875 S    
C50   H44   1.072913 S    
O14   P8    1.774098 S    
C40   H41   1.083766 S    
C67   H57   1.087568 S    
C45   C46   1.401782 A    
C8    C9    1.532098 S    
P5    C47   1.856308 S    
C69   H62   1.114579 S    
C49   C50   1.402811 A    
P5    O19   1.758695 S    
C24   C25   1.420572 A    
C44   C45   1.404012 A    
O5    C6    1.389542 S    
C7    H14   1.104429 S    
P1    C46   1.897676 S    
P8    O23   1.547412 D    
C59   C60   1.413726 A    
C12   H24   1.105219 S    
P4    Ba2   3.438423 S    
C57   O31   1.381614 S    
C11   O22   1.399338 S    
C5    H10   1.112444 S    
C1    H2    1.106313 S    
C16   H33   1.108602 S    
P6    C44   1.853545 S    
C27   C28   1.415824 A    
C64   H52   1.090276 S    
C11   H22   1.105637 S    
C32   C33   1.430507 A    
C41   C43   1.401794 A    
C21   C22   1.405440 A    
C37   C38   1.420784 A    
P8    O24   1.766945 S    
C25   C30   1.425769 A    
C8    C64   1.501177 S    
O3    Ba1   2.765984 S    
P4    O15   1.762144 S    
O10   C8    1.386816 S    
C47   C48   1.417257 A    
C65   H53   1.084227 S    
C69   H63   1.106057 S    
