data_mof_unit_293.cif
_audit_creation_date              2012-12-11T15:30:32-0500
_audit_creation_method            fapswitch 2.2
_symmetry_space_group_name_H-M    P1
_symmetry_Int_Tables_number       1
_space_group_crystal_system       triclinic
_cell_length_a                    6.951795
_cell_length_b                    20.473681
_cell_length_c                    24.422334
_cell_angle_alpha                 89.681438
_cell_angle_beta                  90.467711
_cell_angle_gamma                 89.436173
_cell_volume                      3475.66289643

loop_
_atom_site_label
_atom_site_type_symbol
_atom_type_description
_atom_site_fract_x
_atom_site_fract_y
_atom_site_fract_z
_atom_type_partial_charge
O1    O     O_R   0.507310 0.423620 0.460450 -0.536151
O2    O     O_R   0.170760 0.556060 0.437190 -0.537342
O3    O     O_R   0.004040 0.576380 0.539550 -0.536372
C1    C     C_R   0.338760 0.576200 0.421233 0.725665
O4    O     O_R   0.177350 0.422870 0.454070 -0.537920
O5    O     O_R   0.010680 0.442240 0.556560 -0.535267
C2    C     C_R   0.346303 0.398975 0.443391 0.693802
O6    O     O_R   0.500670 0.557760 0.443440 -0.535204
O7    O     O_3   0.340380 0.506510 0.533610 -0.366651
V1    V     V_3+5 0.064130 0.498790 0.493770 1.418854
O8    O     O_R   0.681170 0.443940 0.562810 -0.538095
C3    C     C_R   0.850914 0.423881 0.578690 0.727256
O9    O     O_R   0.674570 0.577130 0.545930 -0.537745
C4    C     C_R   0.842658 0.601023 0.556627 0.693762
V2    V     V_3+5 0.564560 0.501210 0.506230 1.419221
O10   O     O_3   0.838170 0.493490 0.466390 -0.366709
C5    C     C_R   0.976727 0.838268 0.911140 -0.041180
C6    C     C_R   0.847294 0.661697 0.588838 -0.041227
C7    C     C_R   0.042921 0.722388 0.905836 -0.165152
C8    C     C_R   0.033203 0.779644 0.936142 -0.169779
C9    C     C_R   0.930488 0.839378 0.854942 -0.216212
C10   C     C_R   0.942604 0.781634 0.822654 0.086437
C11   C     C_R   0.999632 0.722871 0.849595 0.142191
C12   C     C_R   0.902923 0.780111 0.764784 0.058645
C13   C     C_R   0.921072 0.719855 0.735195 0.058665
C14   C     C_R   0.977647 0.663166 0.764496 -0.189325
C15   C     C_R   0.015544 0.664829 0.820348 -0.205164
C16   C     C_R   0.846322 0.836799 0.735485 -0.189327
C17   C     C_R   0.808398 0.835133 0.679634 -0.205106
C18   C     C_R   0.824321 0.777092 0.650386 0.142147
C19   C     C_R   0.881394 0.718332 0.677325 0.086439
C20   C     C_R   0.780999 0.777570 0.594148 -0.165101
C21   C     C_R   0.790743 0.720315 0.563841 -0.169762
C22   C     C_R   0.893560 0.660591 0.645035 -0.216176
H1    H     H_    0.059142 0.619930 0.840907 0.118992
H2    H     H_    0.933670 0.613804 0.662225 0.092576
H3    H     H_    0.752743 0.721625 0.520726 0.103410
H4    H     H_    0.764768 0.880030 0.659076 0.119129
H5    H     H_    0.087206 0.677566 0.926361 0.109338
H6    H     H_    0.071181 0.778332 0.979259 0.103442
H7    H     H_    0.890451 0.886170 0.837748 0.092571
H8    H     H_    0.994778 0.616227 0.745435 0.120904
H9    H     H_    0.829169 0.883736 0.754547 0.120938
H10   H     H_    0.736670 0.822389 0.573625 0.109401
C23   C     C_3   0.765000 0.257717 0.802028 -0.327676
C24   C     C_3   0.118575 0.245737 0.783412 -0.330941
C25   C     C_3   0.098797 0.295425 0.735165 -0.328571
H11   H     H_    0.765450 0.357800 0.769365 0.137257
H12   H     H_    0.794778 0.284527 0.840647 0.136685
H13   H     H_    0.239071 0.211084 0.775097 0.135329
H14   H     H_    0.155596 0.272248 0.821674 0.137037
H15   H     H_    0.126304 0.345603 0.750460 0.137020
H16   H     H_    0.210003 0.284443 0.703912 0.135344
C26   C     C_1   0.863602 0.378426 0.624444 -0.194243
C27   C     C_3   0.928998 0.207507 0.791264 0.293269
C28   C     C_3   0.745188 0.307355 0.753743 -0.329276
C29   C     C_3   0.895257 0.292452 0.708702 0.292425
C30   C     C_3   0.862664 0.221612 0.688608 -0.328332
C31   C     C_3   0.882349 0.171945 0.736885 -0.328983
C32   C     C_1   0.876856 0.339945 0.662422 -0.102449
C33   C     C_1   0.947383 0.160019 0.837547 -0.102344
C34   C     C_1   0.960631 0.121545 0.875530 -0.194260
H17   H     H_    0.745998 0.144378 0.741026 0.136414
H18   H     H_    0.998161 0.135823 0.727698 0.136986
H19   H     H_    0.716973 0.217666 0.669754 0.135971
H20   H     H_    0.626361 0.231811 0.807443 0.136065
H21   H     H_    0.597215 0.305008 0.736148 0.137311
H22   H     H_    0.969148 0.209149 0.656432 0.136803
C35   C     C_3   0.592473 0.700716 0.265917 -0.326727
C36   C     C_3   0.238449 0.696217 0.245039 -0.329867
C37   C     C_3   0.265640 0.745606 0.197006 -0.326307
H23   H     H_    0.654331 0.723105 0.179839 0.137297
H24   H     H_    0.614189 0.650106 0.250608 0.137044
H25   H     H_    0.090543 0.701597 0.261649 0.137144
H26   H     H_    0.252763 0.645476 0.229385 0.137334
H27   H     H_    0.292958 0.718335 0.158510 0.136451
H28   H     H_    0.130466 0.774364 0.190734 0.135986
C38   C     C_1   0.475596 0.878283 0.124730 -0.194757
C39   C     C_3   0.388948 0.707693 0.291170 0.290740
C40   C     C_3   0.619620 0.750184 0.217942 -0.331731
C41   C     C_3   0.435331 0.792400 0.208896 0.291831
C42   C     C_3   0.391758 0.828542 0.263167 -0.327995
C43   C     C_3   0.364737 0.779107 0.311185 -0.327733
C44   C     C_1   0.460070 0.839825 0.162698 -0.101321
C45   C     C_1   0.364194 0.660261 0.337362 -0.101435
C46   C     C_1   0.348661 0.621787 0.375319 -0.194735
H29   H     H_    0.471807 0.789207 0.344110 0.136620
H30   H     H_    0.219303 0.786045 0.329088 0.135784
H31   H     H_    0.511600 0.862158 0.273268 0.136627
H32   H     H_    0.704212 0.709200 0.297924 0.135646
H33   H     H_    0.744006 0.782232 0.227191 0.134985
H34   H     H_    0.259115 0.858956 0.258235 0.136532
C47   C     C_R   0.471843 0.161724 0.088843 -0.040978
C48   C     C_R   0.352668 0.338300 0.411191 -0.041093
C49   C     C_R   0.530589 0.277672 0.094047 -0.165120
C50   C     C_R   0.522603 0.220395 0.063766 -0.169877
C51   C     C_R   0.429640 0.160586 0.145086 -0.216103
C52   C     C_R   0.440089 0.218355 0.177343 0.086420
C53   C     C_R   0.491243 0.277169 0.150328 0.142208
C54   C     C_R   0.404300 0.219860 0.235247 0.058650
C55   C     C_R   0.420320 0.280154 0.264794 0.058669
C56   C     C_R   0.471007 0.336893 0.235423 -0.189301
C57   C     C_R   0.505201 0.335244 0.179540 -0.205158
C58   C     C_R   0.353658 0.163118 0.264620 -0.189288
C59   C     C_R   0.319481 0.164767 0.320504 -0.205102
C60   C     C_R   0.333395 0.222845 0.349714 0.142156
C61   C     C_R   0.384506 0.281661 0.322696 0.086440
C62   C     C_R   0.294046 0.222343 0.405995 -0.165055
C63   C     C_R   0.301971 0.279625 0.436271 -0.169887
C64   C     C_R   0.394879 0.339436 0.354948 -0.216106
H35   H     H_    0.544315 0.380182 0.158926 0.118972
H36   H     H_    0.430532 0.386264 0.337702 0.092540
H37   H     H_    0.267142 0.278291 0.479428 0.103350
H38   H     H_    0.280408 0.119826 0.341121 0.119120
H39   H     H_    0.570393 0.322533 0.073465 0.109327
H40   H     H_    0.557424 0.221729 0.020609 0.103423
H41   H     H_    0.393915 0.113763 0.162328 0.092594
H42   H     H_    0.486238 0.383862 0.254451 0.120904
H43   H     H_    0.338474 0.116146 0.245595 0.120947
H44   H     H_    0.254280 0.177479 0.426580 0.109385
O11   O     O_R   0.323590 0.942280 0.056590 -0.535242
O12   O     O_R   0.647030 0.077140 0.045940 -0.537896
O13   O     O_R   0.813570 0.057750 0.943430 -0.535280
C65   C     C_R   0.478112 0.101053 0.056637 0.693963
O14   O     O_R   0.653510 0.943950 0.062820 -0.537338
O15   O     O_R   0.820100 0.923600 0.960440 -0.536408
C66   C     C_R   0.485501 0.923841 0.078797 0.725652
O16   O     O_R   0.317060 0.076430 0.039590 -0.536264
O17   O     O_3   0.483830 0.993520 0.966410 -0.366698
V3    V     V_3+5 0.760140 0.001200 0.006230 1.418881
O18   O     O_R   0.149560 0.922820 0.954030 -0.537892
C67   C     C_R   0.981442 0.898943 0.943348 0.693646
O19   O     O_R   0.143080 0.056020 0.937150 -0.538129
C68   C     C_R   0.973331 0.076095 0.921287 0.727250
V4    V     V_3+5 0.259690 0.998730 0.993720 1.419327
O20   O     O_3   0.986120 0.006480 0.033580 -0.366678

loop_
_geom_bond_atom_site_label_1
_geom_bond_atom_site_label_2
_ccdc_geom_bond_type
C55   C61   A    
C53   C57   A    
C13   C19   A    
C55   C56   A    
C27   C31   S    
C62   H44   S    
C43   H29   S    
C7    C8    A    
C47   C65   S    
C39   C45   S    
C1    O6    A    
C41   C42   S    
V4    O20   S    
C26   C32   T    
C45   C46   T    
C62   C63   A    
C14   C15   A    
C42   H31   S    
C16   C17   A    
O11   C66   A    
O18   V4    S    
O5    C3    A    
C37   H27   S    
C8    H6    S    
C49   C53   A    
C1    C46   S    
C60   C61   A    
O15   V3    S    
V2    O10   S    
C54   C58   A    
C5    C8    A    
C42   H34   S    
C28   C29   S    
C57   H35   S    
C4    C6    S    
O17   V4    S    
O8    V2    S    
O14   V3    S    
C49   C50   A    
C23   C28   S    
C49   H39   S    
C24   C27   S    
C36   H25   S    
C35   H24   S    
C36   C37   S    
O1    V2    S    
C11   C15   A    
C18   C20   A    
O7    V1    S    
C56   H42   S    
C63   H37   S    
C65   O16   A    
C58   H43   S    
C43   H30   S    
O9    C4    A    
C5    C67   S    
C51   H41   S    
C56   C57   A    
C38   C66   S    
C58   C59   A    
C51   C52   A    
O13   C68   A    
C59   H38   S    
C12   C13   A    
O16   V4    S    
O4    C2    A    
C7    C11   A    
C29   C32   S    
C15   H1    S    
C30   C31   S    
C24   H14   S    
C48   C64   A    
C21   H3    S    
C17   H4    S    
O2    C1    A    
C17   C18   A    
C38   C44   T    
C25   C29   S    
C30   H19   S    
C23   H12   S    
C20   H10   S    
C19   C22   A    
O11   V4    S    
C6    C22   A    
O3    C4    A    
C7    H5    S    
C9    H7    S    
C30   H22   S    
C42   C43   S    
O6    V2    S    
C52   C54   A    
O9    V2    S    
O13   V3    S    
O19   C68   A    
C61   C64   A    
C10   C12   A    
C35   C39   S    
O12   C65   A    
O18   C67   A    
O2    V1    S    
C47   C51   A    
C37   H28   S    
C41   C44   S    
C14   H8    S    
O19   V4    S    
O17   V3    S    
H11   C28   S    
C2    C48   S    
C24   C25   S    
C16   H9    S    
C36   C39   S    
O1    C2    A    
V3    O20   S    
C12   C16   A    
C40   C41   S    
O5    V1    S    
O8    C3    A    
C25   H15   S    
C47   C50   A    
C28   H21   S    
C59   C60   A    
C24   H13   S    
C48   C63   A    
C31   H17   S    
C25   H16   S    
C20   C21   A    
C34   C68   S    
C40   H33   S    
C13   C14   A    
O4    V1    S    
H23   C40   S    
O3    V1    S    
V1    O10   S    
C39   C43   S    
C29   C30   S    
C18   C19   A    
C60   C62   A    
C27   C33   S    
C54   C55   A    
C22   H2    S    
O7    V2    S    
C33   C34   T    
C6    C21   A    
C64   H36   S    
O15   C67   A    
C31   H18   S    
C23   C27   S    
C52   C53   A    
C23   H20   S    
O14   C66   A    
C36   H26   S    
C10   C11   A    
C50   H40   S    
C35   C40   S    
C9    C10   A    
O12   V3    S    
C3    C26   S    
C35   H32   S    
C37   C41   S    
C5    C9    A    
