data_mof_unit_1914.cif
_audit_creation_date              2013-03-05T16:01:58-0500
_audit_creation_method            fapswitch 2.2
_symmetry_space_group_name_H-M    P1
_symmetry_Int_Tables_number       1
_space_group_crystal_system       triclinic
_cell_length_a                    15.036631
_cell_length_b                    14.201884
_cell_length_c                    14.091115
_cell_angle_alpha                 89.963029
_cell_angle_beta                  87.646113
_cell_angle_gamma                 89.079068
_cell_volume                      3006.20886709

loop_
_atom_site_label
_atom_site_type_symbol
_atom_site_description
_atom_site_fract_x
_atom_site_fract_y
_atom_site_fract_z
_atom_type_partial_charge
O1    O     O_R   0.367850 0.580280 0.500020 -0.540445
O2    O     O_R   0.632150 0.419720 0.499980 -0.574504
O3    O     O_R   0.632150 0.580280 0.499980 -0.566828
O4    O     O_R   0.367850 0.419720 0.500020 -0.591744
C1    C     C_R   0.326854 0.500710 0.505333 0.997655
C2    C     C_R   0.672808 0.499053 0.494690 0.974745
O5    O     O_R   0.500000 0.580290 0.373720 -0.584623
O6    O     O_R   0.500000 0.419710 0.626280 -0.528097
O7    O     O_R   0.500000 0.580290 0.626280 -0.581215
O8    O     O_R   0.500000 0.419710 0.373720 -0.533077
C3    C     C_R   0.499659 0.500213 0.329385 0.915422
C4    C     C_R   0.506402 0.499976 0.669952 0.944542
Zn1   Zn    Zn3+2 0.500000 0.607200 0.500000 1.102075
Zn2   Zn    Zn3+2 0.500000 0.392800 0.500000 1.111970
C5    C     C_1   0.502031 0.500950 0.227734 -0.042323
C6    C     C_1   0.511084 0.500390 0.771334 -0.062071
C7    C     C_1   0.505041 0.501318 0.142258 0.091577
C8    C     C_1   0.512380 0.500803 0.856679 0.082750
C9    C     C_1   0.508766 0.501349 0.042188 0.104691
C10   C     C_1   0.511216 0.501170 0.956702 0.106888
C11   C     C_R   0.819651 0.500714 0.409203 0.374466
C12   C     C_R   0.180090 0.478168 0.589004 0.352816
C13   C     C_R   0.768347 0.495903 0.494958 -0.156315
C14   C     C_R   0.230487 0.502833 0.506044 -0.162181
C15   C     C_R   0.809061 0.489009 0.582867 0.082132
C16   C     C_R   0.189055 0.527416 0.421173 0.106926
C17   C     C_R   0.901217 0.471081 0.582233 0.009339
C18   C     C_R   0.095454 0.537621 0.422429 0.018867
C19   C     C_R   0.952346 0.497934 0.500068 -0.025654
C20   C     C_R   0.045459 0.502025 0.501970 -0.027294
C21   C     C_R   0.910315 0.518592 0.415047 -0.055658
C22   C     C_R   0.087785 0.469967 0.583482 -0.048481
C23   C     C_R   0.944786 0.427906 0.658469 0.324281
C24   C     C_R   0.048823 0.578593 0.346541 0.388398
C25   C     C_R   0.036865 0.427588 0.657126 -0.167345
C26   C     C_R   0.958671 0.560259 0.339676 -0.130778
H1    H     H_    0.068228 0.390327 0.713684 0.252296
H2    H     H_    0.924577 0.587176 0.278958 0.244526
C27   C     C_R   0.545946 0.800602 0.429832 0.421866
C28   C     C_R   0.501694 0.198111 0.584013 0.416285
C29   C     C_R   0.453865 0.802370 0.569549 0.417307
C30   C     C_R   0.497781 0.198195 0.416144 0.441364
N1    N     N_R   0.500000 0.750030 0.500000 -0.207419
N2    N     N_R   0.500000 0.249970 0.500000 -0.211780
C31   C     C_R   0.473313 0.899616 0.581389 -0.225973
C32   C     C_R   0.519634 0.099654 0.416229 -0.217024
C33   C     C_R   0.527590 0.898951 0.418476 -0.234717
C34   C     C_R   0.480798 0.099998 0.584178 -0.212306
C35   C     C_R   0.500573 0.949776 0.500056 -0.063108
C36   C     C_R   0.500362 0.049613 0.500171 -0.053968
C37   C     C_R   0.457852 0.949145 0.667906 0.392929
C38   C     C_R   0.548801 0.048328 0.333527 0.380058
C39   C     C_R   0.542736 0.948601 0.332099 0.391159
C40   C     C_R   0.452220 0.049167 0.667056 0.368321
S1    S     S_3+6 0.777065 0.471641 0.296839 0.066446
O9    O     O_2   0.758990 0.559576 0.241273 -0.220517
O10   O     O_2   0.846185 0.413469 0.242288 -0.237750
O11   O     O_3   0.683880 0.408558 0.308499 -0.545168
H3    H     H_    0.670612 0.389806 0.242950 0.409102
S2    S     S_3+6 0.229133 0.458765 0.700759 0.075180
O12   O     O_2   0.169776 0.500685 0.778916 -0.244947
O13   O     O_2   0.238879 0.354735 0.717057 -0.224750
O14   O     O_3   0.328172 0.507921 0.706831 -0.551424
H4    H     H_    0.332175 0.526061 0.774377 0.396722
C41   C     C_3   0.757035 0.516417 0.673334 -0.684749
H5    H     H_    0.715994 0.580630 0.661178 0.214705
H6    H     H_    0.712257 0.459338 0.697585 0.279149
H7    H     H_    0.801823 0.536180 0.730161 0.272693
C42   C     C_3   0.244040 0.526424 0.328233 -0.689874
H8    H     H_    0.203419 0.506126 0.268035 0.271573
H9    H     H_    0.276455 0.595042 0.315499 0.273826
H10   H     H_    0.297274 0.471788 0.328726 0.224348
S3    S     S_3+6 0.891676 0.356712 0.747247 0.092045
O15   O     O_2   0.865267 0.415466 0.832752 -0.198623
O16   O     O_2   0.810842 0.311169 0.710240 -0.236115
O17   O     O_3   0.962064 0.271247 0.781857 -0.457805
H11   H     H_    0.972818 0.230970 0.725030 0.367422
S4    S     S_3+6 0.091657 0.671194 0.273896 0.077719
O18   O     O_2   0.129984 0.632335 0.181554 -0.258809
O19   O     O_2   0.017459 0.739264 0.252665 -0.200715
O20   O     O_3   0.170019 0.729754 0.330599 -0.529651
H12   H     H_    0.194598 0.774934 0.283208 0.401181
S5    S     S_3+6 0.651685 0.759881 0.384634 0.132871
O21   O     O_2   0.640913 0.675421 0.323029 -0.183429
O22   O     O_2   0.699553 0.834057 0.327303 -0.201118
O23   O     O_3   0.716410 0.732723 0.475533 -0.524350
H13   H     H_    0.713894 0.789296 0.516696 0.355436
S6    S     S_3+6 0.568033 0.234235 0.678642 0.130955
O24   O     O_2   0.513391 0.286981 0.753296 -0.189390
O25   O     O_2   0.609925 0.149840 0.724671 -0.218974
O26   O     O_3   0.650175 0.302253 0.636460 -0.508559
H14   H     H_    0.683808 0.262276 0.589365 0.371548
S7    S     S_3+6 0.345904 0.768227 0.610363 0.137802
O27   O     O_2   0.352675 0.687786 0.678351 -0.184519
O28   O     O_2   0.296155 0.847962 0.659802 -0.214276
O29   O     O_3   0.285969 0.737627 0.517500 -0.486537
H15   H     H_    0.292089 0.790786 0.472280 0.359870
S8    S     S_3+6 0.431011 0.235815 0.320984 0.112086
O30   O     O_2   0.485445 0.288078 0.247120 -0.210397
O31   O     O_2   0.392074 0.151778 0.273914 -0.232443
O32   O     O_3   0.345811 0.304318 0.360785 -0.544052
H16   H     H_    0.309193 0.263085 0.402912 0.362711
S9    S     S_3+6 0.469728 0.888404 0.777856 0.126532
O33   O     O_2   0.380762 0.875010 0.828051 -0.166475
O34   O     O_2   0.513637 0.793640 0.761303 -0.300880
O35   O     O_3   0.534289 0.951604 0.847786 -0.460126
H17   H     H_    0.533079 0.917798 0.909345 0.397721
S10   S     S_3+6 0.614708 0.104214 0.242725 0.145732
O36   O     O_2   0.561245 0.120025 0.156193 -0.149416
O37   O     O_2   0.648009 0.196832 0.277168 -0.267996
O38   O     O_3   0.703530 0.035271 0.213460 -0.459546
H18   H     H_    0.734435 0.067988 0.159804 0.410938
S11   S     S_3+6 0.526564 0.890724 0.221774 0.126199
O39   O     O_2   0.613100 0.878505 0.165685 -0.161777
O40   O     O_2   0.485794 0.795788 0.238000 -0.299646
O41   O     O_3   0.456705 0.956670 0.158210 -0.467071
H19   H     H_    0.454094 0.923920 0.096362 0.397100
S12   S     S_3+6 0.387106 0.106935 0.758598 0.151292
O42   O     O_2   0.441358 0.121364 0.844442 -0.148443
O43   O     O_2   0.353508 0.200469 0.724128 -0.235828
O44   O     O_3   0.298487 0.041181 0.789110 -0.463979
H20   H     H_    0.267573 0.075659 0.842251 0.408494

loop_
_geom_bond_atom_site_label_1
_geom_bond_atom_site_label_2
_geom_bond_distance
_ccdc_geom_bond_type
O5    Zn1   1.820246 S    
S1    O9    1.500618 D    
S7    O27   1.495379 D    
C17   C19   1.418716 A    
S3    O16   1.498468 D    
S3    O15   1.502329 D    
O38   H18   0.990519 S    
O3    C2    1.297595 A    
O20   H12   0.990484 S    
C33   C35   1.400279 A    
C17   C23   1.415350 A    
O5    C3    1.298076 A    
C11   C21   1.396472 A    
O32   H16   0.990731 S    
C12   C22   1.400048 A    
S2    O14   1.660237 S    
O1    C1    1.296579 A    
Zn2   N2    2.028457 S    
C25   H1    1.076988 S    
C14   C16   1.412073 A    
C30   S8    1.784363 S    
C12   S2    1.785473 S    
S4    O19   1.503724 D    
O35   H17   0.990818 S    
C31   C37   1.416921 A    
C37   S9    1.786743 S    
C32   C38   1.424988 A    
S10   O36   1.502616 D    
S2    O13   1.500778 D    
C30   C32   1.432387 A    
C42   H9    1.107840 S    
O7    Zn1   1.819762 S    
S12   O42   1.502491 D    
C23   C25   1.383846 A    
C3    C5    1.431392 S    
C29   S7    1.774675 S    
C4    C6    1.433223 S    
C41   H6    1.107030 S    
C24   C26   1.391727 A    
O3    Zn1   2.017479 S    
C33   C39   1.418375 A    
S11   O41   1.681490 S    
C34   C36   1.401976 A    
C18   C24   1.421760 A    
S7    O28   1.502726 D    
C29   N1    1.386622 A    
O2    C2    1.291134 A    
C30   N2    1.393976 A    
C39   S11   1.786247 S    
C22   C25   1.405019 A    
C15   C41   1.515755 S    
O17   H11   0.990726 S    
O8    Zn2   1.819763 S    
O26   H14   0.991045 S    
C11   S1    1.783289 S    
S4    O18   1.502969 D    
C27   N1    1.389127 A    
O11   H3    0.990468 S    
S2    O12   1.505650 D    
S12   O44   1.680765 S    
C42   H10   1.106038 S    
C34   C40   1.427348 A    
C19   C20   1.403588 A    
S5    O21   1.495908 D    
S6    O26   1.670118 S    
C31   C35   1.399546 A    
O6    C4    1.302579 A    
C41   H7    1.106432 S    
O29   H15   0.990572 S    
S9    O34   1.503576 D    
O44   H20   0.990523 S    
C23   S3    1.779684 S    
S5    O22   1.501993 D    
S6    O25   1.504098 D    
C35   C36   1.417818 A    
S7    O29   1.680334 S    
S8    O31   1.504153 D    
S1    O10   1.503731 D    
S3    O17   1.682737 S    
C12   C14   1.413759 A    
O1    Zn1   2.029549 S    
C41   H5    1.110050 S    
C40   S12   1.779719 S    
Zn1   N1    2.028455 S    
C38   C39   1.420917 A    
C27   C33   1.429560 A    
S11   O39   1.502121 D    
C5    C7    1.203459 T    
C28   C34   1.433271 A    
O6    Zn2   1.820244 S    
O23   H13   0.990561 S    
O4    C1    1.296964 A    
C15   C17   1.404542 A    
S8    O32   1.674489 S    
C32   C36   1.401976 A    
C16   C18   1.411944 A    
S10   O38   1.681002 S    
C37   C40   1.421746 A    
C28   S6    1.778457 S    
C9    C10   1.203647 T    
C11   C13   1.408902 A    
C27   S5    1.776452 S    
C18   C20   1.420993 A    
C19   C21   1.405914 A    
C24   S4    1.778622 S    
C20   C22   1.407731 A    
S4    O20   1.681712 S    
C1    C14   1.448486 S    
C2    C13   1.436712 S    
C26   H2    1.081801 S    
C7    C9    1.408898 S    
S10   O37   1.502787 D    
O41   H19   0.990608 S    
S9    O35   1.681304 S    
C8    C10   1.408834 S    
C13   C15   1.406799 A    
O4    Zn2   2.017480 S    
C42   H8    1.106455 S    
O2    Zn2   2.029547 S    
O7    C4    1.299765 A    
S12   O43   1.501144 D    
O8    C3    1.302534 A    
O14   H4    0.990666 S    
C28   N2    1.394730 A    
S5    O23   1.681158 S    
S6    O24   1.501016 D    
C38   S10   1.780165 S    
C6    C8    1.203591 T    
S8    O30   1.500912 D    
S1    O11   1.677557 S    
S9    O33   1.502093 D    
C16   C42   1.519747 S    
C29   C31   1.427595 A    
C21   C26   1.398728 A    
S11   O40   1.503525 D    
