data_mof_unit_2213.cif
_audit_creation_date              2013-03-05T16:41:15-0500
_audit_creation_method            fapswitch 2.2
_symmetry_space_group_name_H-M    P1
_symmetry_Int_Tables_number       1
_space_group_crystal_system       triclinic
_cell_length_a                    10.694494
_cell_length_b                    10.612996
_cell_length_c                    9.912188
_cell_angle_alpha                 89.914166
_cell_angle_beta                  89.08089
_cell_angle_gamma                 89.885048
_cell_volume                      1124.89128104

loop_
_atom_site_label
_atom_site_type_symbol
_atom_site_description
_atom_site_fract_x
_atom_site_fract_y
_atom_site_fract_z
_atom_type_partial_charge
O1    O     O_R   0.500020 0.316790 0.614690 -0.592028
O2    O     O_R   0.500000 0.316760 0.385350 -0.632690
C1    C     C_R   0.500804 0.260624 0.499737 0.875760
O3    O     O_R   0.319080 0.500020 0.614640 -0.533301
O4    O     O_R   0.319070 0.499980 0.385300 -0.612249
C2    C     C_R   0.262404 0.508529 0.501046 0.822510
Zn1   Zn    Zn3+2 0.500010 0.500020 0.653130 1.037968
Zn2   Zn    Zn3+2 0.499990 0.499980 0.346870 0.994726
O5    O     O_R   0.500000 0.683240 0.614650 -0.631060
O6    O     O_R   0.499980 0.683210 0.385310 -0.623206
O7    O     O_R   0.680930 0.500020 0.614700 -0.609304
O8    O     O_R   0.680920 0.499980 0.385360 -0.606867
C3    C     C_R   0.497242 0.739453 0.499832 0.835644
C4    C     C_R   0.737403 0.496786 0.498745 0.910519
C5    C     C_2   0.933304 0.533891 0.388676 -0.069234
C6    C     C_2   0.869669 0.487993 0.494552 -0.194291
H1    H     H_    0.887011 0.570216 0.299831 0.180500
H2    H     H_    0.915141 0.445170 0.580479 0.177511
C7    C     C_2   0.067942 0.529427 0.388411 -0.229082
C8    C     C_2   0.132242 0.543167 0.502833 0.103326
H3    H     H_    0.113024 0.501337 0.294124 0.219299
C9    C     C_R   0.583107 0.063383 0.421288 0.009909
C10   C     C_R   0.494498 0.129041 0.496776 -0.154931
C11   C     C_R   0.392029 0.068355 0.556413 -0.054123
H4    H     H_    0.318017 0.123308 0.603850 0.214093
C12   C     C_R   0.388298 0.937189 0.558366 -0.079958
C13   C     C_R   0.489375 0.871646 0.497345 -0.141272
C14   C     C_R   0.580939 0.934573 0.422790 0.085612
C15   C     C_3   0.719911 0.923343 0.433416 -0.466804
C16   C     C_3   0.722559 0.066524 0.432759 0.142322
H5    H     H_    0.748939 0.881807 0.531169 0.214739
H6    H     H_    0.762923 0.877905 0.342935 0.236495
H7    H     H_    0.754718 0.109192 0.528725 0.132745
C17   C     C_R   0.539968 0.397726 0.070639 0.164527
N1    N     N_R   0.499170 0.499140 0.142800 -0.087946
C18   C     C_R   0.467440 0.605230 0.072120 -0.055832
H8    H     H_    0.439419 0.689433 0.126012 0.152736
C19   C     C_R   0.467331 0.605228 0.928516 -0.006040
H9    H     H_    0.439149 0.689388 0.875319 0.154743
N2    N     N_R   0.499170 0.499180 0.857150 -0.083102
C20   C     C_R   0.540257 0.397485 0.929080 0.025062
C21   C     C_3   0.498092 0.261561 0.925605 0.147902
C22   C     C_3   0.495880 0.264080 0.081017 -0.435613
H10   H     H_    0.567374 0.202909 0.127962 0.178043
N3    N     N_R   0.783890 0.119782 0.312611 0.232912
O9    O     O_R   0.761816 0.075672 0.192835 -0.390846
O10   O     O_R   0.863380 0.211394 0.325600 -0.377370
N4    N     N_R   0.374158 0.239016 0.867280 0.252901
O11   O     O_R   0.325250 0.126989 0.875385 -0.331704
O12   O     O_R   0.304162 0.331883 0.827676 -0.298922
C23   C     C_2   0.599712 0.176848 0.868415 0.417475
H11   H     H_    0.697007 0.196729 0.889623 0.090698
O13   O     O_2   0.574713 0.084655 0.800624 -0.531875
C24   C     C_2   0.368347 0.248149 0.147474 0.661621
H12   H     H_    0.348436 0.162681 0.203957 0.044372
O14   O     O_2   0.286503 0.327768 0.136140 -0.512996
N5    N     N_R   0.078922 0.603323 0.621398 0.193260
O15   O     O_R   0.108304 0.565180 0.741666 -0.317846
O16   O     O_R   0.008295 0.702643 0.609224 -0.362618
C25   C     C_2   0.281721 0.871344 0.625407 0.512221
H13   H     H_    0.277280 0.769526 0.626776 0.069776
O17   O     O_2   0.196772 0.930400 0.679771 -0.468819

loop_
_geom_bond_atom_site_label_1
_geom_bond_atom_site_label_2
_geom_bond_distance
_ccdc_geom_bond_type
O4    Zn2   1.965983 S    
C19   N2    1.369738 A    
C10   C11   1.395016 A    
C15   C16   1.519910 S    
C9    C16   1.497948 S    
C2    C8    1.438870 S    
C20   C21   1.512865 S    
C24   H12   1.084894 S    
C16   N3    1.463695 S    
C1    C10   1.398623 S    
C7    C8    1.344023 D    
Zn2   O8    1.978204 S    
C21   C23   1.512807 S    
Zn1   N2    2.022167 S    
N4    O12   1.300456 A    
O2    C1    1.280173 A    
N5    O15   1.301465 A    
C23   H11   1.086016 S    
C15   H5    1.112378 S    
C6    H2    1.086144 S    
C9    C14   1.367364 A    
N3    O9    1.302125 A    
C3    C13   1.405516 S    
Zn1   O7    1.965985 S    
C14   C15   1.496146 S    
C12   C13   1.412610 A    
C19   H9    1.081333 S    
C17   C20   1.403116 A    
O3    Zn1   1.978204 S    
N4    O11   1.301720 A    
C18   C19   1.423448 A    
N2    C20   1.368256 A    
C7    H3    1.086551 S    
C11   C12   1.392818 A    
C15   H6    1.111605 S    
C24   O14   1.221737 D    
N3    O10   1.300686 A    
C22   H10   1.109556 S    
O4    C2    1.292112 A    
O7    C4    1.290247 A    
C4    C6    1.417353 S    
N5    O16   1.302124 A    
O3    C2    1.290233 A    
C21   C22   1.540551 S    
C23   O13   1.220299 D    
C5    C6    1.333671 D    
Zn1   O5    1.981007 S    
C11   H4    1.083856 S    
C25   O17   1.221299 D    
C17   N1    1.360453 A    
C13   C14   1.388873 A    
C5    H1    1.086960 S    
O5    C3    1.284928 A    
C9    C10   1.385501 A    
C18   H8    1.081205 S    
C21   N4    1.474608 S    
C22   C24   1.514771 S    
C16   H7    1.113826 S    
O1    Zn1   1.982156 S    
C8    N5    1.446805 S    
C5    C7    1.440529 S    
C12   C25   1.485449 S    
Zn2   N1    2.022973 S    
Zn2   O6    1.982156 S    
O2    Zn2   1.981009 S    
C17   C22   1.498461 S    
N1    C18   1.370191 A    
O8    C4    1.284818 A    
C25   H13   1.081791 S    
O1    C1    1.286634 A    
O6    C3    1.283213 A    
