data_mof_unit_19.cif
_audit_creation_date              2012-10-26T20:35:50-0400
_audit_creation_method            fapswitch 2.2
_symmetry_space_group_name_H-M    P1
_symmetry_Int_Tables_number       1
_space_group_crystal_system       triclinic
_cell_length_a                    8.71752
_cell_length_b                    15.804104
_cell_length_c                    17.113382
_cell_angle_alpha                 95.94816
_cell_angle_beta                  90.268997
_cell_angle_gamma                 84.575672
_cell_volume                      2334.52864205

loop_
_atom_site_label
_atom_site_type_symbol
_atom_type_description
_atom_site_fract_x
_atom_site_fract_y
_atom_site_fract_z
_atom_type_partial_charge
C1    C     C_R   0.503794 0.489738 0.348804 0.591698
C2    C     C_R   0.338622 0.165735 0.458253 -0.013943
C3    C     C_R   0.645191 0.745670 0.541038 0.071793
C4    C     C_R   0.354716 0.254350 0.459052 0.057143
C5    C     C_R   0.205438 0.521868 0.500512 0.574907
C6    C     C_R   0.794549 0.478111 0.498951 0.571088
C7    C     C_2   0.040521 0.533919 0.500880 -0.094666
C8    C     C_2   0.959423 0.466045 0.497715 -0.119738
C9    C     C_R   0.505943 0.484879 0.263041 0.000884
C10   C     C_R   0.496031 0.514886 0.737252 0.000538
C11   C     C_R   0.600103 0.533959 0.222043 0.177445
C12   C     C_R   0.496457 0.510217 0.651307 0.594625
C13   C     C_R   0.409435 0.462330 0.778720 0.229097
C14   C     C_R   0.587913 0.530919 0.140398 -0.071907
C15   C     C_R   0.423633 0.465737 0.860249 -0.057888
C16   C     C_R   0.485747 0.478695 0.099020 0.189804
C17   C     C_R   0.520117 0.521565 0.901411 0.183759
C18   C     C_R   0.398294 0.428240 0.139980 -0.102311
C19   C     C_R   0.600609 0.574950 0.860105 -0.107882
C20   C     C_R   0.408019 0.431203 0.221250 -0.179362
C21   C     C_R   0.588843 0.571799 0.778823 -0.189790
C22   C     C_3   0.804639 0.874003 0.573474 -0.260447
C23   C     C_R   0.403138 0.761237 0.478828 0.028504
C24   C     C_3   0.939349 0.810754 0.595087 -0.323003
C25   C     C_3   0.079861 0.857149 0.620871 -0.432373
C26   C     C_3   0.195277 0.126018 0.426595 -0.261213
C27   C     C_3   0.060504 0.189278 0.405077 -0.322199
C28   C     C_3   0.920039 0.142872 0.379232 -0.433467
C29   C     C_R   0.596993 0.238731 0.521031 0.038318
C30   C     C_R   0.410922 0.849607 0.479718 -0.125163
C31   C     C_R   0.589232 0.150353 0.520098 -0.115415
C32   C     C_R   0.540628 0.887786 0.511544 0.213028
C33   C     C_R   0.459435 0.112195 0.488361 0.213703
C34   C     C_R   0.661336 0.834273 0.541772 -0.010828
Cu1   Cu    Cu3+1 0.492520 0.415770 0.496210 1.007092
Cu2   Cu    Cu3+1 0.507480 0.584230 0.503790 1.019019
H1    H     H_    0.985699 0.598890 0.504040 0.124479
H2    H     H_    0.304181 0.733032 0.452850 0.136684
H3    H     H_    0.684003 0.112593 0.544705 0.120941
H4    H     H_    0.316247 0.887344 0.455008 0.119889
H5    H     H_    0.733614 0.703796 0.565237 0.119678
H6    H     H_    0.266195 0.296243 0.434952 0.122158
H7    H     H_    0.100922 0.405753 0.644042 0.357085
H8    H     H_    0.586277 0.712844 0.277155 0.332765
H9    H     H_    0.117731 0.893197 0.573209 0.153357
H10   H     H_    0.052131 0.902221 0.674208 0.168545
H11   H     H_    0.176091 0.809880 0.634645 0.161249
H12   H     H_    0.014234 0.401066 0.494405 0.100220
H13   H     H_    0.904760 0.775675 0.644211 0.160035
H14   H     H_    0.972449 0.764253 0.543290 0.168730
H15   H     H_    0.846782 0.911639 0.527875 0.167512
H16   H     H_    0.771052 0.919156 0.626116 0.162747
H17   H     H_    0.947769 0.097924 0.325815 0.166693
H18   H     H_    0.882286 0.106683 0.426817 0.151848
H19   H     H_    0.823732 0.190148 0.365567 0.161335
H20   H     H_    0.027392 0.235692 0.456935 0.162099
H21   H     H_    0.095023 0.224455 0.356006 0.162475
H22   H     H_    0.228790 0.080906 0.373915 0.160948
H23   H     H_    0.358640 0.424829 0.891568 0.185421
H24   H     H_    0.153232 0.088337 0.472185 0.167344
H25   H     H_    0.658837 0.569041 0.109200 0.180245
H26   H     H_    0.320358 0.387346 0.108719 0.147176
H27   H     H_    0.674436 0.618477 0.891077 0.145827
H28   H     H_    0.335941 0.392923 0.251801 0.138053
H29   H     H_    0.655517 0.612615 0.748097 0.137019
H30   H     H_    0.696049 0.266910 0.546923 0.134139
N1    N     N_2   0.467804 0.474428 0.016406 -0.231968
N2    N     N_2   0.538945 0.526248 0.984082 -0.232568
N3    N     N_R   0.518730 0.710760 0.509500 -0.223069
N4    N     N_R   0.481270 0.289240 0.490500 -0.228100
N5    N     N_2   0.555441 0.978175 0.513756 -0.250702
N6    N     N_2   0.444630 0.021803 0.486130 -0.251744
O1    O     O_R   0.493000 0.421040 0.382520 -0.522740
O2    O     O_2   0.170355 0.368074 0.792027 -0.285169
O3    O     O_3   0.172171 0.446944 0.666620 -0.530886
O4    O     O_2   0.827274 0.546028 0.327756 -0.262541
O5    O     O_2   0.850749 0.620631 0.210908 -0.281723
O6    O     O_3   0.650705 0.685967 0.317355 -0.481947
O7    O     O_R   0.507000 0.578960 0.617480 -0.526064
O8    O     O_R   0.505640 0.563310 0.388930 -0.429383
O9    O     O_R   0.494360 0.436690 0.611070 -0.427497
O10   O     O_R   0.269980 0.445280 0.497530 -0.499574
O11   O     O_R   0.730020 0.554720 0.502470 -0.487514
O12   O     O_R   0.282610 0.587550 0.503940 -0.519457
O13   O     O_R   0.717390 0.412450 0.496060 -0.525178
O14   O     O_2   0.364465 0.316292 0.691056 -0.261008
S1    S     S_3+6 0.277168 0.394727 0.732312 0.018983
S2    S     S_3+6 0.739149 0.596372 0.269561 0.022301

loop_
_geom_bond_atom_site_label_1
_geom_bond_atom_site_label_2
_ccdc_geom_bond_type
C23   N3    A    
Cu1   Cu2   S    
C4    N4    A    
Cu1   O9    S    
C7    C8    D    
C26   C27   S    
C6    O13   A    
C3    N3    A    
C11   C14   A    
Cu2   O11   S    
C12   O7    A    
C33   N6    S    
C28   H19   S    
C3    H5    S    
O5    S2    D    
C19   H27   S    
C31   C33   A    
O2    S1    D    
O4    S2    D    
C18   C20   A    
H7    O3    S    
Cu1   O10   S    
C32   N5    S    
C10   C21   A    
C24   H14   S    
C22   C34   S    
N1    N2    D    
C23   C30   A    
C1    C9    S    
C24   C25   S    
Cu1   N4    S    
C27   H21   S    
C5    C7    S    
C5    O12   A    
C28   H18   S    
C27   H20   S    
C18   H26   S    
C6    C8    S    
C3    C34   A    
C14   H25   S    
Cu2   O7    S    
C32   C34   A    
C20   H28   S    
C2    C4    A    
C8    H12   S    
C26   H22   S    
C9    C20   A    
C11   S2    S    
C13   S1    S    
C7    H1    S    
C30   H4    S    
C2    C26   S    
C16   N1    S    
C9    C11   A    
C10   C12   S    
C2    C33   A    
O3    S1    S    
C13   C15   A    
Cu2   O8    S    
C22   C24   S    
C25   H9    S    
Cu2   N3    S    
C22   H16   S    
C29   N4    A    
O6    S2    S    
C24   H13   S    
C15   C17   A    
C25   H11   S    
Cu1   O1    S    
C17   N2    S    
C6    O11   A    
C21   H29   S    
O14   S1    D    
C15   H23   S    
C10   C13   A    
C28   H17   S    
C23   H2    S    
C1    O1    A    
H8    O6    S    
N5    N6    D    
C29   C31   A    
C30   C32   A    
C5    O10   A    
Cu1   O13   S    
C4    H6    S    
Cu2   O12   S    
C17   C19   A    
C31   H3    S    
C12   O9    A    
C14   C16   A    
C29   H30   S    
C16   C18   A    
C27   C28   S    
C1    O8    A    
C26   H24   S    
C25   H10   S    
C22   H15   S    
C19   C21   A    
