data_mof_unit_3133.cif
_audit_creation_date              2012-10-26T20:00:52-0400
_audit_creation_method            fapswitch 2.2
_symmetry_space_group_name_H-M    P1
_symmetry_Int_Tables_number       1
_space_group_crystal_system       triclinic
_cell_length_a                    11.765324
_cell_length_b                    12.981804
_cell_length_c                    13.412497
_cell_angle_alpha                 94.387005
_cell_angle_beta                  75.801142
_cell_angle_gamma                 99.480563
_cell_volume                      1957.45531842

loop_
_atom_site_label
_atom_site_type_symbol
_atom_type_description
_atom_site_fract_x
_atom_site_fract_y
_atom_site_fract_z
_atom_type_partial_charge
C1    C     C_R   0.521159 0.700592 0.500523 0.566712
C2    C     C_R   0.397146 0.496050 0.809290 0.016109
C3    C     C_R   0.468978 0.185908 0.494063 0.000987
C4    C     C_R   0.436422 0.498987 0.696275 0.560302
C5    C     C_R   0.533378 0.814058 0.501178 0.009323
C6    C     C_R   0.644199 0.984512 0.526038 -0.113939
C7    C     C_R   0.634401 0.876276 0.523197 -0.130890
C8    C     C_R   0.442907 0.860705 0.480681 -0.085670
C9    C     C_R   0.451279 0.968813 0.484700 0.046172
C10   C     C_R   0.552764 0.031200 0.507498 0.048098
C11   C     C_R   0.561087 0.139313 0.511677 -0.105565
C12   C     C_R   0.447244 0.502229 0.976888 0.028778
C13   C     C_R   0.368106 0.123668 0.471793 -0.123196
C14   C     C_R   0.359468 0.015462 0.466843 -0.113120
C15   C     C_R   0.942468 0.608397 0.585736 -0.100130
C16   C     C_R   0.479626 0.299392 0.497672 0.545882
C17   C     C_R   0.825777 0.596345 0.578984 0.029732
C18   C     C_R   0.856391 0.452518 0.461541 0.086100
C19   C     C_R   0.977607 0.461027 0.465371 -0.045283
C20   C     C_R   0.021013 0.539434 0.531166 -0.015996
C21   C     C_R   0.140425 0.547399 0.541300 0.381184
C22   C     C_R   0.174663 0.407698 0.415218 0.018238
C23   C     C_R   0.475786 0.533772 0.873576 0.031403
C24   C     C_R   0.056175 0.394968 0.406114 0.208830
C25   C     C_R   0.563883 0.505328 0.304210 0.541569
C26   C     C_R   0.732757 0.612485 0.049084 -0.115656
C27   C     C_R   0.600975 0.521346 0.193477 0.006008
C28   C     C_R   0.283717 0.443434 0.852570 -0.105078
C29   C     C_R   0.250661 0.422266 0.956429 -0.119351
C30   C     C_R   0.331643 0.448887 0.017725 -0.109111
C31   C     C_R   0.535112 0.526335 0.035213 0.032209
C32   C     C_R   0.645280 0.588351 0.992569 0.053917
C33   C     C_R   0.665690 0.628279 0.895269 -0.127667
C34   C     C_R   0.581369 0.603125 0.837520 -0.107733
C35   C     C_R   0.517049 0.490869 0.134877 -0.120935
C36   C     C_R   0.710415 0.579702 0.149478 -0.117935
Cu1   Cu    Cu3+1 0.386470 0.492430 0.492410 1.034400
Cu2   Cu    Cu3+1 0.613530 0.507570 0.507590 0.961687
H1    H     H_    0.776069 0.604196 0.194122 0.144399
H2    H     H_    0.818552 0.393676 0.412739 0.199614
H3    H     H_    0.436919 0.441077 0.170325 0.124272
H4    H     H_    0.221490 0.415533 0.805332 0.159475
H5    H     H_    0.299771 0.428385 0.097113 0.140764
H6    H     H_    0.162763 0.381656 0.989063 0.161644
H7    H     H_    0.598880 0.640949 0.765220 0.133574
H8    H     H_    0.639159 0.186927 0.529099 0.150431
H9    H     H_    0.705367 0.841430 0.539054 0.132986
H10   H     H_    0.075093 0.687580 0.788161 0.362351
H11   H     H_    0.091498 0.181934 0.211024 0.376746
H12   H     H_    0.296304 0.158495 0.457495 0.153617
H13   H     H_    0.816920 0.659764 0.016792 0.124039
H14   H     H_    0.722523 0.031542 0.543450 0.139246
H15   H     H_    0.281174 0.968403 0.449404 0.138394
H16   H     H_    0.365826 0.813087 0.461669 0.170157
H17   H     H_    0.234879 0.357905 0.369919 0.182162
H18   H     H_    0.966716 0.673761 0.634177 0.189307
H19   H     H_    0.768238 0.649971 0.620973 0.113776
H20   H     H_    0.747124 0.679639 0.863675 0.112463
N1    N     N_R   0.215880 0.481050 0.481000 -0.295537
N2    N     N_R   0.784100 0.518950 0.519000 -0.249242
O1    O     O_R   0.419710 0.645650 0.494620 -0.443184
O2    O     O_2   0.168972 0.750354 0.601768 -0.359621
O3    O     O_3   0.074612 0.620479 0.747649 -0.562756
O4    O     O_2   0.912020 0.219213 0.376882 -0.303171
O5    O     O_2   0.967276 0.346051 0.240307 -0.299611
O6    O     O_3   0.124531 0.234152 0.258311 -0.553741
O7    O     O_R   0.611450 0.658430 0.507430 -0.527652
O8    O     O_R   0.357340 0.490460 0.641450 -0.439045
O9    O     O_R   0.549080 0.503250 0.654260 -0.514892
O10   O     O_R   0.388550 0.341570 0.492570 -0.518781
O11   O     O_R   0.580290 0.354350 0.505380 -0.506416
O12   O     O_R   0.450920 0.496750 0.345740 -0.519652
O13   O     O_R   0.642660 0.509540 0.358550 -0.496896
O14   O     O_2   0.294377 0.658088 0.667070 -0.243163
S1    S     S_3+6 0.178500 0.645734 0.637525 0.009973
S2    S     S_3+6 0.010868 0.296674 0.318839 -0.036418

loop_
_geom_bond_atom_site_label_1
_geom_bond_atom_site_label_2
_ccdc_geom_bond_type
C26   C32   A    
C33   H20   S    
C19   C20   A    
C22   H17   S    
C12   C23   A    
Cu1   Cu2   S    
O5    S2    D    
C1    C5    S    
C22   C24   A    
C28   C29   A    
C21   N1    A    
Cu1   O8    S    
C18   C19   A    
C18   H2    S    
C8    C9    A    
C9    C10   A    
C3    C13   A    
Cu2   O9    S    
Cu1   O10   S    
C16   O11   A    
C4    O9    A    
C15   C20   A    
H11   O6    S    
C16   O10   A    
O14   S1    D    
C8    H16   S    
C22   N1    A    
C34   H7    S    
C24   S2    S    
H10   O3    S    
C27   C35   A    
C4    O8    A    
C7    H9    S    
C2    C4    S    
C9    C14   A    
C29   C30   A    
C31   C32   A    
C23   C34   A    
O6    S2    S    
C33   C34   A    
O4    S2    D    
C25   O12   A    
Cu2   O7    S    
Cu1   N1    S    
Cu2   N2    S    
C18   N2    A    
C29   H6    S    
C31   C35   A    
C30   H5    S    
O2    S1    D    
C5    C7    A    
C26   C36   A    
C15   C17   A    
Cu2   O11   S    
C12   C30   A    
C36   H1    S    
C1    O1    A    
C6    C10   A    
C5    C8    A    
Cu1   O1    S    
C6    C7    A    
C27   C36   A    
C25   C27   S    
C21   S1    S    
C32   C33   A    
C19   C24   A    
C12   C31   A    
C26   H13   S    
C15   H18   S    
O3    S1    S    
C28   H4    S    
C1    O7    A    
C25   O13   A    
C35   H3    S    
C3    C11   A    
C10   C11   A    
C17   N2    A    
C13   H12   S    
C14   H15   S    
C20   C21   A    
Cu1   O12   S    
C2    C23   A    
C11   H8    S    
C2    C28   A    
C6    H14   S    
C13   C14   A    
C3    C16   S    
C17   H19   S    
Cu2   O13   S    
