data_mof_unit_4057.cif
_audit_creation_date              2013-03-05T16:35:53-0500
_audit_creation_method            fapswitch 2.2
_symmetry_space_group_name_H-M    P1
_symmetry_Int_Tables_number       1
_space_group_crystal_system       triclinic
_cell_length_a                    23.563542
_cell_length_b                    9.089126
_cell_length_c                    7.793832
_cell_angle_alpha                 89.492285
_cell_angle_beta                  89.941685
_cell_angle_gamma                 89.551661
_cell_volume                      1669.10321708

loop_
_atom_site_label
_atom_site_type_symbol
_atom_site_description
_atom_site_fract_x
_atom_site_fract_y
_atom_site_fract_z
_atom_type_partial_charge
O1    O     O_R   0.500000 0.288390 0.642760 -0.575576
O2    O     O_R   0.500000 0.711610 0.357240 -0.575572
O3    O     O_R   0.500000 0.711610 0.642760 -0.575777
O4    O     O_R   0.500000 0.288390 0.357240 -0.575622
C1    C     C_R   0.500026 0.220055 0.500464 0.848497
C2    C     C_R   0.499971 0.779945 0.499537 0.848312
O5    O     O_R   0.417880 0.500000 0.642820 -0.581466
O6    O     O_R   0.582120 0.500000 0.357180 -0.582564
O7    O     O_R   0.582120 0.500000 0.642820 -0.582139
O8    O     O_R   0.417880 0.500000 0.357180 -0.581428
C3    C     C_R   0.209497 0.513540 0.502474 0.185605
C4    C     C_R   0.791212 0.493052 0.500736 0.154734
C5    C     C_R   0.390750 0.501199 0.500103 0.845795
C6    C     C_R   0.609278 0.499018 0.499932 0.847536
Cu1   Cu    Cu3+1 0.500000 0.500000 0.669080 1.025113
Cu2   Cu    Cu3+1 0.500000 0.500000 0.330920 1.025259
C7    C     C_R   0.299053 0.559797 0.643662 -0.233109
C8    C     C_R   0.701403 0.450265 0.646499 -0.234628
C9    C     C_R   0.297958 0.456014 0.357991 -0.230964
C10   C     C_R   0.701788 0.539388 0.353043 -0.231041
H1    H     H_    0.322026 0.599700 0.754016 0.200369
H2    H     H_    0.678645 0.415323 0.760466 0.202003
H3    H     H_    0.320069 0.413093 0.247000 0.200912
H4    H     H_    0.679354 0.575586 0.238762 0.202454
C11   C     C_R   0.328443 0.505407 0.500605 -0.169458
C12   C     C_R   0.671649 0.496348 0.499839 -0.173577
C13   C     C_R   0.879580 0.627426 0.476494 0.638572
C14   C     C_R   0.121888 0.391892 0.570382 0.647248
C15   C     C_R   0.882753 0.369974 0.532585 0.673878
C16   C     C_R   0.119572 0.632064 0.443915 0.643407
N1    N     N_R   0.852514 0.496617 0.503066 -0.442188
N2    N     N_R   0.148614 0.512767 0.505914 -0.428939
C17   C     C_R   0.942050 0.374937 0.555054 -0.060011
C18   C     C_R   0.059543 0.633930 0.443424 -0.103936
C19   C     C_R   0.939160 0.631058 0.457164 -0.102918
C20   C     C_R   0.062012 0.385177 0.572819 -0.068984
C21   C     C_R   0.970771 0.504820 0.506862 -0.082069
C22   C     C_R   0.030841 0.508048 0.507788 -0.053369
C23   C     C_R   0.972810 0.255460 0.626217 0.186837
C24   C     C_R   0.027180 0.755278 0.378702 0.165753
C25   C     C_R   0.967858 0.754516 0.387711 0.161720
C26   C     C_R   0.032155 0.261183 0.638627 0.094821
C27   C     C_1   0.500008 0.065381 0.500640 -0.151541
C28   C     C_1   0.499989 0.934619 0.499361 -0.151464
C29   C     C_R   0.239881 0.565406 0.644260 0.408675
C30   C     C_R   0.760602 0.446968 0.647261 0.416570
C31   C     C_R   0.238744 0.458349 0.359322 0.407602
C32   C     C_R   0.760985 0.539349 0.353167 0.420617
N3    N     N_1   0.500000 0.500000 0.076820 -0.041766
N4    N     N_1   0.500000 0.500000 0.923180 -0.041895
O9    O     O_2   0.848648 0.752754 0.470786 -0.493289
O10   O     O_2   0.153915 0.279061 0.629904 -0.506351
O11   O     O_2   0.855414 0.240143 0.538943 -0.448857
O12   O     O_2   0.149406 0.747534 0.383981 -0.509253
N5    N     N_3   0.943486 0.131396 0.698222 -0.473701
H5    H     H_    0.951637 0.127328 0.830059 0.259756
H6    H     H_    0.959948 0.035392 0.643949 0.238565
N6    N     N_3   0.052746 0.881462 0.298956 -0.520173
H7    H     H_    0.077903 0.935880 0.388024 0.262902
H8    H     H_    0.076694 0.848084 0.193044 0.285456
N7    N     N_3   0.938053 0.876633 0.310284 -0.516838
H9    H     H_    0.916444 0.935973 0.404225 0.285702
H10   H     H_    0.909568 0.837472 0.218931 0.284840
N8    N     N_3   0.060187 0.139428 0.722291 -0.573020
H11   H     H_    0.083260 0.177506 0.827197 0.294276
H12   H     H_    0.086548 0.085281 0.635153 0.276479
Cl1   Cl    Cl    0.204400 0.638010 0.823592 -0.495861
Cl2   Cl    Cl    0.794844 0.385379 0.835182 -0.475251
Cl3   Cl    Cl    0.201769 0.389003 0.181958 -0.497361
Cl4   Cl    Cl    0.795867 0.599816 0.166178 -0.498312

loop_
_geom_bond_atom_site_label_1
_geom_bond_atom_site_label_2
_geom_bond_distance
_ccdc_geom_bond_type
O4    Cu2   1.932451 S    
C9    H3    1.083430 S    
N5    H5    1.045785 S    
O8    C5    1.283848 A    
C30   Cl2   1.757933 S    
C21   C22   1.416030 A    
O1    Cu1   1.936066 S    
C15   C17   1.409494 A    
O2    Cu2   1.936065 S    
N6    H8    1.045308 S    
C3    C31   1.405101 A    
C2    C28   1.405838 S    
C8    C12   1.400743 A    
C4    C32   1.412635 A    
O7    C6    1.283918 A    
O3    C2    1.272602 A    
C7    C11   1.403555 A    
N8    H11   1.045345 S    
O5    Cu1   1.946041 S    
C1    C27   1.405840 S    
C15   N1    1.366900 A    
O8    Cu2   1.945627 S    
C6    C12   1.469692 S    
C16   N2    1.362834 A    
C16   O12   1.347619 S    
C5    C11   1.468368 S    
C10   C32   1.394892 A    
C10   C12   1.400405 A    
C18   C22   1.421057 A    
C27   C28   1.188652 T    
C18   C24   1.424871 A    
C8    C30   1.395048 A    
C14   N2    1.362524 A    
C20   C22   1.421784 A    
C24   C25   1.399593 A    
C19   C21   1.414467 A    
C13   O9    1.347974 S    
C3    N2    1.434911 S    
C15   O11   1.349360 S    
C23   C26   1.403224 A    
C9    C31   1.395326 A    
N5    H6    1.044852 S    
C4    N1    1.445248 S    
O7    Cu1   1.945624 S    
N7    H9    1.043150 S    
C19   C25   1.417680 A    
O1    C1    1.275903 A    
C29   Cl1   1.758786 S    
C3    C29   1.404309 A    
C24   N6    1.435971 S    
C16   C18   1.414483 A    
C9    C11   1.403037 A    
C13   N1    1.367650 A    
Cu1   Cu2   2.635563 S    
C26   N8    1.436241 S    
O5    C5    1.283422 A    
O3    Cu1   1.932450 S    
Cu2   N3    1.980412 S    
C14   C20   1.412788 A    
C17   C21   1.413087 A    
N3    N4    1.197445 T    
O6    Cu2   1.946039 S    
Cu1   N4    1.980412 S    
C32   Cl4   1.758404 S    
N7    H10   1.045639 S    
C10   H4    1.083543 S    
C31   Cl3   1.758901 S    
C14   O10   1.347830 S    
O6    C6    1.283985 A    
C13   C19   1.412427 A    
N6    H7    1.043759 S    
C8    H2    1.083558 S    
C20   C26   1.424639 A    
C17   C23   1.410692 A    
C7    H1    1.083445 S    
C25   N7    1.437404 S    
O2    C2    1.275904 A    
C7    C29   1.394844 A    
O4    C1    1.272603 A    
C23   N5    1.436712 S    
C4    C30   1.412232 A    
N8    H12   1.043820 S    
