data_mof_unit_1424.cif
_audit_creation_date              2012-12-11T16:51:27-0500
_audit_creation_method            fapswitch 2.2
_symmetry_space_group_name_H-M    P1
_symmetry_Int_Tables_number       1
_space_group_crystal_system       monoclinic
_cell_length_a                    24.307216
_cell_length_b                    17.141557
_cell_length_c                    15.523889
_cell_angle_alpha                 90.0
_cell_angle_beta                  128.994049
_cell_angle_gamma                 90.0
_cell_volume                      5027.1880887

loop_
_atom_site_label
_atom_site_type_symbol
_atom_type_description
_atom_site_fract_x
_atom_site_fract_y
_atom_site_fract_z
_atom_type_partial_charge
C1    C     C_R   0.850524 0.857392 0.243634 -0.121564
C2    C     C_R   0.140063 0.188043 0.502635 0.065603
C3    C     C_1   0.626655 0.366421 0.195205 0.098961
C4    C     C_1   0.957415 0.085976 0.149728 -0.001164
C5    C     C_1   0.042585 0.085976 0.850272 -0.001164
C6    C     C_1   0.457415 0.585976 0.149728 -0.001164
C7    C     C_1   0.542585 0.585976 0.850272 -0.001164
C8    C     C_R   0.359937 0.688043 0.497364 0.065602
C9    C     C_R   0.640063 0.688043 0.502635 0.065603
C10   C     C_R   0.851288 0.121659 0.132216 0.099801
C11   C     C_R   0.148712 0.121659 0.867784 0.099800
C12   C     C_R   0.351288 0.621659 0.132216 0.099801
C13   C     C_R   0.648712 0.621659 0.867784 0.099800
C14   C     C_R   0.774258 0.844189 0.606575 0.104494
C15   C     C_R   0.225742 0.844189 0.393425 0.104494
C16   C     C_R   0.274258 0.344189 0.606575 0.104494
C17   C     C_R   0.149476 0.857392 0.756366 -0.121564
C18   C     C_R   0.725742 0.344189 0.393425 0.104494
C19   C     C_R   0.759760 0.863716 0.506314 0.020226
C20   C     C_R   0.240240 0.863716 0.493686 0.020226
C21   C     C_R   0.259760 0.363716 0.506314 0.020226
C22   C     C_R   0.740240 0.363716 0.493686 0.020226
C23   C     C_R   0.690347 0.851666 0.407583 -0.185797
C24   C     C_R   0.309653 0.851666 0.592417 -0.185796
C25   C     C_R   0.190347 0.351666 0.407583 -0.185797
C26   C     C_R   0.809653 0.351666 0.592417 -0.185796
C27   C     C_R   0.144758 0.301937 0.407751 -0.199911
C28   C     C_R   0.350524 0.357392 0.243634 -0.121564
C29   C     C_R   0.855242 0.301937 0.592249 -0.199911
C30   C     C_R   0.644758 0.801937 0.407751 -0.199911
C31   C     C_R   0.355242 0.801937 0.592249 -0.199911
C32   C     C_R   0.169087 0.263873 0.506373 0.046391
C33   C     C_R   0.830912 0.263873 0.493627 0.046391
C34   C     C_R   0.669087 0.763872 0.506373 0.046391
C35   C     C_R   0.330912 0.763872 0.493627 0.046391
C36   C     C_R   0.229824 0.293736 0.606309 0.148616
C37   C     C_R   0.770176 0.293736 0.393691 0.148615
C38   C     C_R   0.729824 0.793736 0.606309 0.148616
C39   C     C_R   0.649476 0.357392 0.756366 -0.121564
C40   C     C_R   0.270176 0.793736 0.393691 0.148615
C41   C     C_3   0.790419 0.754555 0.710931 -0.585707
C42   C     C_3   0.209581 0.754555 0.289069 -0.585706
C43   C     C_3   0.290419 0.254555 0.710931 -0.585708
C44   C     C_3   0.709581 0.254555 0.289069 -0.585706
C45   C     C_R   0.114149 0.898743 0.407051 -0.157307
C46   C     C_R   0.885851 0.898743 0.592949 -0.157307
C47   C     C_R   0.614149 0.398743 0.407051 -0.157307
C48   C     C_R   0.385851 0.398743 0.592949 -0.157307
C49   C     C_3   0.838960 0.810503 0.712262 -0.173492
C50   C     C_R   0.910827 0.144528 0.590963 -0.124937
C51   C     C_3   0.161040 0.810503 0.287738 -0.173491
C52   C     C_3   0.338960 0.310503 0.712262 -0.173491
C53   C     C_3   0.661040 0.310503 0.287738 -0.173491
C54   C     C_2   0.139888 0.741782 0.849196 -0.216322
C55   C     C_2   0.860112 0.741782 0.150804 -0.216321
C56   C     C_2   0.639888 0.241782 0.849196 -0.216321
C57   C     C_2   0.360112 0.241782 0.150804 -0.216322
C58   C     C_2   0.191862 0.700805 0.863423 -0.108759
C59   C     C_2   0.808138 0.700805 0.136577 -0.108759
C60   C     C_2   0.691862 0.200805 0.863423 -0.108759
C61   C     C_R   0.089173 0.144528 0.409037 -0.124937
C62   C     C_2   0.308138 0.200805 0.136577 -0.108760
C63   C     C_2   0.803865 0.145696 0.015548 -0.195551
C64   C     C_2   0.196135 0.145696 0.984451 -0.195552
C65   C     C_2   0.303865 0.645696 0.015548 -0.195551
C66   C     C_2   0.696135 0.645696 0.984451 -0.195551
C67   C     C_2   0.733748 0.148227 0.957896 -0.110571
C68   C     C_2   0.266252 0.148227 0.042103 -0.110570
C69   C     C_2   0.233748 0.648227 0.957896 -0.110571
C70   C     C_2   0.766252 0.648227 0.042103 -0.110571
C71   C     C_R   0.188589 0.897067 0.590353 -0.129368
C72   C     C_R   0.410827 0.644528 0.590963 -0.124937
C73   C     C_R   0.811411 0.897067 0.409647 -0.129368
C74   C     C_R   0.688589 0.397067 0.590353 -0.129368
C75   C     C_R   0.311411 0.397067 0.409647 -0.129368
C76   C     C_R   0.057483 0.858323 0.757599 -0.134756
C77   C     C_R   0.942517 0.858323 0.242401 -0.134756
C78   C     C_R   0.557483 0.358323 0.757599 -0.134755
C79   C     C_R   0.442517 0.358323 0.242401 -0.134755
C80   C     C_R   0.884144 0.815440 0.211831 0.145075
C81   C     C_R   0.115856 0.815440 0.788169 0.145076
C82   C     C_R   0.384144 0.315440 0.211831 0.145075
C83   C     C_R   0.589173 0.644528 0.409037 -0.124937
C84   C     C_R   0.615856 0.315440 0.788169 0.145075
C85   C     C_R   0.182995 0.882330 0.497327 0.071591
C86   C     C_R   0.817005 0.882330 0.502673 0.071591
C87   C     C_R   0.682994 0.382330 0.497327 0.071591
C88   C     C_R   0.317005 0.382330 0.502673 0.071591
C89   C     C_R   0.838101 0.143822 0.406467 -0.139816
C90   C     C_R   0.161899 0.143822 0.593533 -0.139816
C91   C     C_R   0.338101 0.643822 0.406467 -0.139816
C92   C     C_R   0.661899 0.643822 0.593533 -0.139816
C93   C     C_R   0.922216 0.102996 0.195167 0.038982
C94   C     C_R   0.859937 0.188043 0.497364 0.065602
C95   C     C_R   0.077784 0.102996 0.804832 0.038982
C96   C     C_R   0.422216 0.602996 0.195167 0.038982
C97   C     C_R   0.577784 0.602996 0.804832 0.038982
C98   C     C_R   0.167805 0.104948 0.802815 -0.162718
C99   C     C_R   0.832195 0.104948 0.197185 -0.162719
C100  C     C_R   0.667805 0.604948 0.802815 -0.162718
C101  C     C_R   0.332195 0.604948 0.197185 -0.162719
C102  C     C_1   0.873345 0.866422 0.804795 0.098961
C103  C     C_1   0.126655 0.866421 0.195205 0.098961
C104  C     C_1   0.373345 0.366422 0.804795 0.098961
H1    H     H_    0.802780 0.842346 0.230983 0.091650
H2    H     H_    0.211908 0.762556 0.220241 0.197571
H3    H     H_    0.288092 0.262556 0.779759 0.197572
H4    H     H_    0.711908 0.262556 0.220241 0.197571
H5    H     H_    0.798888 0.693368 0.697768 0.191429
H6    H     H_    0.201112 0.693368 0.302232 0.191429
H7    H     H_    0.298888 0.193368 0.697768 0.191430
H8    H     H_    0.701112 0.193368 0.302232 0.191429
H9    H     H_    0.876013 0.780924 0.703713 0.134990
H10   H     H_    0.123987 0.780924 0.296287 0.134990
H11   H     H_    0.376013 0.280924 0.703713 0.134990
H12   H     H_    0.197220 0.842346 0.769017 0.091650
H13   H     H_    0.623987 0.280924 0.296287 0.134990
H14   H     H_    0.709293 0.124133 0.991135 0.126781
H15   H     H_    0.290707 0.124134 0.008865 0.126780
H16   H     H_    0.209293 0.624133 0.991135 0.126781
H17   H     H_    0.790707 0.624134 0.008865 0.126781
H18   H     H_    0.211898 0.716368 0.819903 0.130031
H19   H     H_    0.788102 0.716368 0.180097 0.130031
H20   H     H_    0.711898 0.216368 0.819903 0.130031
H21   H     H_    0.288102 0.216368 0.180097 0.130031
H22   H     H_    0.827489 0.170800 0.981280 0.134572
H23   H     H_    0.302780 0.342346 0.230983 0.091650
H24   H     H_    0.172511 0.170800 0.018720 0.134572
H25   H     H_    0.327489 0.670800 0.981280 0.134572
H26   H     H_    0.672511 0.670800 0.018720 0.134572
H27   H     H_    0.120476 0.726013 0.893680 0.131865
H28   H     H_    0.879524 0.726013 0.106319 0.131865
H29   H     H_    0.620476 0.226013 0.893680 0.131865
H30   H     H_    0.379524 0.226013 0.106319 0.131865
H31   H     H_    0.093843 0.908194 0.323089 0.109152
H32   H     H_    0.906157 0.908194 0.676910 0.109152
H33   H     H_    0.593843 0.408194 0.323089 0.109152
H34   H     H_    0.697220 0.342346 0.769017 0.091650
H35   H     H_    0.406157 0.408194 0.676910 0.109152
H36   H     H_    0.236912 0.901720 0.674814 0.084220
H37   H     H_    0.763088 0.901720 0.325186 0.084220
H38   H     H_    0.736912 0.401720 0.674814 0.084220
H39   H     H_    0.263088 0.401720 0.325186 0.084220
H40   H     H_    0.020130 0.842585 0.770582 0.100930
H41   H     H_    0.979870 0.842585 0.229418 0.100930
H42   H     H_    0.520130 0.342585 0.770582 0.100930
H43   H     H_    0.479870 0.342585 0.229418 0.100930
H44   H     H_    0.801743 0.160194 0.320758 0.113110
H45   H     H_    0.095177 0.285873 0.328946 0.126826
H46   H     H_    0.198257 0.160194 0.679242 0.113110
H47   H     H_    0.301743 0.660194 0.320758 0.113110
H48   H     H_    0.698257 0.660194 0.679242 0.113110
H49   H     H_    0.220946 0.101076 0.829937 0.093619
H50   H     H_    0.779054 0.101076 0.170062 0.093620
H51   H     H_    0.720946 0.601076 0.829937 0.093619
H52   H     H_    0.279054 0.601076 0.170062 0.093620
H53   H     H_    0.939792 0.161732 0.676052 0.105407
H54   H     H_    0.060207 0.161732 0.323948 0.105407
H55   H     H_    0.439792 0.661732 0.676052 0.105407
H56   H     H_    0.904823 0.285873 0.671054 0.126826
H57   H     H_    0.560207 0.661732 0.323948 0.105407
H58   H     H_    0.674096 0.871567 0.328529 0.122780
H59   H     H_    0.325904 0.871567 0.671470 0.122780
H60   H     H_    0.174096 0.371567 0.328529 0.122780
H61   H     H_    0.825904 0.371567 0.671470 0.122780
H62   H     H_    0.595177 0.785873 0.328946 0.126826
H63   H     H_    0.404823 0.785873 0.671054 0.126826
H64   H     H_    0.788092 0.762556 0.779759 0.197572
N1    N     N_R   0.888400 0.921830 0.294620 -0.046263
N2    N     N_R   0.874350 0.922400 0.443380 -0.039514
N3    N     N_R   0.625650 0.422400 0.556620 -0.039514
N4    N     N_R   0.374350 0.422400 0.443380 -0.039514
N5    N     N_R   0.054230 0.922730 0.705400 -0.043329
N6    N     N_R   0.945770 0.922730 0.294600 -0.043329
N7    N     N_R   0.554230 0.422730 0.705400 -0.043329
N8    N     N_R   0.445770 0.422730 0.294600 -0.043329
N9    N     N_R   0.873790 0.077030 0.443380 -0.040665
N10   N     N_R   0.126210 0.077030 0.556620 -0.040665
N11   N     N_R   0.373790 0.577030 0.443380 -0.040665
N12   N     N_R   0.111600 0.921830 0.705380 -0.046263
N13   N     N_R   0.626210 0.577030 0.556620 -0.040665
N14   N     N_R   0.945200 0.076700 0.294600 -0.060225
N15   N     N_R   0.054800 0.076700 0.705400 -0.060225
N16   N     N_R   0.445200 0.576700 0.294600 -0.060225
N17   N     N_R   0.554800 0.576700 0.705400 -0.060225
N18   N     N_R   0.111030 0.077600 0.705380 -0.050778
N19   N     N_R   0.888970 0.077600 0.294620 -0.050778
N20   N     N_R   0.611030 0.577600 0.705380 -0.050778
N21   N     N_R   0.388970 0.577600 0.294620 -0.050778
N22   N     N_R   0.919490 0.077280 0.556590 -0.039877
N23   N     N_R   0.388400 0.421830 0.294620 -0.046263
N24   N     N_R   0.080510 0.077280 0.443410 -0.039877
N25   N     N_R   0.419490 0.577280 0.556590 -0.039877
N26   N     N_R   0.580510 0.577280 0.443410 -0.039877
N27   N     N_1   0.900438 0.910351 0.877514 -0.081306
N28   N     N_1   0.099562 0.910351 0.122486 -0.081306
N29   N     N_1   0.400438 0.410351 0.877514 -0.081306
N30   N     N_1   0.599562 0.410351 0.122486 -0.081306
N31   N     N_1   0.985679 0.072144 0.113227 -0.079336
N32   N     N_1   0.014321 0.072144 0.886773 -0.079336
N33   N     N_1   0.485679 0.572144 0.113227 -0.079336
N34   N     N_R   0.611600 0.421830 0.705380 -0.046263
N35   N     N_1   0.514321 0.572144 0.886773 -0.079336
N36   N     N_R   0.079940 0.922160 0.443410 -0.037904
N37   N     N_R   0.920060 0.922160 0.556590 -0.037904
N38   N     N_R   0.579940 0.422160 0.443410 -0.037904
N39   N     N_R   0.420060 0.422160 0.556590 -0.037904
N40   N     N_R   0.125650 0.922400 0.556620 -0.039514
Ni1   Ni    Ni4+2 0.882160 0.999430 0.370180 0.205340
Ni2   Ni    Ni4+2 0.117840 0.999430 0.629820 0.205340
Ni3   Ni    Ni4+2 0.382160 0.499430 0.370180 0.205340
Ni4   Ni    Ni4+2 0.617840 0.499430 0.629820 0.205340
Ni5   Ni    Ni4+2 0.012460 0.999430 0.370180 0.226919
Ni6   Ni    Ni4+2 0.987540 0.999430 0.629820 0.226919
Ni7   Ni    Ni4+2 0.512460 0.499430 0.370180 0.226919
Ni8   Ni    Ni4+2 0.487540 0.499430 0.629820 0.226919

loop_
_geom_bond_atom_site_label_1
_geom_bond_atom_site_label_2
_ccdc_geom_bond_type
N38   Ni7   S    
C89   H44   S    
C49   H9    S    
C99   H50   S    
C26   H61   S    
C77   N6    A    
N3    Ni4   S    
C55   C59   D    
C46   N37   A    
C3    C53   S    
C104  N29   T    
C45   C85   A    
C10   C63   S    
C90   H46   S    
N4    Ni3   S    
C33   C94   S    
C79   C82   A    
C99   N19   A    
C56   H29   S    
C57   C62   D    
C73   H37   S    
C97   N17   A    
C54   H27   S    
N2    Ni1   S    
C16   C21   A    
C72   H55   S    
N13   Ni4   S    
C32   C36   A    
C76   N5    A    
C100  N20   A    
C18   C37   A    
C39   C84   A    
C101  N21   A    
C92   N13   A    
C68   H15   S    
N11   N25   A    
C76   H40   S    
C53   H13   S    
C43   C52   S    
C52   H11   S    
C14   C49   S    
C14   C38   A    
C25   H60   S    
C51   C103  S    
C41   H64   S    
N11   Ni3   S    
C3    N30   T    
N10   Ni2   S    
C2    C32   S    
N9    Ni1   S    
C89   C94   A    
C60   H20   S    
C20   C24   A    
C7    N35   T    
C18   C53   S    
C71   C85   A    
C44   C53   S    
C4    N31   T    
N36   N40   A    
C29   C33   A    
C64   H24   S    
C91   N11   A    
C92   H48   S    
N14   Ni5   S    
N1    N6    A    
C48   C88   A    
C26   C29   A    
C15   C51   S    
C74   C87   A    
C5    N32   T    
C48   H35   S    
C28   H23   S    
C42   C51   S    
C23   H58   S    
C19   C86   S    
N15   Ni6   S    
C40   C42   S    
C74   H38   S    
C21   C88   S    
C27   H45   S    
C41   H5    S    
C102  N27   T    
C43   H7    S    
C96   N16   A    
C79   N8    A    
C9    C92   A    
C41   C49   S    
C5    C95   S    
C56   C84   S    
C29   H56   S    
C13   C66   S    
C44   H4    S    
C50   H53   S    
C59   H19   S    
C15   C20   A    
C73   C86   A    
C63   C67   D    
C45   H31   S    
C51   H10   S    
C58   H18   S    
C30   C34   A    
C28   C82   A    
C23   C30   A    
N19   Ni1   S    
C60   C67   S    
C38   C41   S    
C11   C64   S    
N21   Ni3   S    
N15   N18   A    
N26   Ni7   S    
C50   C94   A    
N8    N23   A    
C79   H43   S    
C101  H52   S    
N36   Ni5   S    
C33   C37   A    
C56   C60   D    
C8    C35   S    
C47   C87   A    
C19   C23   A    
C61   N24   A    
N10   N24   A    
C93   N14   A    
N1    Ni1   S    
C20   C85   S    
C47   H33   S    
N8    Ni7   S    
C8    C91   A    
C43   H3    S    
C22   C87   S    
N3    N38   A    
N12   Ni2   S    
N13   N26   A    
N22   Ni6   S    
C30   H62   S    
C74   N3    A    
C75   H39   S    
C9    C83   A    
C44   H8    S    
C100  H51   S    
N40   Ni2   S    
C71   N40   A    
C31   H63   S    
N37   Ni6   S    
C6    C96   S    
C89   N9    A    
N18   Ni2   S    
C78   N7    A    
C31   C35   A    
C57   H30   S    
C24   H59   S    
C103  N28   T    
C28   N23   A    
C64   C68   D    
N24   Ni5   S    
C49   C102  S    
C11   C98   A    
C17   N12   A    
N25   Ni8   S    
C54   C58   D    
C77   C80   A    
C11   C95   A    
C1    C80   A    
C21   C25   A    
C52   C104  S    
N9    N22   A    
C7    C97   S    
C47   N38   A    
C27   C32   A    
C34   C38   A    
C8    C72   A    
C14   C19   A    
N4    N39   A    
C72   N25   A    
C16   C52   S    
N7    N34   A    
N34   Ni4   S    
N17   N20   A    
C76   C81   A    
C62   H21   S    
C65   H25   S    
C2    C61   A    
C58   C69   S    
C71   H36   S    
C25   C27   A    
C12   C65   S    
N5    N12   A    
C69   H16   S    
C10   C93   A    
N17   Ni8   S    
C62   C68   S    
C39   H34   S    
N6    Ni5   S    
N7    Ni8   S    
C83   N26   A    
C18   C22   A    
C35   C40   A    
C42   H6    S    
C24   C31   A    
C12   C101  A    
C98   N18   A    
C61   H54   S    
C16   C36   A    
C91   H47   S    
C55   C80   S    
N20   Ni4   S    
C70   H17   S    
C95   N15   A    
C66   C70   D    
C77   H41   S    
C13   C100  A    
C45   N36   A    
C65   C69   D    
C48   N39   A    
C1    N1    A    
N39   Ni8   S    
C9    C34   S    
N5    Ni6   S    
C17   C81   A    
N14   N19   A    
C13   C97   A    
C10   C99   A    
C50   N22   A    
C67   H14   S    
C15   C40   A    
C98   H49   S    
C63   H22   S    
N2    N37   A    
C78   H42   S    
C59   C70   S    
C46   H32   S    
C4    C93   S    
C42   H2    S    
C37   C44   S    
C78   C84   A    
C75   C88   A    
N16   Ni7   S    
C2    C90   A    
C55   H28   S    
C22   C26   A    
C39   N34   A    
C1    H1    S    
C75   N4    A    
C83   H57   S    
C57   C82   S    
C12   C96   A    
C36   C43   S    
C6    N33   T    
C46   C86   A    
C73   N2    A    
N16   N21   A    
C54   C81   S    
C17   H12   S    
N23   Ni3   S    
C90   N10   A    
C66   H26   S    
