data_mof_unit_4600.cif
_audit_creation_date              2012-12-11T15:07:08-0500
_audit_creation_method            fapswitch 2.2
_symmetry_space_group_name_H-M    P1
_symmetry_Int_Tables_number       1
_space_group_crystal_system       triclinic
_cell_length_a                    19.796856
_cell_length_b                    11.338469
_cell_length_c                    18.675383
_cell_angle_alpha                 90.486615
_cell_angle_beta                  89.575655
_cell_angle_gamma                 89.788773
_cell_volume                      4191.6936106

loop_
_atom_site_label
_atom_site_type_symbol
_atom_type_description
_atom_site_fract_x
_atom_site_fract_y
_atom_site_fract_z
_atom_type_partial_charge
C1    C     C_R   0.761559 0.523004 0.639192 0.548794
C2    C     C_R   0.238517 0.524122 0.360619 0.549593
C3    C     C_R   0.261559 0.023004 0.639192 0.548794
C4    C     C_R   0.738517 0.024122 0.360619 0.549593
C5    C     C_3   0.810111 0.131217 0.448679 -0.254747
C6    C     C_3   0.189604 0.130481 0.552104 -0.253537
C7    C     C_3   0.310111 0.631217 0.448679 -0.254747
C8    C     C_3   0.689604 0.630481 0.552104 -0.253537
C9    C     C_3   0.746751 0.057336 0.436674 0.063927
C10   C     C_3   0.253076 0.056232 0.563223 0.063320
C11   C     C_3   0.246751 0.557336 0.436674 0.063927
C12   C     C_3   0.753076 0.556232 0.563223 0.063320
C13   C     C_3   0.760486 0.090368 0.574268 0.060469
C14   C     C_3   0.239423 0.090575 0.425748 0.062555
C15   C     C_3   0.260486 0.590368 0.574268 0.060469
C16   C     C_3   0.739423 0.590575 0.425748 0.062554
C17   C     C_3   0.753924 0.958295 0.561353 -0.257889
C18   C     C_3   0.246084 0.958247 0.437163 -0.256551
C19   C     C_3   0.253924 0.458295 0.561353 -0.257889
C20   C     C_3   0.746084 0.458247 0.437163 -0.256551
C21   C     C_3   0.822803 0.133396 0.529581 -0.226198
C22   C     C_3   0.177067 0.133712 0.471162 -0.225384
C23   C     C_3   0.322803 0.633396 0.529581 -0.226198
C24   C     C_3   0.677067 0.633712 0.471162 -0.225384
C25   C     C_3   0.004213 0.205014 0.458074 -0.233936
C26   C     C_3   0.996019 0.204496 0.540206 -0.236094
C27   C     C_3   0.504213 0.705014 0.458074 -0.233936
C28   C     C_3   0.496019 0.704496 0.540206 -0.236094
C29   C     C_3   0.064159 0.405797 0.474098 -0.224890
C30   C     C_3   0.935698 0.405349 0.526598 -0.223168
C31   C     C_3   0.564160 0.905797 0.474098 -0.224890
C32   C     C_3   0.435698 0.905349 0.526598 -0.223168
C33   C     C_3   0.941828 0.390478 0.445280 -0.257020
C34   C     C_3   0.058176 0.389523 0.555184 -0.255558
C35   C     C_3   0.441828 0.890478 0.445280 -0.257020
C36   C     C_3   0.558176 0.889523 0.555184 -0.255558
C37   C     C_3   0.010415 0.333494 0.430778 0.058893
C38   C     C_3   0.989672 0.332539 0.569084 0.058316
C39   C     C_3   0.510415 0.833494 0.430778 0.058893
C40   C     C_3   0.489672 0.832539 0.569084 0.058316
C41   C     C_3   0.819615 0.029568 0.046943 -0.253339
C42   C     C_3   0.183092 0.025088 0.954628 -0.247156
C43   C     C_3   0.319615 0.529568 0.046943 -0.253339
C44   C     C_3   0.683092 0.525088 0.954628 -0.247156
C45   C     C_R   0.774413 0.120897 0.649610 0.567843
C46   C     C_R   0.225481 0.121561 0.350518 0.555753
C47   C     C_R   0.274413 0.620897 0.649610 0.567843
C48   C     C_R   0.725481 0.621561 0.350518 0.555753
C49   C     C_3   0.821783 0.036274 0.966754 -0.242768
C50   C     C_3   0.184380 0.023028 0.034808 -0.239422
C51   C     C_3   0.321783 0.536274 0.966754 -0.242768
C52   C     C_3   0.684380 0.523028 0.034808 -0.239422
C53   C     C_3   0.694135 0.018976 0.023231 -0.245706
C54   C     C_3   0.312074 0.023070 0.967442 -0.210883
C55   C     C_3   0.194135 0.518976 0.023231 -0.245706
C56   C     C_3   0.812074 0.523070 0.967442 -0.210883
C57   C     C_3   0.741298 0.200947 0.069360 -0.227080
C58   C     C_3   0.251761 0.205747 0.940249 -0.249547
C59   C     C_3   0.241298 0.700947 0.069360 -0.227080
C60   C     C_3   0.751761 0.705747 0.940249 -0.249547
C61   C     C_3   0.748034 0.068735 0.074677 0.019287
C62   C     C_3   0.251522 0.073220 0.924917 0.033119
C63   C     C_3   0.248034 0.568735 0.074677 0.019287
C64   C     C_3   0.751522 0.573220 0.924917 0.033119
C65   C     C_3   0.767782 0.128057 0.940299 0.064014
C66   C     C_3   0.240035 0.108282 0.064128 0.087003
C67   C     C_3   0.267782 0.628057 0.940299 0.064014
C68   C     C_3   0.740035 0.608282 0.064128 0.087003
C69   C     C_3   0.697667 0.073385 0.947414 0.108054
C70   C     C_3   0.309127 0.056610 0.048864 0.085575
C71   C     C_3   0.197667 0.573385 0.947414 0.108054
C72   C     C_3   0.809128 0.556609 0.048864 0.085575
C73   C     C_3   0.763105 0.234697 0.992729 -0.301998
C74   C     C_3   0.241814 0.223678 0.022459 -0.280839
C75   C     C_3   0.263105 0.734697 0.992729 -0.301998
C76   C     C_3   0.741814 0.723678 0.022459 -0.280839
C77   C     C_3   0.008020 0.476797 0.039405 -0.263624
C78   C     C_3   0.001199 0.477527 0.958643 -0.260990
C79   C     C_3   0.508019 0.976796 0.039405 -0.263624
C80   C     C_3   0.501199 0.977527 0.958643 -0.260990
C81   C     C_3   0.077815 0.293621 0.006690 -0.306897
C82   C     C_3   0.930897 0.298255 0.988663 -0.301827
C83   C     C_3   0.577815 0.793621 0.006690 -0.306897
C84   C     C_3   0.430897 0.798255 0.988663 -0.301827
C85   C     C_3   0.966905 0.265239 0.058914 0.138179
C86   C     C_3   0.041567 0.266456 0.935210 0.121817
C87   C     C_3   0.466905 0.765239 0.058914 0.138179
C88   C     C_3   0.541567 0.766456 0.935210 0.121817
C89   C     C_R   0.969370 0.341820 0.645204 0.571467
C90   C     C_R   0.030719 0.342476 0.354797 0.571329
C91   C     C_R   0.469370 0.841820 0.645204 0.571467
C92   C     C_R   0.530719 0.842476 0.354797 0.571329
C93   C     C_3   0.028287 0.349131 0.063937 0.034710
C94   C     C_3   0.980626 0.350892 0.932859 0.038763
C95   C     C_3   0.528287 0.849131 0.063937 0.034710
C96   C     C_3   0.480626 0.850892 0.932859 0.038763
C97   C     C_R   0.759940 0.535708 0.848156 0.564996
C98   C     C_R   0.237710 0.526580 0.149079 0.555241
C99   C     C_R   0.259940 0.035708 0.848156 0.564996
C100  C     C_R   0.737710 0.026580 0.149079 0.555241
C101  C     C_R   0.785304 0.163044 0.865004 0.567827
C102  C     C_R   0.225032 0.135127 0.140988 0.605386
C103  C     C_R   0.285304 0.663044 0.865004 0.567827
C104  C     C_R   0.725032 0.635127 0.140988 0.605386
C105  C     C_R   0.950105 0.356103 0.860702 0.580901
C106  C     C_R   0.055722 0.355609 0.138480 0.579825
C107  C     C_R   0.450105 0.856103 0.860702 0.580901
C108  C     C_R   0.555722 0.855609 0.138480 0.579825
C109  C     C_3   0.687252 0.132009 0.466334 -0.238189
C110  C     C_3   0.312238 0.131118 0.534271 -0.236266
C111  C     C_3   0.187252 0.632009 0.466334 -0.238189
C112  C     C_3   0.812237 0.631118 0.534271 -0.236266
C113  C     C_3   0.693118 0.145345 0.547582 -0.230961
C114  C     C_3   0.306599 0.144516 0.453086 -0.231271
C115  C     C_3   0.193118 0.645346 0.547582 -0.230961
C116  C     C_3   0.806599 0.644516 0.453086 -0.231271
C117  C     C_3   0.756268 0.939804 0.479768 -0.224295
C118  C     C_3   0.243826 0.939096 0.518598 -0.225656
C119  C     C_3   0.256267 0.439804 0.479768 -0.224295
C120  C     C_3   0.743826 0.439096 0.518598 -0.225656
Cr1   Cr    Cr6+3 0.885690 0.492860 0.745310 1.016725
Cr2   Cr    Cr6+3 0.114310 0.492860 0.254690 1.015672
Cr3   Cr    Cr6+3 0.385690 0.992860 0.745310 1.016725
Cr4   Cr    Cr6+3 0.614310 0.992860 0.254690 1.015672
Cr5   Cr    Cr6+3 0.729880 0.332270 0.748190 1.031217
Cr6   Cr    Cr6+3 0.270120 0.332270 0.251810 1.024304
Cr7   Cr    Cr6+3 0.229880 0.832270 0.748190 1.031217
Cr8   Cr    Cr6+3 0.770120 0.832270 0.251810 1.024304
Cr9   Cr    Cr6+3 0.888120 0.178590 0.753010 1.034998
Cr10  Cr    Cr6+3 0.111880 0.178590 0.246990 1.034918
Cr11  Cr    Cr6+3 0.388120 0.678590 0.753010 1.034998
Cr12  Cr    Cr6+3 0.611880 0.678590 0.246990 1.034918
H1    H     H_    0.638812 0.094057 0.452315 0.130488
H2    H     H_    0.360834 0.093720 0.548054 0.129914
H3    H     H_    0.138812 0.594057 0.452315 0.130488
H4    H     H_    0.860834 0.593720 0.548054 0.129914
H5    H     H_    0.863507 0.068162 0.538966 0.126103
H6    H     H_    0.136458 0.068966 0.460929 0.126648
H7    H     H_    0.363507 0.568162 0.538966 0.126103
H8    H     H_    0.636458 0.568966 0.460929 0.126647
H9    H     H_    0.808272 0.909206 0.467688 0.128685
H10   H     H_    0.192001 0.908259 0.530301 0.127088
H11   H     H_    0.308272 0.409206 0.467688 0.128685
H12   H     H_    0.692001 0.408259 0.530301 0.127088
H13   H     H_    0.796075 0.910202 0.587235 0.126759
H14   H     H_    0.204013 0.910490 0.410736 0.126849
H15   H     H_    0.296075 0.410202 0.587235 0.126759
H16   H     H_    0.704013 0.410490 0.410736 0.126849
H17   H     H_    0.047103 0.151398 0.441016 0.131493
H18   H     H_    0.953080 0.151377 0.556443 0.129582
H19   H     H_    0.547103 0.651398 0.441016 0.131493
H20   H     H_    0.453080 0.651377 0.556443 0.129582
H21   H     H_    0.960230 0.161134 0.433148 0.115253
H22   H     H_    0.040009 0.159949 0.564547 0.114962
H23   H     H_    0.460230 0.661134 0.433148 0.115253
H24   H     H_    0.540009 0.659949 0.564547 0.114962
H25   H     H_    0.615738 0.890478 0.454828 0.107983
H26   H     H_    0.384152 0.889758 0.545522 0.108375
H27   H     H_    0.115737 0.390478 0.454828 0.107983
H28   H     H_    0.884152 0.389758 0.545522 0.108375
H29   H     H_    0.599798 0.833759 0.575395 0.117751
H30   H     H_    0.400363 0.835251 0.424053 0.117104
H31   H     H_    0.099798 0.333759 0.575395 0.117751
H32   H     H_    0.900363 0.335251 0.424053 0.117104
H33   H     H_    0.938424 0.477748 0.418981 0.129309
H34   H     H_    0.061662 0.476395 0.582840 0.131665
H35   H     H_    0.438424 0.977748 0.418981 0.129309
H36   H     H_    0.561662 0.976395 0.582840 0.131665
H37   H     H_    0.834882 0.939266 0.061734 0.133468
H38   H     H_    0.167932 0.936463 0.935948 0.139356
H39   H     H_    0.334882 0.439266 0.061734 0.133468
H40   H     H_    0.667932 0.436463 0.935948 0.139356
H41   H     H_    0.686888 0.220156 0.441206 0.110950
H42   H     H_    0.312110 0.219228 0.560280 0.112265
H43   H     H_    0.186888 0.720156 0.441206 0.110950
H44   H     H_    0.812110 0.719228 0.560280 0.112265
H45   H     H_    0.858805 0.086942 0.069405 0.202282
H46   H     H_    0.141268 0.082347 0.936589 0.174140
H47   H     H_    0.358805 0.586942 0.069405 0.202282
H48   H     H_    0.641268 0.582347 0.936589 0.174140
H49   H     H_    0.874569 0.051607 0.949752 0.124183
H50   H     H_    0.132148 0.041296 0.053403 0.129975
H51   H     H_    0.374569 0.551607 0.949752 0.124183
H52   H     H_    0.632148 0.541296 0.053403 0.129975
H53   H     H_    0.810225 0.948037 0.943796 0.174613
H54   H     H_    0.194586 0.932884 0.054082 0.167244
H55   H     H_    0.310225 0.448037 0.943796 0.174613
H56   H     H_    0.694586 0.432884 0.054082 0.167244
H57   H     H_    0.708245 0.930094 0.015484 0.138125
H58   H     H_    0.312388 0.930346 0.955186 0.097428
H59   H     H_    0.208245 0.430094 0.015484 0.138125
H60   H     H_    0.812388 0.430346 0.955186 0.097428
H61   H     H_    0.688221 0.229342 0.079955 0.122800
H62   H     H_    0.300466 0.244716 0.922446 0.128165
H63   H     H_    0.188221 0.729342 0.079955 0.122800
H64   H     H_    0.800466 0.744716 0.922446 0.128165
H65   H     H_    0.773154 0.241497 0.110908 0.245379
H66   H     H_    0.211390 0.249765 0.910922 0.246563
H67   H     H_    0.273154 0.741497 0.110908 0.245379
H68   H     H_    0.711390 0.749765 0.910922 0.246563
H69   H     H_    0.811503 0.269341 0.999890 0.164834
H70   H     H_    0.195271 0.263760 0.037316 0.097993
H71   H     H_    0.311503 0.769341 0.999890 0.164834
H72   H     H_    0.695271 0.763760 0.037316 0.097993
H73   H     H_    0.728952 0.300662 0.971072 0.108223
H74   H     H_    0.282358 0.280873 0.042773 0.112661
H75   H     H_    0.228952 0.800662 0.971072 0.108223
H76   H     H_    0.782358 0.780873 0.042773 0.112661
H77   H     H_    0.644012 0.027542 0.047072 0.097434
H78   H     H_    0.359036 0.059737 0.944991 0.103010
H79   H     H_    0.144011 0.527542 0.047072 0.097434
H80   H     H_    0.859036 0.559737 0.944991 0.103010
H81   H     H_    0.688156 0.237733 0.563242 0.138766
H82   H     H_    0.311670 0.236567 0.438235 0.136975
H83   H     H_    0.188156 0.737733 0.563242 0.138766
H84   H     H_    0.811669 0.736567 0.438235 0.136975
H85   H     H_    0.657238 0.141460 0.942582 0.136010
H86   H     H_    0.349479 0.122517 0.059892 0.134917
H87   H     H_    0.157238 0.641460 0.942582 0.136010
H88   H     H_    0.849479 0.622517 0.059892 0.134917
H89   H     H_    0.959141 0.502213 0.064823 0.207604
H90   H     H_    0.049823 0.503256 0.933350 0.213240
H91   H     H_    0.459141 0.002213 0.064823 0.207604
H92   H     H_    0.549822 0.003256 0.933350 0.213240
H93   H     H_    0.984458 0.172027 0.053366 0.119580
H94   H     H_    0.023503 0.173438 0.936733 0.123127
H95   H     H_    0.484457 0.672027 0.053366 0.119580
H96   H     H_    0.523503 0.673438 0.936733 0.123127
H97   H     H_    0.649553 0.102053 0.574010 0.116178
H98   H     H_    0.350154 0.100678 0.426281 0.115366
H99   H     H_    0.149553 0.602053 0.574010 0.116178
H100  H     H_    0.850154 0.600677 0.426281 0.115366
H101  H     H_    0.721586 0.870428 0.463030 0.106935
H102  H     H_    0.278780 0.869568 0.534239 0.105832
H103  H     H_    0.221586 0.370428 0.463030 0.106934
H104  H     H_    0.778779 0.369568 0.534239 0.105832
H105  H     H_    0.706076 0.924491 0.584456 0.119791
H106  H     H_    0.293908 0.924076 0.413520 0.117833
H107  H     H_    0.206076 0.424491 0.584456 0.119791
H108  H     H_    0.793908 0.424076 0.413520 0.117833
H109  H     H_    0.854247 0.091662 0.420178 0.132211
H110  H     H_    0.145571 0.090783 0.579998 0.132746
H111  H     H_    0.354247 0.591662 0.420178 0.132211
H112  H     H_    0.645571 0.590783 0.579997 0.132746
H113  H     H_    0.803326 0.221649 0.427950 0.112823
H114  H     H_    0.196161 0.220634 0.574201 0.114488
H115  H     H_    0.303326 0.721649 0.427950 0.112823
H116  H     H_    0.696161 0.720634 0.574201 0.114488
H117  H     H_    0.841216 0.219298 0.547734 0.107340
H118  H     H_    0.158612 0.219983 0.454400 0.107578
H119  H     H_    0.341216 0.719298 0.547734 0.107340
H120  H     H_    0.658612 0.719983 0.454400 0.107578
O1    O     O_R   0.957210 0.449410 0.665480 -0.521332
O2    O     O_R   0.042790 0.449410 0.334520 -0.522033
O3    O     O_R   0.457210 0.949410 0.665480 -0.521332
O4    O     O_R   0.542790 0.949410 0.334520 -0.522033
O5    O     O_R   0.736260 0.212010 0.826560 -0.467616
O6    O     O_R   0.263740 0.212010 0.173440 -0.499244
O7    O     O_R   0.236260 0.712010 0.826560 -0.467616
O8    O     O_R   0.763740 0.712010 0.173440 -0.499244
O9    O     O_R   0.832520 0.095300 0.836000 -0.503182
O10   O     O_R   0.167480 0.095300 0.164000 -0.530803
O11   O     O_R   0.332520 0.595300 0.836000 -0.503182
O12   O     O_R   0.667480 0.595300 0.164000 -0.530803
O13   O     O_R   0.946380 0.253940 0.826940 -0.477658
O14   O     O_R   0.053620 0.253940 0.173060 -0.455502
O15   O     O_R   0.446380 0.753940 0.826940 -0.477658
O16   O     O_R   0.553620 0.753940 0.173060 -0.455502
O17   O     O_3   0.834560 0.334570 0.748840 -0.327403
O18   O     O_3   0.165440 0.334570 0.251160 -0.321356
O19   O     O_3   0.334560 0.834570 0.748840 -0.327403
O20   O     O_3   0.665440 0.834570 0.251160 -0.321356
O21   O     O_R   0.820730 0.541240 0.668250 -0.514060
O22   O     O_R   0.179270 0.541240 0.331750 -0.514596
O23   O     O_R   0.320730 0.041240 0.668250 -0.514060
O24   O     O_R   0.679270 0.041240 0.331750 -0.514596
O25   O     O_R   0.714240 0.455060 0.663710 -0.524994
O26   O     O_R   0.285760 0.455060 0.336290 -0.523945
O27   O     O_R   0.214240 0.955060 0.663710 -0.524994
O28   O     O_R   0.785760 0.955060 0.336290 -0.523945
O29   O     O_R   0.736780 0.204870 0.675910 -0.503840
O30   O     O_R   0.263220 0.204870 0.324090 -0.507729
O31   O     O_R   0.236780 0.704870 0.675910 -0.503840
O32   O     O_R   0.763220 0.704870 0.324090 -0.507729
O33   O     O_R   0.833070 0.087590 0.673490 -0.521700
O34   O     O_R   0.166930 0.087590 0.326510 -0.526199
O35   O     O_R   0.333070 0.587590 0.673490 -0.521700
O36   O     O_R   0.666930 0.587590 0.326510 -0.526199
O37   O     O_R   0.946890 0.246800 0.676300 -0.499101
O38   O     O_R   0.053110 0.246800 0.323700 -0.498565
O39   O     O_R   0.446890 0.746800 0.676300 -0.499101
O40   O     O_R   0.553110 0.746800 0.323700 -0.498565
O41   O     O_R   0.956650 0.457120 0.827980 -0.488463
O42   O     O_R   0.043350 0.457120 0.172020 -0.485799
O43   O     O_R   0.456650 0.957120 0.827980 -0.488463
O44   O     O_R   0.543350 0.957120 0.172020 -0.485799
O45   O     O_R   0.820220 0.548390 0.818890 -0.520882
O46   O     O_R   0.179780 0.548390 0.181110 -0.522365
O47   O     O_R   0.320220 0.048390 0.818890 -0.520882
O48   O     O_R   0.679780 0.048390 0.181110 -0.522365
O49   O     O_R   0.713680 0.462770 0.826210 -0.515252
O50   O     O_R   0.286320 0.462770 0.173790 -0.508738
O51   O     O_R   0.213680 0.962770 0.826210 -0.515252
O52   O     O_R   0.786320 0.962770 0.173790 -0.508738
H121  H     H_    0.947505 0.499150 0.537600 0.132329
H122  H     H_    0.052173 0.499841 0.464491 0.130135
H123  H     H_    0.447505 0.999150 0.537600 0.132329
H124  H     H_    0.552173 0.999841 0.464491 0.130135
Cl1   Cl    Cl    0.683794 0.971664 0.876365 -0.589420
Cl2   Cl    Cl    0.323853 0.946815 0.111666 -0.641191
Cl3   Cl    Cl    0.183794 0.471664 0.876365 -0.589420
Cl4   Cl    Cl    0.823853 0.446815 0.111666 -0.641191
H125  H     H_    0.042208 0.548384 0.055701 0.120119
H126  H     H_    0.964891 0.547424 0.944565 0.119438
H127  H     H_    0.542208 0.048384 0.055701 0.120119
H128  H     H_    0.464891 0.047424 0.944565 0.119438
H129  H     H_    0.616188 0.856217 0.992441 0.177704
H130  H     H_    0.396425 0.867702 0.003608 0.184272
H131  H     H_    0.116188 0.356217 0.992441 0.177704
H132  H     H_    0.896425 0.367702 0.003608 0.184272
Cl5   Cl    Cl    0.592208 0.764400 0.855487 -0.559440
Cl6   Cl    Cl    0.416403 0.753525 0.138606 -0.549823
Cl7   Cl    Cl    0.092208 0.264400 0.855487 -0.559440
Cl8   Cl    Cl    0.916403 0.253525 0.138606 -0.549823
H133  H     H_    0.907252 0.221010 0.964853 0.081442
H134  H     H_    0.097054 0.210553 0.027739 0.089252
H135  H     H_    0.407252 0.721010 0.964853 0.081442
H136  H     H_    0.597054 0.710553 0.027739 0.089252

loop_
_geom_bond_atom_site_label_1
_geom_bond_atom_site_label_2
_ccdc_geom_bond_type
C82   C94   S    
C119  H11   S    
C120  H12   S    
C41   C61   S    
C116  H84   S    
C53   C69   S    
C56   H60   S    
C48   O32   A    
C43   C63   S    
C44   C64   S    
Cr6   O26   S    
C91   O39   A    
C70   H86   S    
Cr8   O8    S    
C16   C20   S    
C63   C98   S    
C51   H51   S    
Cr2   O22   S    
C35   C39   S    
Cr10  O18   S    
C109  H41   S    
Cr11  O15   S    
C28   C40   S    
C36   H36   S    
C30   C38   S    
C82   H133  S    
C42   H38   S    
C75   H75   S    
C56   C72   S    
C101  O5    A    
C102  O10   A    
C21   H5    S    
C86   Cl7   S    
C18   C118  S    
C81   C86   S    
C83   C88   S    
C41   C49   S    
C6    H114  S    
Cr6   O6    S    
C109  H1    S    
C46   O34   A    
C81   H131  S    
C59   H63   S    
C14   C114  S    
C73   H69   S    
C83   H129  S    
C24   H8    S    
C55   H59   S    
C100  O52   A    
C44   H40   S    
C6    C10   S    
C2    O22   A    
C3    O27   A    
C54   C70   S    
C68   C72   S    
C85   H93   S    
C115  H83   S    
Cr1   O1    S    
C31   H25   S    
C119  H103  S    
C64   C97   S    
C36   H29   S    
C4    O28   A    
C15   C115  S    
C20   C120  S    
C43   H39   S    
C57   H65   S    
Cr6   O18   S    
Cr3   O47   S    
C52   H52   S    
Cr12  O20   S    
C57   C61   S    
C82   C85   S    
C59   C63   S    
Cr11  O39   S    
C60   C64   S    
Cr9   O33   S    
C80   H128  S    
C13   C45   S    
C66   C70   S    
C91   O3    A    
C42   H46   S    
C98   O50   A    
C99   O47   A    
C95   C108  S    
C60   H68   S    
C62   C99   S    
C5    C21   S    
C57   H61   S    
C8    H112  S    
C31   C36   S    
C104  O12   A    
C88   Cl5   S    
C55   C71   S    
C76   H76   S    
C32   H123  S    
C78   H126  S    
Cr1   O41   S    
C114  H82   S    
C65   C101  S    
Cr10  O34   S    
Cr3   O43   S    
C67   C103  S    
C5    C9    S    
Cr5   O25   S    
C37   C90   S    
C41   H45   S    
C78   C94   S    
C22   H118  S    
C105  O13   A    
C66   C74   S    
C7    H115  S    
C25   H17   S    
C57   C73   S    
C108  O16   A    
C85   C93   S    
C111  H3    S    
C55   C63   S    
C56   C64   S    
C110  C114  S    
Cr5   O49   S    
C44   C52   S    
C90   O2    A    
Cr7   O19   S    
C116  H100  S    
Cr8   O20   S    
C50   H50   S    
C1    C12   S    
C112  H4    S    
C2    C11   S    
Cr3   O23   S    
C7    C11   S    
Cr11  O11   S    
C110  H42   S    
C72   H88   S    
C75   H71   S    
C25   C26   S    
C20   H108  S    
C102  O6    A    
C87   C95   S    
C84   H130  S    
C19   H107  S    
C93   C106  S    
C117  H101  S    
C8    C12   S    
C92   O40   A    
C51   C67   S    
C47   O31   A    
C78   H90   S    
C49   H49   S    
C89   O37   A    
C112  H44   S    
C42   C50   S    
C46   O30   A    
Cr7   O7    S    
C110  H2    S    
C61   C100  S    
C67   C75   S    
Cr8   O32   S    
C50   H54   S    
Cr1   O17   S    
C112  C116  S    
C58   C74   S    
Cr3   O19   S    
C73   H73   S    
Cr4   O20   S    
C54   H58   S    
C33   H33   S    
C69   Cl1   S    
C2    O26   A    
C79   H91   S    
C68   C76   S    
C13   C17   S    
C14   C22   S    
C88   H96   S    
C7    C23   S    
C8    C24   S    
C29   H122  S    
C40   C91   S    
C54   H78   S    
C49   H53   S    
C6    H110  S    
C52   H56   S    
Cr7   O27   S    
C4    C9    S    
Cr4   O44   S    
C53   H57   S    
Cr8   O28   S    
C18   H106  S    
C58   C62   S    
C88   C96   S    
C94   C105  S    
C71   Cl3   S    
C12   C112  S    
C44   H48   S    
C14   C46   S    
C60   H64   S    
C77   C78   S    
C15   C19   S    
C43   H47   S    
C3    O23   A    
C69   H85   S    
C105  O41   A    
C107  O43   A    
C6    C22   S    
C45   O33   A    
C104  O8    A    
C14   C18   S    
C23   H119  S    
Cr1   O45   S    
Cr2   O42   S    
C15   C47   S    
Cr3   O3    S    
Cr4   O48   S    
C17   C117  S    
Cr12  O12   S    
C19   C119  S    
C9    C109  S    
C79   H127  S    
Cr9   O9    S    
C16   C116  S    
C27   H23   S    
C106  O14   A    
C25   H21   S    
C24   H120  S    
C97   O45   A    
C54   C62   S    
C18   H14   S    
C11   C111  S    
C29   C34   S    
C58   H62   S    
C33   C37   S    
C80   C96   S    
C17   H13   S    
C79   C95   S    
C80   H92   S    
Cr6   O50   S    
C26   H18   S    
C31   H124  S    
C113  H97   S    
Cr10  O10   S    
C92   O4    A    
C96   C107  S    
Cr5   O29   S    
C87   H95   S    
C39   C92   S    
Cr9   O13   S    
C27   H19   S    
C103  O7    A    
C26   C38   S    
C68   C104  S    
C5    H113  S    
Cr2   O2    S    
C74   H70   S    
C22   H6    S    
C82   H132  S    
C19   H15   S    
C47   O35   A    
C21   H117  S    
C48   O36   A    
C43   C51   S    
C41   H37   S    
C90   O38   A    
C65   C69   S    
Cr6   O30   S    
C77   C93   S    
C60   C76   S    
C10   C110  S    
C67   C71   S    
Cr1   O21   S    
C51   H55   S    
Cr2   O18   S    
Cr10  O14   S    
Cr11  O19   S    
C8    H116  S    
C53   H77   S    
C29   C37   S    
C34   H34   S    
C70   Cl2   S    
C87   Cl6   S    
C101  O9    A    
C9    C117  S    
C66   C102  S    
C117  H9    S    
C84   C87   S    
C113  H81   S    
Cr4   O4    S    
C11   C119  S    
C16   C48   S    
C108  O44   A    
C29   H27   S    
C30   H28   S    
C38   C89   S    
C49   C65   S    
C111  H43   S    
C23   H7    S    
C30   H121  S    
C56   H80   S    
Cr7   O51   S    
Cr8   O52   S    
Cr5   O5    S    
C65   C73   S    
C84   C96   S    
Cr7   O31   S    
C86   C94   S    
C25   C37   S    
C12   C120  S    
C59   H67   S    
C35   H35   S    
Cr12  O40   S    
C100  O48   A    
C115  H99   S    
C52   C68   S    
C109  C113  S    
C15   C23   S    
Cr9   O37   S    
C16   C24   S    
C89   O1    A    
C53   C61   S    
C106  O42   A    
C32   H26   S    
C35   H30   S    
C45   O29   A    
C13   C21   S    
C4    O24   A    
C32   C35   S    
C36   C40   S    
C33   H32   S    
C34   H31   S    
C27   C39   S    
Cr5   O17   S    
Cr2   O46   S    
C85   Cl8   S    
C10   C118  S    
Cr12  O16   S    
C81   C93   S    
C118  H102  S    
C83   C95   S    
Cr10  O38   S    
C20   H16   S    
C1    O25   A    
C50   C66   S    
C77   H89   S    
C28   H20   S    
C84   H135  S    
C107  O15   A    
C86   H94   S    
C26   H22   S    
C97   O49   A    
C98   O46   A    
C59   C75   S    
C99   O51   A    
C72   Cl4   S    
C74   H74   S    
C81   H134  S    
C42   C62   S    
C58   H66   S    
C30   C33   S    
C83   H136  S    
C34   C38   S    
C1    O21   A    
C118  H10   S    
C114  H98   S    
C76   H72   S    
C77   H125  S    
C71   H87   S    
C3    C10   S    
C120  H104  S    
Cr11  O35   S    
Cr4   O24   S    
Cr12  O36   S    
C31   C39   S    
C32   C40   S    
Cr9   O17   S    
C55   H79   S    
C79   C80   S    
C7    H111  S    
C27   C28   S    
C28   H24   S    
C103  O11   A    
C111  C115  S    
C5    H109  S    
C13   C113  S    
C17   H105  S    
