data_mof_unit_4225.cif
_audit_creation_date              2012-12-10T18:56:28-0500
_audit_creation_method            fapswitch 2.2
_symmetry_space_group_name_H-M    P1
_symmetry_Int_Tables_number       1
_space_group_crystal_system       triclinic
_cell_length_a                    10.643618
_cell_length_b                    9.811957
_cell_length_c                    19.347438
_cell_angle_alpha                 90.271406
_cell_angle_beta                  89.527098
_cell_angle_gamma                 90.085605
_cell_volume                      2020.45068175

loop_
_atom_site_label
_atom_site_type_symbol
_atom_type_description
_atom_site_fract_x
_atom_site_fract_y
_atom_site_fract_z
_atom_type_partial_charge
C1    C     C_R   0.872059 0.501177 0.499953 -0.220833
C2    C     C_R   0.739512 0.500195 0.500037 0.826344
C3    C     C_R   0.497078 0.499497 0.365590 0.899757
C4    C     C_R   0.500514 0.500561 0.634930 0.878654
C5    C     C_R   0.066482 0.467866 0.438078 -0.033938
C6    C     C_R   0.933413 0.530271 0.562427 -0.032675
C7    C     C_R   0.935538 0.466324 0.438329 -0.033501
C8    C     C_R   0.064429 0.531178 0.562392 -0.028437
C9    C     C_R   0.481500 0.378732 0.748426 0.157198
C10   C     C_R   0.405722 0.597532 0.258730 0.176697
C11   C     C_R   0.532872 0.388856 0.251216 0.063387
C12   C     C_R   0.127924 0.498224 0.500423 -0.217402
C13   C     C_R   0.499401 0.629323 0.747724 0.159853
C14   C     C_R   0.465187 0.381548 0.820623 -0.041202
C15   C     C_R   0.384689 0.591316 0.187042 -0.052643
C16   C     C_R   0.515745 0.384688 0.179398 -0.019535
C17   C     C_R   0.486124 0.631656 0.820116 -0.034919
C18   C     C_R   0.467175 0.508018 0.855440 -0.131374
C19   C     C_R   0.444724 0.488464 0.147864 -0.082051
C20   C     C_R   0.597985 0.072426 0.527592 -0.064714
C21   C     C_R   0.401495 0.927582 0.473025 -0.070907
C22   C     C_R   0.401768 0.071592 0.472682 -0.088404
C23   C     C_R   0.564708 0.540913 0.968900 -0.159290
C24   C     C_R   0.597954 0.928392 0.527645 -0.077637
C25   C     C_R   0.494966 0.502760 0.711492 -0.179431
C26   C     C_R   0.480509 0.496888 0.290425 -0.156550
C27   C     C_2   0.140629 0.446010 0.372983 0.456506
C28   C     C_2   0.858854 0.550050 0.627463 0.463844
C29   C     C_2   0.863256 0.423800 0.376092 0.523223
C30   C     C_2   0.136785 0.569530 0.625393 0.496810
C31   C     C_3   0.611389 0.186482 0.714390 -0.653723
C32   C     C_3   0.419198 0.834707 0.293353 -0.717118
C33   C     C_3   0.542733 0.158899 0.296488 -0.694812
C34   C     C_R   0.338791 0.469066 0.034767 -0.111202
C35   C     C_3   0.406732 0.833968 0.698883 -0.616125
C36   C     C_2   0.453561 0.252953 0.861345 0.436968
C37   C     C_2   0.306312 0.695507 0.151567 0.405678
C38   C     C_2   0.572441 0.271325 0.137824 0.408558
C39   C     C_2   0.486516 0.762554 0.860017 0.432559
C40   C     C_R   0.558783 0.536607 0.040212 -0.155280
C41   C     C_R   0.344164 0.475687 0.963201 -0.176466
C42   C     C_R   0.446513 0.498830 0.072942 0.141494
C43   C     C_R   0.457649 0.509987 0.930539 0.046939
C44   C     C_R   0.260468 0.499741 0.500153 0.823294
H1    H     H_    0.676165 0.127366 0.549768 0.143454
H2    H     H_    0.771478 0.606715 0.626854 0.051216
H3    H     H_    0.774818 0.472819 0.364181 0.026443
H4    H     H_    0.226641 0.522031 0.635583 0.023599
H5    H     H_    0.414315 0.186457 0.719006 0.273419
H6    H     H_    0.635160 0.156204 0.767923 0.257520
H7    H     H_    0.684770 0.256716 0.694081 0.246527
H8    H     H_    0.610202 0.093667 0.681417 0.214427
H9    H     H_    0.257755 0.713360 0.298636 0.296785
H10   H     H_    0.415051 0.873451 0.239652 0.241540
H11   H     H_    0.519063 0.823530 0.308529 0.248309
H12   H     H_    0.322723 0.872615 0.451519 0.150365
H13   H     H_    0.374040 0.911050 0.327847 0.224172
H14   H     H_    0.695718 0.276032 0.264683 0.248067
H15   H     H_    0.531196 0.102142 0.247229 0.217343
H16   H     H_    0.448744 0.175723 0.320426 0.250051
H17   H     H_    0.599332 0.095931 0.332147 0.243756
H18   H     H_    0.596554 0.809016 0.724537 0.266952
H19   H     H_    0.369567 0.877118 0.748039 0.260547
H20   H     H_    0.333097 0.770582 0.674219 0.255680
H21   H     H_    0.430091 0.919171 0.663470 0.216878
H22   H     H_    0.495171 0.246421 0.912237 0.125483
H23   H     H_    0.323529 0.125830 0.450533 0.135753
H24   H     H_    0.331267 0.729569 0.099983 0.075427
H25   H     H_    0.658428 0.222613 0.154148 0.071698
H26   H     H_    0.428248 0.773014 0.906026 0.092922
H27   H     H_    0.675988 0.874121 0.549989 0.138830
H28   H     H_    0.652548 0.566792 0.943438 0.164057
H29   H     H_    0.252051 0.439861 0.060397 0.159721
H30   H     H_    0.641907 0.559928 0.070022 0.142942
H31   H     H_    0.261515 0.451563 0.933191 0.166043
H32   H     H_    0.230581 0.394491 0.374220 0.049733
N1    N     N_R   0.500000 0.857200 0.500000 -0.077444
N2    N     N_R   0.500000 0.142800 0.500000 -0.075163
N3    N     N_2   0.489514 0.251464 0.712727 -0.278009
N4    N     N_2   0.354173 0.705594 0.299509 -0.276017
N5    N     N_2   0.606275 0.287341 0.284581 -0.289446
N6    N     N_2   0.518315 0.753498 0.710889 -0.289657
O1    O     O_R   0.316770 0.614620 0.500000 -0.615868
O2    O     O_2   0.891494 0.497819 0.681571 -0.541861
O3    O     O_2   0.899111 0.329606 0.339528 -0.553429
O4    O     O_2   0.099272 0.658312 0.664848 -0.550044
O5    O     O_2   0.394059 0.155229 0.840094 -0.559788
O6    O     O_2   0.210954 0.741149 0.178298 -0.537630
O7    O     O_2   0.521669 0.228079 0.085758 -0.550747
O8    O     O_2   0.554527 0.857678 0.843954 -0.557685
O9    O     O_R   0.683230 0.385380 0.500000 -0.611919
O10   O     O_R   0.683230 0.614620 0.500000 -0.630307
O11   O     O_R   0.316770 0.385380 0.500000 -0.631180
O12   O     O_R   0.500030 0.614710 0.398180 -0.597015
O13   O     O_R   0.499970 0.385290 0.601820 -0.587147
O14   O     O_R   0.499970 0.614710 0.601820 -0.600680
O15   O     O_R   0.500030 0.385290 0.398180 -0.598045
O16   O     O_2   0.104274 0.490265 0.317780 -0.536393
Zn1   Zn    Zn3+2 0.500000 0.653120 0.500000 0.956014
Zn2   Zn    Zn3+2 0.500000 0.346880 0.500000 0.962210

loop_
_geom_bond_atom_site_label_1
_geom_bond_atom_site_label_2
_ccdc_geom_bond_type
C37   H24   S    
C27   O16   D    
C7    C29   S    
C28   O2    D    
C14   C18   A    
C37   O6    D    
C34   C42   A    
C31   H8    S    
C44   O1    A    
C4    C25   S    
C9    C25   A    
C11   N5    S    
C15   C19   A    
C38   O7    D    
C28   H2    S    
C29   H3    S    
C30   H4    S    
C10   C15   A    
C14   C36   S    
C36   H22   S    
C41   H31   S    
C35   H21   S    
C23   C40   A    
O14   Zn1   S    
C23   C43   A    
C1    C2    S    
C9    N3    S    
C17   C39   S    
C15   C37   S    
C44   O11   A    
C5    C27   S    
C6    C28   S    
C20   C24   A    
C35   H20   S    
O9    Zn2   S    
C30   O4    D    
C32   H11   S    
C29   O3    D    
C20   H1    S    
C19   C42   S    
C10   C26   A    
C40   C42   A    
H18   N6    S    
C38   H25   S    
C33   H15   S    
O1    Zn1   S    
C21   C22   A    
C41   C43   A    
C13   C25   A    
C34   C41   A    
C32   H13   S    
C32   H10   S    
C35   N6    S    
C36   O5    D    
C4    O14   A    
C1    C6    A    
H9    N4    S    
C22   N2    A    
C5    C12   A    
H14   N5    S    
C5    C7    A    
C10   N4    S    
O13   Zn2   S    
C6    C8    A    
C11   C26   A    
C13   N6    S    
H5    N3    S    
C9    C14   A    
C32   N4    S    
C4    O13   A    
C11   C16   A    
C3    O15   A    
C8    C12   A    
C17   C18   A    
C2    O10   A    
O11   Zn2   S    
C33   H16   S    
N2    Zn2   S    
C31   H6    S    
C27   H32   S    
O15   Zn2   S    
C39   O8    D    
C1    C7    A    
C23   H28   S    
C3    C26   S    
C31   H7    S    
C21   H12   S    
C31   N3    S    
C20   N2    A    
C13   C17   A    
C8    C30   S    
C12   C44   S    
C18   C43   S    
O12   Zn1   S    
C16   C19   A    
C39   H26   S    
C40   H30   S    
N1    Zn1   S    
C3    O12   A    
C2    O9    A    
C22   H23   S    
C34   H29   S    
C24   N1    A    
O10   Zn1   S    
C33   H17   S    
C21   N1    A    
C35   H19   S    
C33   N5    S    
C24   H27   S    
C16   C38   S    
