data_mof_unit_4125.cif
_audit_creation_date              2012-12-11T19:49:44-0500
_audit_creation_method            fapswitch 2.2
_symmetry_space_group_name_H-M    P1
_symmetry_Int_Tables_number       1
_space_group_crystal_system       triclinic
_cell_length_a                    8.155559
_cell_length_b                    15.059102
_cell_length_c                    18.705257
_cell_angle_alpha                 101.585933
_cell_angle_beta                  91.229677
_cell_angle_gamma                 98.818049
_cell_volume                      2220.64328789

loop_
_atom_site_label
_atom_site_type_symbol
_atom_type_description
_atom_site_fract_x
_atom_site_fract_y
_atom_site_fract_z
_atom_type_partial_charge
Ba1   Ba    Ba6+2 0.853520 0.540910 0.466490 1.631370
Ba2   Ba    Ba6+2 0.336320 0.459170 0.533520 1.627732
C1    C     C_3   0.619684 0.854432 0.280196 -0.250107
C2    C     C_R   0.890858 0.409261 0.092176 0.032898
C3    C     C_R   0.726742 0.370000 0.067934 -0.085788
C4    C     C_3   0.144334 0.717008 0.272081 0.359732
C5    C     C_R   0.665206 0.374469 0.998636 -0.088771
C6    C     C_R   0.767314 0.417136 0.951724 0.031947
C7    C     C_R   0.931862 0.457527 0.975482 0.013171
C8    C     C_R   0.707729 0.418378 0.881144 -0.105424
C9    C     C_R   0.811354 0.457306 0.832219 -0.042959
C10   C     C_R   0.975302 0.501105 0.856685 -0.007027
C11   C     C_R   0.034630 0.501027 0.928640 -0.008525
C12   C     C_3   0.652562 0.773154 0.312994 0.355564
C13   C     C_R   0.757448 0.451876 0.758971 -0.002918
C14   C     C_R   0.866945 0.487179 0.711100 -0.298491
C15   C     C_R   0.024985 0.536022 0.734996 0.045758
C16   C     C_3   0.129087 0.735201 0.195355 -0.362209
C17   C     C_R   0.080369 0.544288 0.809353 -0.044536
C18   C     C_R   0.157395 0.494753 0.070550 -0.008018
C19   C     C_R   0.217085 0.494158 0.142342 -0.006626
C20   C     C_R   0.111164 0.452227 0.190015 -0.043480
C21   C     C_R   0.952082 0.405571 0.162120 -0.042414
C22   C     C_R   0.238427 0.592146 0.837712 -0.042926
C23   C     C_3   0.457606 0.308172 0.307884 0.313171
C24   C     C_R   0.299947 0.588188 0.907583 0.034518
C25   C     C_R   0.198168 0.542319 0.953229 0.007658
C26   C     C_R   0.259989 0.538523 0.023803 0.013773
C27   C     C_R   0.463564 0.628255 0.932132 -0.085604
C28   C     C_3   0.241517 0.744579 0.628853 0.311956
C29   C     C_R   0.525700 0.623010 0.001145 -0.093219
C30   C     C_R   0.424480 0.579006 0.047601 0.031545
C31   C     C_R   0.381731 0.536910 0.166548 -0.045013
C32   C     C_R   0.484918 0.576459 0.117761 -0.108103
C33   C     C_R   0.436357 0.541133 0.239551 0.001972
C34   C     C_3   0.432666 0.275998 0.225419 -0.403514
C35   C     C_R   0.327267 0.505803 0.287427 -0.302325
C36   C     C_R   0.166874 0.460426 0.264259 0.040999
C37   C     C_R   0.853631 0.172891 0.550767 -0.001909
C38   C     C_R   0.786926 0.078953 0.544205 -0.033046
C39   C     C_R   0.649143 0.890270 0.529215 -0.035574
C40   C     C_3   0.270413 0.849014 0.650169 -0.399996
C41   C     C_R   0.798707 0.928398 0.570746 -0.044788
C42   C     C_R   0.867875 0.020306 0.576795 -0.105006
C43   C     C_R   0.581254 0.795723 0.519177 0.048465
C44   C     C_R   0.430109 0.762482 0.478974 -0.294878
C45   C     C_3   0.055975 0.279274 0.728794 0.361996
C46   C     C_R   0.613861 0.194370 0.480466 0.019544
C47   C     C_R   0.547134 0.100832 0.471646 -0.027945
C48   C     C_R   0.632614 0.042994 0.504504 0.010678
C49   C     C_R   0.396741 0.063700 0.431122 -0.051968
C50   C     C_R   0.327901 0.972628 0.425328 -0.105251
C51   C     C_R   0.409397 0.913914 0.457463 -0.035448
C52   C     C_3   0.954290 0.257124 0.373931 0.314390
C53   C     C_R   0.564363 0.948798 0.496657 0.003980
C54   C     C_R   0.340371 0.821097 0.451027 -0.006666
C55   C     C_R   0.762168 0.229788 0.521845 -0.295783
C56   C     C_3   0.070816 0.258090 0.804583 -0.366784
C57   C     C_3   0.932852 0.153057 0.354492 -0.398850
C58   C     C_3   0.731107 0.674004 0.688760 0.316866
C59   C     C_3   0.753233 0.705625 0.771386 -0.408088
C60   C     C_R   0.764088 0.888585 0.238604 0.103534
C61   C     C_R   0.750023 0.875353 0.162030 -0.046840
C62   C     C_R   0.885010 0.906141 0.123593 -0.085107
C63   C     C_R   0.034708 0.950211 0.161193 -0.067960
C64   C     C_R   0.049775 0.963364 0.237277 -0.058532
C65   C     C_R   0.914774 0.933109 0.275963 -0.011893
C66   C     C_3   0.526584 0.223957 0.682304 0.370032
C67   C     C_3   0.489909 0.129879 0.701860 -0.370714
C68   C     C_R   0.993410 0.454101 0.046177 0.007879
H1    H     H_    0.750927 0.796918 0.357559 0.085546
H2    H     H_    0.847540 0.653055 0.667455 0.010847
H3    H     H_    0.628455 0.614787 0.675751 0.069417
H4    H     H_    0.595208 0.911369 0.324415 0.046582
H5    H     H_    0.862655 0.760860 0.785974 0.125043
H6    H     H_    0.772415 0.647703 0.797252 0.058761
H7    H     H_    0.640591 0.732377 0.792972 0.118086
H8    H     H_    0.536269 0.747406 0.337158 -0.069559
H9    H     H_    0.505313 0.832445 0.243604 0.077222
H10   H     H_    0.339440 0.327044 0.329607 0.019333
H11   H     H_    0.556816 0.369316 0.319851 0.057879
H12   H     H_    0.371639 0.873030 0.693586 0.123851
H13   H     H_    0.329106 0.217165 0.211789 0.125661
H14   H     H_    0.402293 0.332587 0.200216 0.057182
H15   H     H_    0.548129 0.254177 0.202553 0.118435
H16   H     H_    0.170902 0.679515 0.155369 0.070972
H17   H     H_    0.134842 0.346236 0.728834 0.091851
H18   H     H_    0.924447 0.284421 0.716977 -0.066375
H19   H     H_    0.202229 0.255023 0.819159 0.147546
H20   H     H_    0.027548 0.312339 0.845592 0.073625
H21   H     H_    0.993180 0.191117 0.805885 0.109187
H22   H     H_    0.661502 0.239279 0.674602 -0.070401
H23   H     H_    0.305818 0.879283 0.602335 0.064130
H24   H     H_    0.456668 0.221315 0.630204 0.097171
H25   H     H_    0.526395 0.077060 0.657337 0.071580
H26   H     H_    0.355107 0.111953 0.709476 0.149086
H27   H     H_    0.065314 0.650461 0.273230 0.090119
H28   H     H_    0.561171 0.129995 0.753152 0.108271
H29   H     H_    0.645297 0.336332 0.102800 0.061136
H30   H     H_    0.537906 0.343672 0.981445 0.070419
H31   H     H_    0.825333 0.480319 0.654671 0.072519
H32   H     H_    0.580852 0.386925 0.864651 0.107919
H33   H     H_    0.871870 0.367971 0.194830 0.096222
H34   H     H_    0.154874 0.873337 0.670660 0.119729
H35   H     H_    0.317939 0.630602 0.805327 0.096376
H36   H     H_    0.544264 0.663059 0.897692 0.061334
H37   H     H_    0.652691 0.654323 0.018510 0.069354
H38   H     H_    0.612244 0.607195 0.133961 0.110417
H39   H     H_    0.275944 0.712382 0.284387 -0.072246
H40   H     H_    0.369644 0.511602 0.343629 0.074632
H41   H     H_    0.865597 0.888217 0.599092 0.102242
H42   H     H_    0.984337 0.044877 0.608313 0.104465
H43   H     H_    0.210622 0.949197 0.394526 0.098977
H44   H     H_    0.327970 0.104281 0.403942 0.096778
H45   H     H_    0.836613 0.278880 0.391823 0.004799
H46   H     H_    0.377356 0.690743 0.472703 0.074236
H47   H     H_    0.812301 0.301822 0.527506 0.068251
H48   H     H_    0.997763 0.738361 0.180724 0.152818
H49   H     H_    0.207955 0.801089 0.192224 0.107570
H50   H     H_    0.358733 0.721035 0.611738 0.007019
H51   H     H_    0.146298 0.722765 0.582905 0.072288
H52   H     H_    0.635288 0.840635 0.132039 0.057638
H53   H     H_    0.873740 0.895491 0.064613 0.065177
H54   H     H_    0.139332 0.973659 0.131364 0.064862
H55   H     H_    0.166275 0.996802 0.266245 0.058364
H56   H     H_    0.050965 0.281715 0.419002 0.081145
H57   H     H_    0.927549 0.944092 0.334967 0.068044
H58   H     H_    0.833196 0.125845 0.310706 0.129103
H59   H     H_    0.899938 0.123267 0.402740 0.059793
H60   H     H_    0.051629 0.132086 0.335298 0.114641
O1    O     O_2   0.871960 0.437280 0.322960 -0.467630
O2    O     O_2   0.195642 0.179588 0.542943 -0.490574
O3    O     O_3   0.109321 0.209097 0.677706 -0.603226
O4    O     O_3   0.121410 0.444460 0.412450 -0.494181
O5    O     O_3   0.580430 0.613240 0.540320 -0.487876
O6    O     O_2   0.337390 0.273050 0.457610 -0.469215
O7    O     O_3   0.503126 0.236726 0.337876 -0.646059
O8    O     O_2   0.416302 0.457727 0.755446 -0.494890
O9    O     O_3   0.477075 0.289870 0.738480 -0.603946
O10   O     O_3   0.661450 0.607570 0.372550 -0.475199
O11   O     O_2   0.780270 0.542052 0.245204 -0.494730
O12   O     O_3   0.694621 0.747232 0.659072 -0.640429
O13   O     O_3   0.998795 0.290880 0.311626 -0.641170
O14   O     O_3   0.704789 0.705958 0.258443 -0.606003
O15   O     O_2   0.852310 0.726980 0.542430 -0.473235
O16   O     O_3   0.084010 0.657370 0.410280 -0.483297
O17   O     O_2   0.997281 0.820111 0.455987 -0.492778
O18   O     O_3   0.091225 0.788605 0.321824 -0.604516
O19   O     O_2   0.317750 0.562750 0.677090 -0.470449
O20   O     O_3   0.068300 0.555620 0.587560 -0.495146
O21   O     O_3   0.528270 0.392500 0.627460 -0.477894
O22   O     O_3   0.189517 0.709363 0.689700 -0.640599
O23   O     O_3   0.609290 0.386840 0.459690 -0.476280
O24   O     O_3   0.105700 0.342700 0.589730 -0.483190
P1    P     P_3+3 0.039430 0.410940 0.333230 0.970567
P2    P     P_3+3 0.676770 0.715000 0.563590 0.973099
P3    P     P_3+3 0.128705 0.773460 0.410740 0.938008
P4    P     P_3+3 0.150290 0.589140 0.666780 0.970446
P5    P     P_3+3 0.065288 0.225198 0.589648 0.939742
P6    P     P_3+3 0.645616 0.597158 0.278203 0.949858
P7    P     P_3+3 0.519565 0.271380 0.433175 0.935172
P8    P     P_3+3 0.545405 0.399260 0.721210 0.938447

loop_
_geom_bond_atom_site_label_1
_geom_bond_atom_site_label_2
_ccdc_geom_bond_type
Ba2   O20   S    
C57   H60   S    
C40   H23   S    
C12   H1    S    
C13   P8    S    
Ba1   O15   S    
C40   H12   S    
C67   H26   S    
C1    H9    S    
C2    C68   A    
C46   C55   A    
O16   P3    S    
C50   H43   S    
C59   H5    S    
C52   H56   S    
C24   C25   A    
Ba2   O4    S    
C60   C65   A    
C33   C35   A    
C22   C24   A    
C31   C33   A    
C1    C60   S    
C19   C31   A    
C58   H2    S    
C34   H13   S    
C13   C14   A    
C23   H10   S    
C58   H3    S    
Ba1   Ba2   S    
C63   H54   S    
Ba1   P1    S    
C1    H4    S    
C7    C11   A    
C33   P6    S    
C39   C53   A    
C58   O12   S    
O15   P2    D    
C9    C13   A    
C21   H33   S    
C3    H29   S    
C59   H7    S    
C66   C67   S    
C47   C49   A    
O14   P6    S    
O19   P4    D    
C16   H48   S    
O6    P7    D    
C67   H28   S    
Ba2   O19   S    
C64   C65   A    
Ba2   O24   S    
C19   C20   A    
C45   O3    S    
C23   H11   S    
C39   C41   A    
C18   C68   A    
Ba1   O16   S    
C41   H41   S    
C36   P1    S    
C12   O14   S    
C52   C57   S    
C51   C53   A    
C59   H6    S    
C4    C16   S    
O22   P4    S    
O2    P5    D    
C5    H30   S    
C49   C50   A    
C49   H44   S    
C4    H27   S    
C8    H32   S    
C7    C68   A    
C37   C38   A    
C3    C5    A    
C2    C21   A    
C15   C17   A    
C46   P7    S    
C18   C26   A    
C67   H25   S    
C57   H58   S    
C43   C44   A    
Ba2   O6    S    
O5    P2    S    
O23   P7    S    
C58   C59   S    
O3    P5    S    
C45   H17   S    
Ba1   P2    S    
C23   O7    S    
C41   C42   A    
C35   C36   A    
C65   H57   S    
C54   P3    S    
C4    O18   S    
O11   P6    D    
C28   O22   S    
C29   C30   A    
C28   H51   S    
C26   C30   A    
Ba2   P4    S    
O21   P8    S    
C52   H45   S    
C60   C61   A    
C31   C32   A    
C6    C7    A    
Ba1   O20   S    
O8    P8    D    
C43   P2    S    
C16   H16   S    
C10   C11   A    
Ba1   O23   S    
C15   P4    S    
C56   H20   S    
C37   C55   A    
C35   H40   S    
Ba1   O10   S    
C42   H42   S    
C46   C47   A    
C63   C64   A    
Ba2   O23   S    
C4    H39   S    
C27   H36   S    
Ba1   O4    S    
O17   P3    D    
C61   H52   S    
C50   C51   A    
C55   H47   S    
C56   H21   S    
C51   C54   A    
Ba2   O21   S    
O4    P1    S    
C57   H59   S    
O20   P4    S    
C37   P5    S    
C29   H37   S    
O9    P8    S    
C28   C40   S    
C48   C53   A    
C2    C3    A    
Ba1   O1    S    
C40   H34   S    
C9    C10   A    
C1    C12   S    
C34   H15   S    
C62   H53   S    
Ba2   O5    S    
C64   H55   S    
C44   H46   S    
O13   P1    S    
C32   H38   S    
C45   H18   S    
O1    P1    D    
C17   C22   A    
O24   P5    S    
C27   C29   A    
C62   C63   A    
C45   C56   S    
O7    P7    S    
C14   C15   A    
C28   H50   S    
C34   H14   S    
C38   C48   A    
C10   C17   A    
C66   H22   S    
C52   O13   S    
O18   P3    S    
C12   H8    S    
C56   H19   S    
C66   H24   S    
C5    C6    A    
C8    C9    A    
C23   C34   S    
C61   C62   A    
C14   H31   S    
C38   C42   A    
C18   C19   A    
C24   C27   A    
C6    C8    A    
C47   C48   A    
C44   C54   A    
C25   C26   A    
C39   C43   A    
C20   C21   A    
C11   C25   A    
C66   O9    S    
C22   H35   S    
O12   P2    S    
Ba1   O5    S    
C16   H49   S    
O10   P6    S    
C30   C32   A    
C20   C36   A    
