data_mof_unit_689.cif
_audit_creation_date              2012-12-10T19:48:35-0500
_audit_creation_method            fapswitch 2.2
_symmetry_space_group_name_H-M    P1
_symmetry_Int_Tables_number       1
_space_group_crystal_system       triclinic
_cell_length_a                    13.332312
_cell_length_b                    14.286463
_cell_length_c                    15.078759
_cell_angle_alpha                 91.340489
_cell_angle_beta                  92.86383
_cell_angle_gamma                 70.481406
_cell_volume                      2703.57655784

loop_
_atom_site_label
_atom_site_type_symbol
_atom_type_description
_atom_site_fract_x
_atom_site_fract_y
_atom_site_fract_z
_atom_type_partial_charge
C1    C     C_R   0.498082 0.501705 0.671882 0.910482
C2    C     C_R   0.958121 0.489244 0.536266 0.081475
C3    C     C_R   0.873262 0.473732 0.486415 0.067942
C4    C     C_R   0.017552 0.543206 0.498209 -0.003353
C5    C     C_R   0.970958 0.606524 0.424304 -0.032878
C6    C     C_R   0.873539 0.602182 0.384612 0.013192
C7    C     C_R   0.836046 0.526768 0.407824 -0.250328
C8    C     C_R   0.124937 0.528607 0.526535 -0.078658
C9    C     C_R   0.125518 0.662956 0.428327 0.231938
C10   C     C_R   0.817772 0.415686 0.521885 -0.093577
C11   C     C_R   0.568525 0.461791 0.913233 -0.196181
C12   C     C_R   0.703268 0.445332 0.502328 0.858406
C13   C     C_R   0.568394 0.442426 0.822898 -0.057076
C14   C     C_R   0.489652 0.508630 0.767180 -0.143559
C15   C     C_R   0.407153 0.587794 0.804439 0.185516
C16   C     C_R   0.399931 0.594974 0.896041 -0.158822
C17   C     C_R   0.480688 0.531562 0.950087 0.078174
C18   C     C_R   0.468749 0.606681 0.099652 0.264461
C19   C     C_R   0.479148 0.594568 0.190487 -0.208271
C20   C     C_R   0.490217 0.502925 0.229559 -0.144868
C21   C     C_R   0.487182 0.421512 0.174894 -0.058444
C22   C     C_R   0.474954 0.434331 0.082039 -0.067231
C23   C     C_R   0.498591 0.499524 0.327098 0.891432
C24   C     C_R   0.469487 0.526172 0.045093 -0.001153
C25   C     C_R   0.527981 0.890422 0.574958 0.157712
C26   C     C_R   0.536129 0.788685 0.573247 0.057936
C27   C     C_R   0.459069 0.805197 0.427128 0.050793
C28   C     C_R   0.455285 0.905042 0.424563 -0.317559
C29   C     C_R   0.491495 0.949083 0.498316 0.079726
C30   C     C_R   0.410792 0.132627 0.457825 -0.326255
C31   C     C_R   0.416344 0.229754 0.457498 0.387279
C32   C     C_R   0.586412 0.173553 0.529352 0.346286
C33   C     C_R   0.585066 0.075572 0.525919 -0.249261
C34   C     C_R   0.296102 0.554966 0.499416 0.965267
C35   C     C_R   0.494611 0.053932 0.494885 0.070337
C36   C     C_R   0.025945 0.667065 0.390311 0.229738
C37   C     C_R   0.178960 0.587784 0.489792 -0.196767
C38   C     C_R   0.858884 0.360203 0.599012 -0.211924
C39   C     C_R   0.941160 0.377776 0.649730 0.023570
C40   C     C_R   0.978829 0.452135 0.623502 -0.260852
H1    H     H_    0.331817 0.649533 0.924950 0.204773
H2    H     H_    0.479592 0.658370 0.230497 0.195264
H3    H     H_    0.429865 0.773720 0.369748 0.169382
H4    H     H_    0.425778 0.947089 0.364337 0.162696
H5    H     H_    0.342117 0.118600 0.426823 0.182158
H6    H     H_    0.656232 0.015569 0.546777 0.204960
H7    H     H_    0.818480 0.314599 0.626868 0.207977
H8    H     H_    0.027759 0.477372 0.670783 0.160548
H9    H     H_    0.768201 0.518275 0.370003 0.144218
H10   H     H_    0.630466 0.413270 0.956726 0.144406
N1    N     N_R   0.500000 0.747530 0.500020 -0.123141
N2    N     N_R   0.499940 0.252470 0.500020 -0.128724
O1    O     O_R   0.499990 0.420530 0.630930 -0.613571
O2    O     O_R   0.499990 0.579480 0.630940 -0.592024
O3    O     O_R   0.653620 0.381060 0.499970 -0.569003
O4    O     O_R   0.653620 0.540010 0.499980 -0.635871
O5    O     O_R   0.500010 0.420520 0.369060 -0.582753
O6    O     O_R   0.500010 0.579470 0.369070 -0.636300
O7    O     O_R   0.346380 0.459990 0.500020 -0.577542
O8    O     O_R   0.346380 0.618940 0.500030 -0.556213
Zn1   Zn    Zn3+2 0.500000 0.393860 0.499990 1.027318
Zn2   Zn    Zn3+2 0.500000 0.606140 0.500010 0.995535
Br1   Br    Br    0.193112 0.753371 0.385437 -0.415350
C41   C     C_R   0.639802 0.343943 0.794837 0.130535
C42   C     C_R   0.595007 0.270365 0.770870 -0.061067
C43   C     C_R   0.658290 0.170374 0.769712 -0.111736
C44   C     C_R   0.766964 0.142669 0.792271 -0.067413
C45   C     C_R   0.812300 0.215211 0.815920 -0.132724
C46   C     C_R   0.749457 0.315520 0.816675 -0.189362
H11   H     H_    0.510076 0.289591 0.758612 0.140075
H12   H     H_    0.622500 0.114366 0.753149 0.190095
H13   H     H_    0.815652 0.065005 0.792659 0.155828
H14   H     H_    0.895246 0.193240 0.837120 0.168197
H15   H     H_    0.784614 0.370465 0.839621 0.138494
Br2   Br    Br    0.300573 0.686759 0.734725 -0.560216
Br3   Br    Br    0.459316 0.733991 0.053970 -0.601727
C47   C     C_R   0.497471 0.322429 0.210916 0.154133
C48   C     C_R   0.594313 0.262197 0.251005 -0.113882
C49   C     C_R   0.607122 0.164780 0.275144 -0.121008
C50   C     C_R   0.524912 0.126025 0.256541 -0.130339
C51   C     C_R   0.429750 0.184240 0.214657 -0.097782
C52   C     C_R   0.415273 0.282474 0.193219 -0.051588
H16   H     H_    0.659766 0.290480 0.262766 0.123507
H17   H     H_    0.681099 0.118975 0.307263 0.158051
H18   H     H_    0.533756 0.051287 0.274913 0.120812
H19   H     H_    0.366322 0.153913 0.200393 0.147544
H20   H     H_    0.340332 0.327226 0.161718 0.143416
C53   C     C_R   0.468651 0.350822 0.023237 0.127223
C54   C     C_R   0.371710 0.356161 0.979213 -0.161226
C55   C     C_R   0.362338 0.274032 0.931879 -0.191550
C56   C     C_R   0.450061 0.187085 0.926224 -0.122727
C57   C     C_R   0.547435 0.181889 0.968426 -0.100437
C58   C     C_R   0.556942 0.263371 0.016755 -0.145511
H21   H     H_    0.302760 0.422681 0.983964 0.141281
H22   H     H_    0.286876 0.277849 0.899673 0.154655
H23   H     H_    0.442605 0.123816 0.889077 0.158758
H24   H     H_    0.615420 0.114586 0.964001 0.147021
H25   H     H_    0.632362 0.258025 0.050314 0.125986
Br4   Br    Br    0.559706 0.949917 0.685021 -0.626180
C59   C     C_R   0.588172 0.727687 0.650967 0.175395
C60   C     C_R   0.536904 0.742015 0.731913 -0.033873
C61   C     C_R   0.590576 0.692991 0.808376 -0.099009
C62   C     C_R   0.695418 0.628922 0.804719 -0.131904
C63   C     C_R   0.747567 0.615910 0.725064 -0.154819
C64   C     C_R   0.694741 0.665605 0.648469 -0.092335
H26   H     H_    0.456382 0.793216 0.736079 0.185298
H27   H     H_    0.550963 0.704976 0.870504 0.192313
H28   H     H_    0.736828 0.590698 0.863911 0.137539
H29   H     H_    0.829776 0.569352 0.723647 0.142904
H30   H     H_    0.737668 0.657971 0.588136 0.137965
C65   C     C_R   0.798116 0.682373 0.330992 0.162684
C66   C     C_R   0.766706 0.664379 0.243767 -0.134412
C67   C     C_R   0.694925 0.741552 0.194218 -0.086352
C68   C     C_R   0.652642 0.836133 0.231975 -0.089957
C69   C     C_R   0.682232 0.853560 0.319501 -0.129139
C70   C     C_R   0.753661 0.776824 0.369234 -0.096033
H31   H     H_    0.799211 0.591402 0.213915 0.132781
H32   H     H_    0.672888 0.728127 0.126355 0.175131
H33   H     H_    0.597199 0.895641 0.193267 0.143889
H34   H     H_    0.650477 0.926167 0.349554 0.131478
H35   H     H_    0.775330 0.791130 0.437158 0.130326
Br5   Br    Br    0.310828 0.321106 0.381721 -0.552250
Br6   Br    Br    0.720640 0.184680 0.564200 -0.545588
Br7   Br    Br    0.982510 0.741127 0.280469 -0.441882
C71   C     C_R   0.185990 0.443930 0.586522 0.156184
C72   C     C_R   0.193381 0.345329 0.565190 -0.071109
C73   C     C_R   0.249306 0.267628 0.622075 -0.132444
C74   C     C_R   0.298415 0.287268 0.700722 -0.098556
C75   C     C_R   0.289473 0.384966 0.723652 -0.140351
C76   C     C_R   0.233166 0.462730 0.667133 -0.168229
H36   H     H_    0.153698 0.329034 0.505429 0.165286
H37   H     H_    0.254390 0.192180 0.605198 0.152735
H38   H     H_    0.342523 0.226712 0.744014 0.140995
H39   H     H_    0.325864 0.400904 0.785222 0.146808
H40   H     H_    0.223905 0.537892 0.686595 0.172127
C77   C     C_R   0.991809 0.317165 0.728038 0.138163
C78   C     C_R   0.002686 0.362161 0.810170 -0.176420
C79   C     C_R   0.060496 0.304594 0.881252 -0.154344
C80   C     C_R   0.109580 0.202225 0.870414 -0.138306
C81   C     C_R   0.100122 0.157079 0.788665 -0.150713
C82   C     C_R   0.040784 0.214123 0.717850 -0.140257
H41   H     H_    0.966933 0.441636 0.819054 0.121191
H42   H     H_    0.068498 0.339540 0.944430 0.141168
H43   H     H_    0.155330 0.157989 0.925238 0.149663
H44   H     H_    0.138695 0.077914 0.780164 0.166222
H45   H     H_    0.035488 0.178465 0.654438 0.157519

loop_
_geom_bond_atom_site_label_1
_geom_bond_atom_site_label_2
_ccdc_geom_bond_type
O6    Zn2   S    
C23   O6    A    
C15   Br2   S    
C64   H30   S    
C72   C73   A    
C34   C37   S    
C6    C65   S    
C30   H5    S    
C76   H40   S    
C31   N2    A    
C4    C8    A    
C74   C75   A    
C75   C76   A    
C68   C69   A    
C55   H22   S    
C47   C48   A    
C59   C64   A    
C77   C82   A    
C30   C35   A    
C18   C24   A    
C5    C6    A    
C47   C52   A    
C57   C58   A    
C28   C29   A    
C36   Br7   S    
C18   C19   A    
C3    C7    A    
N2    Zn1   S    
C49   H17   S    
C69   C70   A    
C5    C36   A    
O8    Zn2   S    
C44   H13   S    
C54   H21   S    
C1    O1    A    
C73   H37   S    
C66   C67   A    
C56   H23   S    
O1    Zn1   S    
C71   C76   A    
C25   Br4   S    
C32   N2    A    
C65   C66   A    
C16   C17   A    
C9    C36   A    
C65   C70   A    
C22   C53   S    
C68   H33   S    
C19   H2    S    
C43   C44   A    
C21   C22   A    
C63   H29   S    
C34   O8    A    
C33   H6    S    
C32   Br6   S    
N1    Zn2   S    
C74   H38   S    
C48   H16   S    
C63   C64   A    
C27   N1    A    
C57   H24   S    
C51   C52   A    
C39   C77   S    
C25   C29   A    
O7    Zn1   S    
C78   H41   S    
C70   H35   S    
C44   C45   A    
C17   C24   S    
C60   C61   A    
C46   H15   S    
C81   C82   A    
C7    H9    S    
C39   C40   A    
C48   C49   A    
C45   C46   A    
O2    Zn2   S    
C45   H14   S    
C28   H4    S    
C67   H32   S    
C42   H11   S    
C2    C4    A    
C1    O2    A    
C50   H18   S    
C27   H3    S    
C80   H43   S    
C43   H12   S    
C20   C23   S    
C30   C31   A    
C9    C37   A    
C61   H27   S    
C41   C46   A    
C20   C21   A    
C38   H7    S    
C12   O4    A    
C10   C12   S    
C82   H45   S    
C23   O5    A    
C42   C43   A    
C71   C72   A    
C22   C24   A    
C8    C37   A    
C73   C74   A    
C56   C57   A    
C67   C68   A    
C60   H26   S    
C40   H8    S    
C53   C58   A    
C11   C17   A    
C18   Br3   S    
C9    Br1   S    
C34   O7    A    
C51   H19   S    
C31   Br5   S    
C50   C51   A    
C81   H44   S    
C80   C81   A    
O5    Zn1   S    
C6    C7    A    
C78   C79   A    
C29   C35   S    
C10   C38   A    
C66   H31   S    
C79   H42   S    
C41   C42   A    
C58   H25   S    
C19   C20   A    
C2    C3    A    
C25   C26   A    
C11   H10   S    
C26   N1    A    
C32   C33   A    
C11   C13   A    
C55   C56   A    
C38   C39   A    
C13   C41   S    
C72   H36   S    
C15   C16   A    
O3    Zn1   S    
C59   C60   A    
C33   C35   A    
O4    Zn2   S    
C61   C62   A    
C75   H39   S    
C12   O3    A    
C79   C80   A    
C49   C50   A    
C2    C40   A    
C8    C71   S    
C4    C5    A    
C53   C54   A    
C69   H34   S    
C21   C47   S    
C62   C63   A    
C3    C10   A    
C14   C15   A    
C77   C78   A    
C62   H28   S    
C1    C14   S    
C54   C55   A    
C13   C14   A    
C16   H1    S    
C52   H20   S    
C26   C59   S    
C27   C28   A    
