data_mof_unit_4090.cif
_audit_creation_date              2012-12-10T16:57:16-0500
_audit_creation_method            fapswitch 2.2
_symmetry_space_group_name_H-M    P1
_symmetry_Int_Tables_number       1
_space_group_crystal_system       triclinic
_cell_length_a                    15.873519
_cell_length_b                    10.919429
_cell_length_c                    9.750191
_cell_angle_alpha                 90.576412
_cell_angle_beta                  90.507192
_cell_angle_gamma                 90.905785
_cell_volume                      1689.63298479

loop_
_atom_site_label
_atom_site_type_symbol
_atom_type_description
_atom_site_fract_x
_atom_site_fract_y
_atom_site_fract_z
_atom_type_partial_charge
C1    C     C_R   0.500625 0.265231 0.498910 0.875534
C2    C     C_3   0.950427 0.407694 0.604776 -0.383691
C3    C     C_3   0.916918 0.503008 0.501955 0.270199
C4    C     C_3   0.951444 0.631407 0.545292 -0.441299
C5    C     C_3   0.049160 0.633701 0.535157 0.342678
C6    C     C_1   0.824799 0.502039 0.501892 -0.082728
C7    C     C_1   0.175120 0.501600 0.499771 -0.074430
C8    C     C_1   0.250669 0.500830 0.499060 -0.167557
C9    C     C_2   0.510063 0.930875 0.387316 -0.261553
C10   C     C_2   0.509346 0.867005 0.503860 -0.376288
C11   C     C_2   0.519230 0.065883 0.385150 0.480337
C12   C     C_R   0.340352 0.500058 0.499617 0.821406
C13   C     C_2   0.496120 0.132370 0.495792 -0.395794
C14   C     C_2   0.443814 0.440371 0.921156 0.645726
C15   C     C_2   0.457356 0.421549 0.075225 0.091624
C16   C     C_R   0.501981 0.734637 0.500805 0.857675
C17   C     C_R   0.659618 0.500380 0.500457 0.806901
C18   C     C_3   0.047815 0.403385 0.600119 -0.400601
C19   C     C_3   0.047694 0.467064 0.356542 -0.474154
C20   C     C_3   0.949891 0.470643 0.356516 -0.382856
C21   C     C_1   0.749255 0.501223 0.501505 -0.171192
C22   C     C_3   0.082977 0.502323 0.501066 0.224438
Cu1   Cu    Cu3+1 0.500020 0.500020 0.638630 0.997888
Cu2   Cu    Cu3+1 0.499980 0.499980 0.361370 0.986266
H1    H     H_    0.923641 0.315305 0.579404 0.174524
H2    H     H_    0.074943 0.411256 0.704793 0.143400
H3    H     H_    0.929989 0.431285 0.710557 0.157978
H4    H     H_    0.924988 0.702112 0.476305 0.143840
H5    H     H_    0.506217 0.881884 0.290235 0.176368
H6    H     H_    0.518019 0.910490 0.603532 0.156700
H7    H     H_    0.468094 0.090143 0.584936 0.116817
H8    H     H_    0.428882 0.341656 0.122051 0.044739
H9    H     H_    0.066589 0.311053 0.563053 0.178746
H10   H     H_    0.072610 0.530991 0.278008 0.172727
H11   H     H_    0.068374 0.373706 0.326403 0.192373
H12   H     H_    0.923921 0.379951 0.322481 0.179833
H13   H     H_    0.928095 0.539733 0.281475 0.166374
H14   H     H_    0.062970 0.689051 0.442397 0.113836
H15   H     H_    0.929941 0.655345 0.650073 0.172559
N1    N     N_2   0.499090 0.498660 0.846910 -0.025707
N2    N     N_2   0.499070 0.498630 0.153040 -0.014440
O1    O     O_R   0.500010 0.321960 0.617040 -0.560158
O2    O     O_R   0.499990 0.321920 0.382900 -0.550276
O3    O     O_R   0.379450 0.500030 0.617120 -0.547677
O4    O     O_R   0.379420 0.499980 0.382980 -0.580960
O5    O     O_R   0.500010 0.678080 0.617100 -0.619130
O6    O     O_R   0.499990 0.678040 0.382960 -0.582258
O7    O     O_R   0.620580 0.500020 0.617020 -0.586007
O8    O     O_R   0.620550 0.499970 0.382880 -0.570041
O9    O     O_3   0.559393 0.124110 0.276263 -0.587796
C23   C     C_3   0.527186 0.085519 0.146562 0.080325
H16   H     H_    0.516216 0.168840 0.085206 0.159622
H17   H     H_    0.464907 0.036963 0.150850 0.112349
C24   C     C_3   0.592500 0.008830 0.070775 -0.342651
H18   H     H_    0.650437 0.065376 0.055444 0.230022
H19   H     H_    0.609989 0.928104 0.132543 0.207902
C25   C     C_3   0.558990 0.964767 0.931219 -0.938517
H20   H     H_    0.503031 0.903759 0.944350 0.265387
H21   H     H_    0.608453 0.912633 0.877259 0.248211
H22   H     H_    0.541354 0.044004 0.866993 0.263970
O10   O     O_3   0.375269 0.384555 0.855821 -0.629600
C26   C     C_3   0.298665 0.420223 0.916858 -0.003577
H23   H     H_    0.258970 0.460473 0.835238 0.176206
H24   H     H_    0.305474 0.491929 0.998992 0.127271
C27   C     C_3   0.252453 0.307617 0.972762 -0.339857
H25   H     H_    0.239459 0.241448 0.887502 0.227914
H26   H     H_    0.292679 0.262142 0.050192 0.207342
C28   C     C_3   0.169388 0.342490 0.039241 -0.941875
H27   H     H_    0.181372 0.405627 0.127538 0.260302
H28   H     H_    0.136845 0.258864 0.077159 0.256612
H29   H     H_    0.127629 0.387548 0.963613 0.250162
O11   O     O_3   0.577650 0.498612 0.903400 -0.531868
C29   C     C_3   0.620398 0.611049 0.877297 0.235494
H30   H     H_    0.604410 0.681961 0.953711 0.132149
H31   H     H_    0.604978 0.651633 0.778025 0.176108
C30   C     C_3   0.715453 0.590851 0.887518 -0.379341
H32   H     H_    0.731949 0.563909 0.993968 0.220553
H33   H     H_    0.733665 0.515195 0.817332 0.241302
C31   C     C_3   0.765582 0.706214 0.850923 -0.970805
H34   H     H_    0.752235 0.732368 0.743159 0.259522
H35   H     H_    0.834017 0.688619 0.861791 0.259342
H36   H     H_    0.749088 0.783072 0.920679 0.259847
O12   O     O_3   0.501812 0.612458 0.103114 -0.669382
H37   H     H_    0.543555 0.657344 0.160915 0.356135
O13   O     O_3   0.090567 0.701514 0.642472 -0.611993
C32   C     C_3   0.088988 0.644700 0.771898 0.077808
H38   H     H_    0.142962 0.581871 0.779528 0.143496
H39   H     H_    0.029235 0.594048 0.791453 0.132798
C33   C     C_3   0.099613 0.742995 0.883561 -0.314960
H40   H     H_    0.159047 0.795746 0.866746 0.228347
H41   H     H_    0.046060 0.807191 0.877746 0.218432
C34   C     C_3   0.102325 0.686573 0.026114 -0.972457
H42   H     H_    0.043596 0.632936 0.045116 0.253919
H43   H     H_    0.108202 0.760315 0.105014 0.261318
H44   H     H_    0.157421 0.625749 0.035827 0.261825

loop_
_geom_bond_atom_site_label_1
_geom_bond_atom_site_label_2
_ccdc_geom_bond_type
C2    C18   S    
C29   H30   S    
C19   C20   S    
C18   H2    S    
C17   O7    A    
C3    C6    S    
C7    C8    T    
O13   C32   S    
Cu1   O1    S    
Cu2   O4    S    
C30   H33   S    
C32   H39   S    
C25   H21   S    
Cu1   N1    S    
N2    O12   S    
C26   H24   S    
C1    O2    A    
C5    C22   S    
C28   H27   S    
C27   H26   S    
Cu1   Cu2   S    
C30   C31   S    
C2    H3    S    
C33   H41   S    
C9    C10   D    
C9    H5    S    
C5    O13   S    
Cu1   O5    S    
C5    H14   S    
Cu2   N2    S    
C29   H31   S    
C16   O6    A    
C4    H4    S    
C24   H19   S    
C23   H16   S    
C14   O10   S    
C19   C22   S    
C30   H32   S    
C15   N2    D    
C16   O5    A    
C31   H35   S    
C32   H38   S    
O11   C29   S    
C25   H22   S    
C6    C21   T    
C32   C33   S    
C34   H44   S    
C17   C21   S    
Cu1   O3    S    
C23   H17   S    
C26   H23   S    
C10   H6    S    
O12   H37   S    
C4    H15   S    
C8    C12   S    
C27   C28   S    
C34   H43   S    
O9    C23   S    
C3    C20   S    
C33   C34   S    
C9    C11   S    
C29   C30   S    
C1    C13   S    
C17   O8    A    
C3    C4    S    
Cu2   O8    S    
C24   H18   S    
Cu1   O7    S    
N1    O11   S    
C26   C27   S    
C18   C22   S    
Cu2   O6    S    
C13   H7    S    
C12   O4    A    
C19   H10   S    
C15   H8    S    
C31   H36   S    
C7    C22   S    
C23   C24   S    
C2    C3    S    
C12   O3    A    
C11   O9    S    
C10   C16   S    
C20   H13   S    
C11   C13   D    
C25   H20   S    
C28   H29   S    
C34   H42   S    
C2    H1    S    
O10   C26   S    
C18   H9    S    
C14   N1    D    
C31   H34   S    
C20   H12   S    
C1    O1    A    
C4    C5    S    
C28   H28   S    
C27   H25   S    
Cu2   O2    S    
C14   C15   S    
C19   H11   S    
C33   H40   S    
C24   C25   S    
