data_mof_unit_762.cif
_audit_creation_date              2012-12-11T15:57:08-0500
_audit_creation_method            fapswitch 2.2
_symmetry_space_group_name_H-M    P1
_symmetry_Int_Tables_number       1
_space_group_crystal_system       triclinic
_cell_length_a                    17.438079
_cell_length_b                    24.32669
_cell_length_c                    15.049677
_cell_angle_alpha                 89.972786
_cell_angle_beta                  126.258144
_cell_angle_gamma                 90.023064
_cell_volume                      5147.99430705

loop_
_atom_site_label
_atom_site_type_symbol
_atom_type_description
_atom_site_fract_x
_atom_site_fract_y
_atom_site_fract_z
_atom_type_partial_charge
C1    C     C_R   0.308053 0.123670 0.906743 -0.135566
C2    C     C_R   0.308173 0.876123 0.906871 -0.136500
C3    C     C_R   0.808145 0.623801 0.906821 -0.135307
C4    C     C_R   0.808064 0.376278 0.906783 -0.137005
C5    C     C_R   0.648477 0.152359 0.092121 -0.149731
C6    C     C_R   0.649033 0.847817 0.092066 -0.150568
C7    C     C_R   0.148532 0.652327 0.092189 -0.149437
C8    C     C_R   0.148976 0.347786 0.092002 -0.150845
C9    C     C_R   0.557238 0.847661 0.908841 -0.134838
C10   C     C_R   0.556134 0.152801 0.909136 -0.167963
C11   C     C_R   0.057229 0.347672 0.908795 -0.134434
C12   C     C_R   0.056141 0.652813 0.909186 -0.168318
C13   C     C_R   0.544497 0.000679 0.720450 0.016601
C14   C     C_R   0.044493 0.500681 0.720447 0.016533
C15   C     C_R   0.824296 0.000386 0.271052 0.025640
C16   C     C_R   0.324336 0.499626 0.271345 0.026083
C17   C     C_R   0.616824 0.184394 0.000814 -0.002012
C18   C     C_R   0.618078 0.816095 0.000589 -0.010636
C19   C     C_R   0.116857 0.684382 0.000910 -0.002092
C20   C     C_R   0.118041 0.316083 0.000500 -0.010559
C21   C     C_3   0.032175 0.949740 0.489270 -0.167266
C22   C     C_3   0.021436 0.037648 0.514281 -0.157672
C23   C     C_3   0.521212 0.463310 0.515439 -0.156197
C24   C     C_3   0.533086 0.550669 0.487709 -0.167475
C25   C     C_3   0.954262 0.988096 0.471184 -0.134867
C26   C     C_3   0.454726 0.513182 0.470964 -0.136656
C27   C     C_3   0.925536 0.000576 0.355219 0.189092
C28   C     C_3   0.425620 0.499418 0.355318 0.188016
C29   C     C_3   0.002548 0.962140 0.372139 -0.164459
C30   C     C_3   0.992230 0.050309 0.397691 -0.165420
C31   C     C_3   0.491663 0.449367 0.399212 -0.170615
C32   C     C_3   0.503063 0.536981 0.370872 -0.156388
C33   C     C_3   0.071863 0.011982 0.417061 -0.145874
C34   C     C_3   0.571717 0.486813 0.417220 -0.144986
C35   C     C_R   0.401680 0.876169 0.091897 -0.137601
C36   C     C_R   0.401564 0.123740 0.091776 -0.138022
C37   C     C_R   0.901584 0.376228 0.091829 -0.137486
C38   C     C_R   0.901648 0.623790 0.091837 -0.138102
C39   C     C_3   0.098963 0.999396 0.532069 0.189758
C40   C     C_3   0.599184 0.500686 0.531904 0.189831
C41   C     C_3   0.255079 0.820625 0.103505 -0.401440
C42   C     C_3   0.254987 0.179490 0.103025 -0.395414
C43   C     C_3   0.754639 0.320799 0.103140 -0.401408
C44   C     C_3   0.755373 0.679641 0.103348 -0.395388
C45   C     C_3   0.700382 0.271001 0.103521 -0.408777
C46   C     C_3   0.701766 0.729691 0.103871 -0.406271
C47   C     C_3   0.200733 0.770872 0.103842 -0.408856
C48   C     C_3   0.201455 0.229577 0.103586 -0.406237
C49   C     C_3   0.800627 0.264454 0.999568 -0.395662
C50   C     C_3   0.801221 0.735634 0.999124 -0.399076
C51   C     C_3   0.300552 0.764348 0.999359 -0.396033
C52   C     C_3   0.301280 0.235544 0.999300 -0.398759
C53   C     C_3   0.148968 0.820733 0.896781 -0.403150
C54   C     C_3   0.149203 0.179568 0.896314 -0.403527
C55   C     C_3   0.648897 0.320693 0.896416 -0.404416
C56   C     C_3   0.649267 0.679534 0.896637 -0.402343
C57   C     C_3   0.254376 0.818780 0.999649 0.402820
C58   C     C_3   0.254544 0.181256 0.999348 0.399131
C59   C     C_3   0.754223 0.318874 0.999484 0.403325
C60   C     C_3   0.754679 0.681336 0.999496 0.398614
C61   C     C_3   0.663121 0.234700 0.000600 0.407009
C62   C     C_3   0.664126 0.765733 0.000476 0.402741
C63   C     C_3   0.163204 0.734659 0.000742 0.407515
C64   C     C_3   0.164046 0.265696 0.000347 0.402284
C65   C     C_3   0.747809 0.215268 0.001229 -0.397365
C66   C     C_3   0.748484 0.784972 0.000288 -0.393173
C67   C     C_3   0.247711 0.715187 0.001044 -0.397588
C68   C     C_3   0.248561 0.284903 0.000443 -0.392936
C69   C     C_3   0.595217 0.270491 0.896410 -0.404908
C70   C     C_3   0.595804 0.729779 0.896745 -0.407284
C71   C     C_3   0.095250 0.770545 0.896732 -0.405759
C72   C     C_3   0.095769 0.229824 0.896457 -0.406485
C73   C     C_3   0.559893 0.062193 0.597375 0.327871
C74   C     C_3   0.645388 0.970281 0.660109 0.329881
C75   C     C_3   0.059885 0.562194 0.597369 0.328131
C76   C     C_3   0.145381 0.470282 0.660104 0.329641
C77   C     C_R   0.547883 0.046317 0.302663 -0.156211
C78   C     C_R   0.546752 0.954852 0.303788 -0.164551
C79   C     C_R   0.047887 0.546315 0.302666 -0.156898
C80   C     C_R   0.046740 0.454849 0.303780 -0.163680
C81   C     C_3   0.574250 0.061359 0.506700 -0.523527
C82   C     C_3   0.644410 0.966476 0.556509 -0.534349
C83   C     C_3   0.074235 0.561358 0.506688 -0.523647
C84   C     C_3   0.144402 0.466478 0.556505 -0.533865
C85   C     C_3   0.464738 0.973742 0.528509 -0.333851
C86   C     C_3   0.964730 0.473742 0.528505 -0.334470
C87   C     C_3   0.554698 0.001726 0.629869 0.233098
C88   C     C_3   0.054691 0.501728 0.629864 0.233395
C89   C     C_3   0.562067 0.001937 0.462651 0.309997
C90   C     C_3   0.062056 0.501935 0.462645 0.309803
C91   C     C_3   0.465310 0.978680 0.428283 -0.394956
C92   C     C_3   0.965300 0.478678 0.428278 -0.394890
C93   C     C_R   0.239724 0.953794 0.697267 -0.148126
C94   C     C_R   0.239882 0.045765 0.696278 -0.146303
C95   C     C_R   0.739972 0.454268 0.696166 -0.158792
C96   C     C_R   0.739849 0.546235 0.697190 -0.136053
C97   C     C_R   0.311378 0.136744 0.999022 -0.010526
C98   C     C_R   0.311514 0.863102 0.999205 -0.010549
C99   C     C_R   0.811502 0.636847 0.999124 -0.010157
C100  C     C_R   0.811370 0.363225 0.999093 -0.010899
C101  C     C_R   0.559301 0.001124 0.363767 0.065801
C102  C     C_R   0.059291 0.501121 0.363761 0.065792
C103  C     C_R   0.190711 0.999621 0.637541 0.038225
C104  C     C_R   0.690915 0.500431 0.637365 0.038637
C105  C     C_R   0.520717 0.046295 0.754285 -0.088586
C106  C     C_R   0.517320 0.954164 0.749126 -0.101464
C107  C     C_R   0.020717 0.546297 0.754287 -0.088228
C108  C     C_R   0.017316 0.454165 0.749121 -0.101634
C109  C     C_R   0.769367 0.954026 0.246921 -0.138987
C110  C     C_R   0.769175 0.046386 0.247628 -0.132004
C111  C     C_R   0.269187 0.453618 0.247795 -0.127012
C112  C     C_R   0.269397 0.545991 0.247019 -0.143839
H1    H     H_    0.251506 0.131738 0.821447 0.089152
H2    H     H_    0.251703 0.867842 0.821681 0.088513
H3    H     H_    0.751684 0.632074 0.821616 0.089045
H4    H     H_    0.751489 0.368239 0.821490 0.088723
H5    H     H_    0.049340 0.908524 0.528348 0.101265
H6    H     H_    0.030660 0.068369 0.574484 0.105593
H7    H     H_    0.530135 0.433346 0.576627 0.106035
H8    H     H_    0.550829 0.592208 0.525470 0.102586
H9    H     H_    0.991983 0.931543 0.311108 0.106804
H10   H     H_    0.973878 0.091331 0.357712 0.103495
H11   H     H_    0.472820 0.408018 0.360574 0.102481
H12   H     H_    0.492793 0.566821 0.308851 0.107383
H13   H     H_    0.123261 0.021647 0.398519 0.112594
H14   H     H_    0.622868 0.476133 0.398828 0.107966
H15   H     H_    0.328617 0.819055 0.180537 0.145120
H16   H     H_    0.328446 0.180655 0.180226 0.146511
H17   H     H_    0.828109 0.319360 0.180306 0.144947
H18   H     H_    0.828893 0.680918 0.180433 0.146640
H19   H     H_    0.222049 0.859480 0.104694 0.153164
H20   H     H_    0.221190 0.140851 0.103750 0.155576
H21   H     H_    0.721385 0.359628 0.104011 0.153162
H22   H     H_    0.721769 0.640979 0.104350 0.155648
H23   H     H_    0.140453 0.785105 0.104539 0.151978
H24   H     H_    0.141204 0.215734 0.104707 0.153484
H25   H     H_    0.639974 0.285191 0.104005 0.152116
H26   H     H_    0.641626 0.715812 0.105176 0.153385
H27   H     H_    0.749776 0.247505 0.180717 0.145093
H28   H     H_    0.751720 0.753275 0.180742 0.146387
H29   H     H_    0.250141 0.747304 0.180929 0.145398
H30   H     H_    0.251397 0.253098 0.180554 0.146084
H31   H     H_    0.876396 0.262445 0.072869 0.153683
H32   H     H_    0.876977 0.737665 0.072451 0.153251
H33   H     H_    0.376378 0.762264 0.072506 0.153760
H34   H     H_    0.376986 0.237511 0.072760 0.153206
H35   H     H_    0.797793 0.190086 0.076050 0.153994
H36   H     H_    0.798582 0.810410 0.074620 0.152939
H37   H     H_    0.297730 0.689945 0.075753 0.153987
H38   H     H_    0.298628 0.310289 0.074873 0.153038
H39   H     H_    0.143144 0.819952 0.819245 0.143631
H40   H     H_    0.143602 0.180476 0.818915 0.146280
H41   H     H_    0.643299 0.319820 0.819021 0.143433
H42   H     H_    0.643468 0.680362 0.819115 0.146486
H43   H     H_    0.431620 0.868318 0.177061 0.088935
H44   H     H_    0.431454 0.131660 0.176893 0.089491
H45   H     H_    0.931481 0.368353 0.176975 0.088827
H46   H     H_    0.931577 0.631690 0.176970 0.089587
H47   H     H_    0.114765 0.859304 0.896930 0.154352
H48   H     H_    0.114661 0.141039 0.896065 0.153057
H49   H     H_    0.614517 0.359258 0.896243 0.153946
H50   H     H_    0.614876 0.641001 0.896668 0.153419
H51   H     H_    0.033394 0.784268 0.894760 0.152191
H52   H     H_    0.034043 0.216176 0.894847 0.150148
H53   H     H_    0.533239 0.284200 0.894205 0.152174
H54   H     H_    0.534183 0.716122 0.895337 0.150166
H55   H     H_    0.567474 0.246782 0.819909 0.145744
H56   H     H_    0.567529 0.753317 0.819899 0.151330
H57   H     H_    0.067325 0.746906 0.820108 0.145829
H58   H     H_    0.067652 0.253422 0.819717 0.151299
H59   H     H_    0.799747 0.261984 0.925055 0.152198
H60   H     H_    0.800405 0.737878 0.924633 0.156828
H61   H     H_    0.299451 0.761926 0.924694 0.152012
H62   H     H_    0.300656 0.237831 0.924942 0.156983
H63   H     H_    0.722407 0.188901 0.928132 0.151715
H64   H     H_    0.722756 0.811028 0.926677 0.169477
H65   H     H_    0.222121 0.688870 0.927832 0.151544
H66   H     H_    0.222996 0.311002 0.926932 0.169574
H67   H     H_    0.621511 0.083703 0.670997 0.001338
H68   H     H_    0.709214 0.994048 0.725519 0.025887
H69   H     H_    0.121506 0.583703 0.670989 0.000986
H70   H     H_    0.209207 0.494048 0.725516 0.025838
H71   H     H_    0.646352 0.077178 0.539271 0.126677
H72   H     H_    0.713729 0.980990 0.577118 0.136854
H73   H     H_    0.146335 0.577180 0.539253 0.126256
H74   H     H_    0.213720 0.480995 0.577114 0.137054
H75   H     H_    0.521342 0.089637 0.439892 0.189959
H76   H     H_    0.635278 0.922975 0.529064 0.195133
H77   H     H_    0.021321 0.589634 0.439877 0.190078
H78   H     H_    0.135275 0.422977 0.529062 0.195274
H79   H     H_    0.398613 0.992736 0.509969 0.187227
H80   H     H_    0.462635 0.929367 0.544922 0.166891
H81   H     H_    0.898603 0.492735 0.509964 0.187465
H82   H     H_    0.962625 0.429368 0.544920 0.166685
H83   H     H_    0.564534 0.088707 0.328744 0.086761
H84   H     H_    0.559417 0.912668 0.331762 0.087648
H85   H     H_    0.064555 0.588703 0.328761 0.086667
H86   H     H_    0.059388 0.412664 0.331743 0.087677
H87   H     H_    0.406512 0.006313 0.366364 0.179603
H88   H     H_    0.451129 0.937371 0.389580 0.147378
H89   H     H_    0.906500 0.506308 0.366356 0.179791
H90   H     H_    0.951122 0.437367 0.389580 0.147216
H91   H     H_    0.225867 0.911761 0.668340 0.085032
H92   H     H_    0.225326 0.087682 0.666538 0.093995
H93   H     H_    0.725396 0.412358 0.666435 0.090584
H94   H     H_    0.726074 0.588285 0.668323 0.088408
H95   H     H_    0.531867 0.089088 0.746908 0.124725
H96   H     H_    0.521285 0.911734 0.731199 0.145128
H97   H     H_    0.031869 0.589091 0.746917 0.124632
H98   H     H_    0.021276 0.411737 0.731184 0.145121
H99   H     H_    0.793066 0.911789 0.263045 0.097750
H100  H     H_    0.792233 0.088732 0.263968 0.092878
H101  H     H_    0.292202 0.411271 0.264153 0.092167
H102  H     H_    0.293087 0.588236 0.263055 0.098289
H103  H     H_    0.691180 0.165209 0.177277 0.083016
H104  H     H_    0.691671 0.834883 0.177187 0.085107
H105  H     H_    0.191349 0.665105 0.177393 0.083223
H106  H     H_    0.191498 0.334782 0.177074 0.084885
H107  H     H_    0.514430 0.835064 0.823560 0.083695
H108  H     H_    0.512436 0.165745 0.824032 0.091974
H109  H     H_    0.014400 0.335091 0.823504 0.083592
H110  H     H_    0.012469 0.665773 0.824091 0.092063
H111  H     H_    0.904503 0.978367 0.492251 0.109682
H112  H     H_    0.405249 0.523931 0.491929 0.109624
N1    N     N_R   0.392450 0.103580 0.942190 -0.034800
N2    N     N_R   0.392450 0.896420 0.942190 -0.036431
N3    N     N_R   0.892450 0.603580 0.942190 -0.035046
N4    N     N_R   0.892450 0.396420 0.942190 -0.036183
N5    N     N_R   0.450490 0.896000 0.057360 -0.035427
N6    N     N_R   0.450490 0.104000 0.057360 -0.035770
N7    N     N_R   0.950490 0.396000 0.057360 -0.035474
N8    N     N_R   0.950490 0.604000 0.057360 -0.035728
N9    N     N_R   0.525490 0.028390 0.207550 -0.033782
N10   N     N_R   0.525490 0.971610 0.207550 -0.032718
N11   N     N_R   0.025490 0.528390 0.207550 -0.033699
N12   N     N_R   0.025490 0.471610 0.207550 -0.032823
N13   N     N_R   0.317450 0.971190 0.792000 -0.034907
N14   N     N_R   0.317450 0.028810 0.792000 -0.034514
N15   N     N_R   0.817450 0.471190 0.792000 -0.034494
N16   N     N_R   0.817450 0.528810 0.792000 -0.034900
N17   N     N_R   0.473900 0.028390 0.792280 -0.044903
N18   N     N_R   0.473900 0.971610 0.792280 -0.054384
N19   N     N_R   0.973900 0.528390 0.792280 -0.044922
N20   N     N_R   0.973900 0.471610 0.792280 -0.054278
N21   N     N_R   0.682310 0.971180 0.208170 -0.039309
N22   N     N_R   0.682310 0.028820 0.208170 -0.039743
N23   N     N_R   0.182310 0.471180 0.208170 -0.039483
N24   N     N_R   0.182310 0.528820 0.208170 -0.039546
N25   N     N_R   0.606470 0.103570 0.057210 -0.032003
N26   N     N_R   0.606470 0.896430 0.057210 -0.031731
N27   N     N_R   0.106470 0.603570 0.057210 -0.031716
N28   N     N_R   0.106470 0.396430 0.057210 -0.032072
N29   N     N_R   0.549740 0.896000 0.943240 -0.034512
N30   N     N_R   0.549740 0.104000 0.943240 -0.035382
N31   N     N_R   0.049740 0.396000 0.943240 -0.034515
N32   N     N_R   0.049740 0.604000 0.943240 -0.035424
Ni1   Ni    Ni4+2 0.433780 0.065390 0.868430 0.214548
Ni2   Ni    Ni4+2 0.433780 0.934610 0.868430 0.203253
Ni3   Ni    Ni4+2 0.933780 0.565390 0.868430 0.214776
Ni4   Ni    Ni4+2 0.933780 0.434610 0.868430 0.203089
Ni5   Ni    Ni4+2 0.565800 0.934190 0.131570 0.206245
Ni6   Ni    Ni4+2 0.565800 0.065810 0.131570 0.204820
Ni7   Ni    Ni4+2 0.065800 0.434190 0.131570 0.206739
Ni8   Ni    Ni4+2 0.065800 0.565810 0.131570 0.204304
O1    O     O_3   0.474927 0.090776 0.557760 -0.764372
H113  H     H_    0.489953 0.130614 0.564553 0.303366
O2    O     O_3   0.649532 0.917214 0.699725 -0.777271
H114  H     H_    0.715478 0.903748 0.735879 0.312840
O3    O     O_3   0.974922 0.590778 0.557760 -0.763716
H115  H     H_    0.989949 0.630616 0.564554 0.303351
O4    O     O_3   0.149524 0.417215 0.699721 -0.777142
H116  H     H_    0.215460 0.403741 0.735838 0.312978

loop_
_geom_bond_atom_site_label_1
_geom_bond_atom_site_label_2
_ccdc_geom_bond_type
C16   C112  A    
C16   C28   S    
N6    Ni6   S    
C95   H93   S    
N11   Ni8   S    
C79   H85   S    
C55   C59   S    
C27   C29   S    
C96   N16   A    
C80   N12   A    
C77   C101  A    
N15   N16   A    
N20   Ni4   S    
C60   C99   S    
N21   Ni5   S    
C76   C84   S    
C69   H55   S    
C47   H23   S    
C85   C91   S    
C10   H108  S    
C32   H12   S    
C83   H77   S    
C85   H80   S    
C11   H109  S    
C33   C39   S    
C82   C89   S    
N17   Ni1   S    
C46   C62   S    
C12   N32   A    
C64   C68   S    
C42   H16   S    
C24   C26   S    
C73   O1    S    
C70   H54   S    
C86   H81   S    
C106  H96   S    
C54   H40   S    
C86   C88   S    
C48   C64   S    
C5    C17   A    
C51   H33   S    
C10   C17   A    
C1    N1    A    
O4    H116  S    
C5    H103  S    
C76   O4    S    
C82   H72   S    
C85   H79   S    
C45   H27   S    
C52   H34   S    
C62   C70   S    
N14   Ni1   S    
C37   N7    A    
N17   N18   A    
C23   C26   S    
C37   H45   S    
C35   H43   S    
C43   H21   S    
N23   N24   A    
C15   C109  A    
C90   C102  S    
C7    C19   A    
C21   H5    S    
C42   C58   S    
N28   Ni7   S    
C17   C61   S    
C84   H74   S    
N29   Ni2   S    
C94   N14   A    
N10   Ni5   S    
C73   C87   S    
C30   H10   S    
C29   C33   S    
C93   N13   A    
C22   C25   S    
C29   H9    S    
N19   N20   A    
C71   H51   S    
C106  N18   A    
C11   N31   A    
N11   N12   A    
C71   H57   S    
C79   C102  A    
C84   H78   S    
C36   C97   A    
C51   C57   S    
C112  H102  S    
C74   C87   S    
C89   C91   S    
C35   C98   A    
N8    Ni8   S    
O1    H113  S    
C76   C88   S    
C66   H36   S    
O3    H115  S    
N22   Ni6   S    
C37   C100  A    
N3    Ni3   S    
N27   Ni8   S    
C46   H26   S    
C91   H87   S    
C34   H14   S    
C110  N22   A    
N26   N29   A    
C14   C108  A    
N3    N8    A    
C42   H20   S    
C94   H92   S    
C109  N21   A    
N25   N30   A    
C30   C33   S    
N13   N14   A    
C65   H63   S    
C27   C30   S    
C59   C100  S    
N18   Ni2   S    
C15   C110  A    
C66   H64   S    
C58   C97   S    
C84   C90   S    
C74   C82   S    
C76   H70   S    
C3    H3    S    
C33   H13   S    
C4    H4    S    
C105  H95   S    
N16   Ni3   S    
C85   C87   S    
C44   H22   S    
C90   C92   S    
C6    C18   A    
C63   C67   S    
C11   C20   A    
C53   H47   S    
C6    H104  S    
C24   H8    S    
C6    N26   A    
C75   C83   S    
C5    N25   A    
N15   Ni4   S    
C28   C32   S    
C8    H106  S    
C55   H49   S    
C56   H42   S    
C67   H65   S    
C3    N3    A    
C19   C63   S    
C49   H59   S    
C62   C66   S    
C18   C62   S    
C95   N15   A    
C44   C46   S    
N30   Ni1   S    
C23   C31   S    
C21   C29   S    
C45   C61   S    
C56   C60   S    
C56   H50   S    
C7    N27   A    
C35   N5    A    
C72   H58   S    
C20   C64   S    
C42   C48   S    
C57   C98   S    
C24   C32   S    
N26   Ni5   S    
N23   Ni7   S    
C4    N4    A    
C70   H56   S    
N2    Ni2   S    
C40   C104  S    
C50   C66   S    
C74   O2    S    
C9    C18   A    
C15   C27   S    
C21   C39   S    
C36   H44   S    
C43   H17   S    
C78   N10   A    
C80   H86   S    
C13   C87   S    
C77   N9    A    
C41   C47   S    
C31   C34   S    
C48   H30   S    
N19   Ni3   S    
C52   C58   S    
C43   C45   S    
C38   H46   S    
C55   C69   S    
C49   C65   S    
C73   C81   S    
N28   N31   A    
C91   H88   S    
C13   C105  A    
C14   C107  A    
C8    C20   A    
C63   C71   S    
C94   C103  A    
C56   C70   S    
C72   H52   S    
C50   H32   S    
C26   H112  S    
N25   Ni6   S    
C34   C40   S    
C65   H35   S    
C74   H68   S    
C81   H71   S    
C54   H48   S    
C1    C97   A    
C41   H15   S    
C53   C71   S    
C52   H62   S    
C13   C106  A    
C92   H90   S    
C95   C104  A    
C2    N2    A    
C46   H28   S    
C45   H25   S    
N9    N10   A    
C12   H110  S    
C61   C69   S    
C80   C102  A    
C22   H6    S    
C83   C90   S    
C21   C25   S    
N31   Ni4   S    
C8    N28   A    
C53   C57   S    
C22   C30   S    
C108  N20   A    
C89   C101  S    
C10   N30   A    
C78   H84   S    
C111  N23   A    
C48   H24   S    
C28   C31   S    
C110  H100  S    
C96   H94   S    
C111  H101  S    
C73   H67   S    
N21   N22   A    
C38   C99   A    
C52   C68   S    
C61   C65   S    
C51   H61   S    
C108  H98   S    
O2    H114  S    
N4    Ni4   S    
C39   C103  S    
C107  H97   S    
C43   C59   S    
C25   C27   S    
N2    N5    A    
C75   O3    S    
C31   H11   S    
C47   H29   S    
C26   C28   S    
N1    N6    A    
C49   C59   S    
C4    C100  A    
C67   H37   S    
C50   C60   S    
C82   H76   S    
N1    Ni1   S    
C96   C104  A    
C77   H83   S    
C25   H111  S    
C41   C57   S    
C86   C92   S    
C86   H82   S    
C47   C63   S    
C2    H2    S    
C9    H107  S    
N27   N32   A    
C51   C67   S    
N7    Ni7   S    
C44   C60   S    
C22   C39   S    
C49   H31   S    
C12   C19   A    
C68   H66   S    
C24   C40   S    
N24   Ni8   S    
C81   H75   S    
C112  N24   A    
C9    N29   A    
C1    H1    S    
C81   C89   S    
C107  N19   A    
C93   H91   S    
C69   H53   S    
C64   C72   S    
C68   H38   S    
C79   N11   A    
C7    H105  S    
C3    C99   A    
C75   C88   S    
C41   H19   S    
C54   C72   S    
N32   Ni3   S    
C2    C98   A    
N12   Ni7   S    
C36   N6    A    
N9    Ni6   S    
C54   C58   S    
N13   Ni2   S    
C53   H39   S    
C83   H73   S    
C23   H7    S    
C50   H60   S    
N5    Ni5   S    
C38   N8    A    
C14   C88   S    
C109  H99   S    
C44   H18   S    
C105  N17   A    
N4    N7    A    
C55   H41   S    
C92   H89   S    
C23   C40   S    
C16   C111  A    
C32   C34   S    
C93   C103  A    
C78   C101  A    
C75   H69   S    
