data_mof_unit_1014.cif
_audit_creation_date              2013-03-05T16:34:12-0500
_audit_creation_method            fapswitch 2.2
_symmetry_space_group_name_H-M    P1
_symmetry_Int_Tables_number       1
_space_group_crystal_system       triclinic
_cell_length_a                    10.919358
_cell_length_b                    10.87658
_cell_length_c                    9.567427
_cell_angle_alpha                 91.078395
_cell_angle_beta                  91.059638
_cell_angle_gamma                 91.132623
_cell_volume                      1135.65254369

loop_
_atom_site_label
_atom_site_type_symbol
_atom_site_description
_atom_site_fract_x
_atom_site_fract_y
_atom_site_fract_z
_atom_type_partial_charge
O1    O     O_R   0.500000 0.319640 0.618810 -0.588848
O2    O     O_R   0.500010 0.319680 0.381230 -0.555071
C1    C     C_R   0.499950 0.262389 0.498382 0.798506
O3    O     O_R   0.319640 0.499990 0.618790 -0.500513
O4    O     O_R   0.319650 0.500030 0.381210 -0.628832
C2    C     C_R   0.262395 0.497483 0.498422 0.853566
Cu1   Cu    Cu3+1 0.499990 0.499980 0.640670 0.996742
Cu2   Cu    Cu3+1 0.500010 0.500020 0.359330 0.951953
O5    O     O_R   0.499990 0.680320 0.618770 -0.562360
O6    O     O_R   0.500000 0.680360 0.381190 -0.591545
O7    O     O_R   0.680350 0.499970 0.618790 -0.575823
O8    O     O_R   0.680360 0.500010 0.381210 -0.599759
C3    C     C_R   0.499034 0.737595 0.500569 0.833034
C4    C     C_R   0.737764 0.496395 0.501394 0.804041
C5    C     C_R   0.208025 0.768914 0.141652 0.357121
C6    C     C_R   0.151662 0.718876 0.258696 -0.137382
H1    H     H_    0.135922 0.777046 0.349529 0.164420
C7    C     C_R   0.118098 0.593950 0.260383 0.080582
C8    C     C_R   0.143476 0.517706 0.145420 -0.204992
H2    H     H_    0.119493 0.420614 0.146421 0.156983
C9    C     C_R   0.197800 0.566776 0.027516 -0.109049
H3    H     H_    0.212494 0.507752 0.937351 0.201492
C10   C     C_R   0.226093 0.692514 0.021664 0.395384
C11   C     C_R   0.933279 0.539945 0.389444 -0.225341
H4    H     H_    0.882311 0.581572 0.305110 0.177155
C12   C     C_R   0.871883 0.490556 0.503117 -0.111137
C13   C     C_R   0.939651 0.436361 0.612958 -0.029845
C14   C     C_R   0.068385 0.431171 0.604819 0.408289
C15   C     C_R   0.128411 0.490310 0.495154 -0.107943
C16   C     C_R   0.060140 0.540957 0.384397 -0.046185
C17   C     C_R   0.894258 0.456551 0.871011 0.348506
C18   C     C_R   0.856712 0.397642 0.993444 -0.242595
H5    H     H_    0.866365 0.443473 0.094315 0.166382
C19   C     C_R   0.809053 0.277743 0.988311 -0.137639
H6    H     H_    0.782566 0.233397 0.083765 0.163499
C20   C     C_R   0.797553 0.214193 0.860973 -0.118408
H7    H     H_    0.764953 0.119605 0.858394 0.147410
C21   C     C_R   0.831680 0.270864 0.737676 -0.214267
H8    H     H_    0.824982 0.218928 0.639975 0.133729
C22   C     C_R   0.881305 0.391044 0.741093 0.020016
C23   C     C_R   0.446685 0.065658 0.607623 0.084717
C24   C     C_R   0.492453 0.128821 0.492961 -0.207247
C25   C     C_R   0.523897 0.060068 0.371421 0.417729
C26   C     C_R   0.516978 0.932212 0.373407 -0.189192
H9    H     H_    0.541908 0.881771 0.280183 0.174704
C27   C     C_R   0.491972 0.870705 0.497721 -0.188318
C28   C     C_R   0.452375 0.938959 0.612121 0.147800
C29   C     C_3   0.499272 0.943047 0.759463 -0.454531
C30   C     C_3   0.482178 0.080440 0.758272 -0.435131
H10   H     H_    0.438862 0.894814 0.833241 0.225015
H11   H     H_    0.597813 0.920666 0.765219 0.188866
H12   H     H_    0.404001 0.110152 0.822635 0.219422
H13   H     H_    0.567920 0.134897 0.775467 0.208441
C31   C     C_R   0.534527 0.602968 0.076653 0.155426
N1    N     N_R   0.500790 0.500930 0.147930 -0.242922
C32   C     C_R   0.450012 0.403875 0.069300 0.449956
C33   C     C_R   0.453626 0.403266 0.921461 -0.060608
H14   H     H_    0.414592 0.325903 0.862874 0.174656
N2    N     N_R   0.500790 0.500890 0.852020 -0.221279
C34   C     C_R   0.531883 0.603949 0.929397 0.254643
C35   C     C_3   0.651379 0.670623 0.926448 -0.407183
C36   C     C_3   0.656176 0.666530 0.084694 -0.421400
H15   H     H_    0.719587 0.615550 0.872095 0.240281
H16   H     H_    0.643470 0.764900 0.888270 0.185952
H17   H     H_    0.728412 0.606742 0.126696 0.223179
H18   H     H_    0.652776 0.759025 0.134883 0.192173
O9    O     O_3   0.265814 0.737267 0.896301 -0.732216
H19   H     H_    0.239387 0.823521 0.888967 0.331174
O10   O     O_3   0.570148 0.112743 0.253178 -0.689021
H20   H     H_    0.632973 0.174925 0.284018 0.318261
O11   O     O_3   0.391138 0.306317 0.129498 -0.693988
H21   H     H_    0.345602 0.339763 0.209201 0.359274
O12   O     O_3   0.245178 0.890850 0.149617 -0.720042
H22   H     H_    0.311023 0.904712 0.081548 0.326798
O13   O     O_3   0.138671 0.369947 0.702595 -0.743819
H23   H     H_    0.087730 0.310542 0.754041 0.323510
N3    N     N_R   0.941939 0.581898 0.881204 0.100167
O14   O     O_R   0.936733 0.643131 0.999035 -0.411192
O15   O     O_R   0.975505 0.641752 0.771450 -0.355333

loop_
_geom_bond_atom_site_label_1
_geom_bond_atom_site_label_2
_geom_bond_distance
_ccdc_geom_bond_type
N1    C32   1.385372 A    
C1    C24   1.453347 S    
C23   C24   1.400086 A    
C8    H2    1.083240 S    
O13   H23   0.988448 S    
Cu1   Cu2   2.691711 S    
C31   C34   1.408861 A    
N3    O14   1.301267 A    
C32   C33   1.415606 A    
Cu1   O7    1.984357 S    
C12   C13   1.418179 A    
C20   H7    1.081664 S    
C8    C9    1.394300 A    
C11   C12   1.398393 A    
C7    C8    1.400099 A    
C21   H8    1.083588 S    
O7    C4    1.296702 A    
C33   N2    1.360763 A    
C10   O9    1.377127 S    
C5    C6    1.401471 A    
C17   C22   1.424374 A    
C19   H6    1.082199 S    
O12   H22   0.990213 S    
C23   C30   1.490510 S    
C35   H15   1.097351 S    
O5    C3    1.301313 A    
C31   N1    1.361648 A    
C29   H11   1.108485 S    
C28   C29   1.490462 S    
C6    H1    1.083605 S    
C7    C16   1.476351 S    
C30   H12   1.111400 S    
C5    C10   1.423463 A    
N2    C34   1.365370 A    
C25   O10   1.377386 S    
C9    H3    1.081843 S    
O10   H20   0.990830 S    
O3    Cu1   1.976549 S    
Cu2   N1    2.022940 S    
Cu1   N2    2.021771 S    
C26   C27   1.404076 A    
C17   N3    1.450634 S    
N3    O15   1.300510 A    
C36   H18   1.108155 S    
O9    H19   0.990326 S    
C11   H4    1.082980 S    
O3    C2    1.299688 A    
C31   C36   1.485337 S    
C34   C35   1.481204 S    
O1    C1    1.299322 A    
C18   C19   1.394166 A    
C35   H16   1.099444 S    
C25   C26   1.391700 A    
C15   C16   1.411049 A    
C17   C18   1.409377 A    
C13   C22   1.480185 S    
Cu2   O8    1.976550 S    
C32   O11   1.371368 S    
C23   C28   1.382122 A    
C4    C12   1.466927 S    
Cu2   O6    1.968685 S    
C29   C30   1.509865 S    
C5    O12   1.379524 S    
O8    C4    1.301006 A    
C9    C10   1.398472 A    
C24   C25   1.421772 A    
C26   H9    1.080308 S    
Cu1   O5    1.976558 S    
C27   C28   1.391268 A    
C14   C15   1.406544 A    
C36   H17   1.106754 S    
O1    Cu1   1.968685 S    
O2    Cu2   1.976560 S    
O6    C3    1.290772 A    
O4    Cu2   1.984357 S    
C18   H5    1.080286 S    
C20   C21   1.394588 A    
O2    C1    1.292624 A    
O11   H21   0.985793 S    
C21   C22   1.404651 A    
C33   H14   1.078477 S    
O4    C2    1.294456 A    
C30   H13   1.105969 S    
C29   H10   1.107283 S    
C19   C20   1.391757 A    
C35   C36   1.515460 S    
C11   C16   1.386806 A    
C2    C15   1.463286 S    
C6    C7    1.400784 A    
C13   C14   1.411468 A    
C3    C27   1.452096 S    
C14   O13   1.387323 S    
