data_mof_unit_1934.cif
_audit_creation_date              2012-12-10T19:42:32-0500
_audit_creation_method            fapswitch 2.2
_symmetry_space_group_name_H-M    P1
_symmetry_Int_Tables_number       1
_space_group_crystal_system       triclinic
_cell_length_a                    10.914296
_cell_length_b                    10.911774
_cell_length_c                    9.938643
_cell_angle_alpha                 99.500933
_cell_angle_beta                  99.47349
_cell_angle_gamma                 94.094556
_cell_volume                      1145.55279411

loop_
_atom_site_label
_atom_site_type_symbol
_atom_type_description
_atom_site_fract_x
_atom_site_fract_y
_atom_site_fract_z
_atom_type_partial_charge
Br1   Br    Br    0.360652 0.360708 0.824476 -0.627814
Br2   Br    Br    0.639341 0.639301 0.175521 -0.627826
C1    C     C_R   0.498749 0.261955 0.498392 0.807736
C2    C     C_R   0.712461 0.974551 0.831720 -0.164145
C3    C     C_R   0.411200 0.066840 0.233939 0.125235
C4    C     C_R   0.588856 0.933164 0.766060 0.125234
C5    C     C_R   0.493349 0.120317 0.159695 -0.082547
C6    C     C_R   0.506718 0.879701 0.840322 -0.082559
C7    C     C_R   0.451351 0.135233 0.023387 -0.120200
C8    C     C_R   0.548727 0.864790 0.976628 -0.120209
C9    C     C_R   0.328673 0.092374 0.958431 -0.100113
C10   C     C_R   0.671405 0.907646 0.041567 -0.100110
C11   C     C_R   0.459474 0.911641 0.379879 -0.229781
C12   C     C_R   0.501259 0.738045 0.501608 0.807746
C13   C     C_R   0.540562 0.088360 0.620122 -0.229787
C14   C     C_R   0.500959 0.872448 0.505040 -0.082572
C15   C     C_R   0.499069 0.127553 0.494961 -0.082579
C16   C     C_R   0.261959 0.498773 0.498403 0.807544
C17   C     C_R   0.738040 0.501220 0.501597 0.807538
C18   C     C_R   0.542054 0.962530 0.627607 -0.007956
C19   C     C_R   0.457987 0.037472 0.372394 -0.007958
C20   C     C_2   0.511101 0.510953 0.079055 0.262570
C21   C     C_2   0.488896 0.489049 0.920945 0.262573
C22   C     C_R   0.135998 0.453454 0.023678 -0.119488
C23   C     C_R   0.872444 0.500925 0.505031 -0.082655
C24   C     C_R   0.863977 0.546505 0.976309 -0.119496
C25   C     C_R   0.121021 0.494831 0.160116 -0.082179
C26   C     C_R   0.878958 0.505133 0.839872 -0.082160
C27   C     C_R   0.066948 0.412341 0.233579 0.125323
C28   C     C_R   0.933038 0.587625 0.766416 0.125324
C29   C     C_R   0.025031 0.289048 0.166969 -0.164109
C30   C     C_R   0.974951 0.710916 0.833031 -0.164104
C31   C     C_R   0.036954 0.249216 0.029254 -0.151741
C32   C     C_R   0.963019 0.750745 0.970742 -0.151726
C33   C     C_R   0.092530 0.331115 0.957781 -0.099653
C34   C     C_R   0.127551 0.499053 0.494967 -0.082656
C35   C     C_R   0.907440 0.668844 0.042210 -0.099666
C36   C     C_R   0.911729 0.460080 0.379712 -0.230031
C37   C     C_R   0.088265 0.539894 0.620284 -0.230033
C38   C     C_R   0.962446 0.541405 0.627772 -0.007999
C39   C     C_R   0.037547 0.458566 0.372224 -0.007989
C40   C     C_R   0.247094 0.037383 0.030700 -0.151314
C41   C     C_R   0.752976 0.962630 0.969282 -0.151316
C42   C     C_R   0.287599 0.025452 0.168263 -0.164143
Cu1   Cu    Cu3+1 0.521120 0.521140 0.639640 0.990423
Cu2   Cu    Cu3+1 0.478880 0.478860 0.360360 0.990424
H1    H     H_    0.099428 0.300342 0.850371 0.164604
H2    H     H_    0.378374 0.379018 0.097608 0.231287
H3    H     H_    0.177133 0.517678 0.967525 0.152793
H4    H     H_    0.822839 0.482280 0.032460 0.152785
H5    H     H_    0.149585 0.591499 0.207782 0.121484
H6    H     H_    0.850394 0.408467 0.792202 0.121474
H7    H     H_    0.979909 0.225038 0.220518 0.121550
H8    H     H_    0.020078 0.774928 0.779488 0.121549
H9    H     H_    0.001476 0.155411 0.977116 0.114162
H10   H     H_    0.998493 0.844547 0.022886 0.114174
H11   H     H_    0.843694 0.428721 0.285315 0.171925
H12   H     H_    0.900538 0.699613 0.149620 0.164621
H13   H     H_    0.156299 0.571253 0.714679 0.171934
H14   H     H_    0.297347 0.099373 0.851165 0.164351
H15   H     H_    0.702737 0.900646 0.148830 0.164335
H16   H     H_    0.152989 0.002390 0.979314 0.113966
H17   H     H_    0.847082 0.997629 0.020656 0.113949
H18   H     H_    0.223833 0.980773 0.222427 0.121408
H19   H     H_    0.776221 0.019223 0.777543 0.121408
H20   H     H_    0.590210 0.148468 0.206652 0.121884
H21   H     H_    0.409857 0.851553 0.793377 0.121901
H22   H     H_    0.515313 0.175913 0.966621 0.153547
H23   H     H_    0.484773 0.824117 0.033404 0.153571
H24   H     H_    0.427588 0.843533 0.285617 0.171661
H25   H     H_    0.572447 0.156468 0.714384 0.171651
H26   H     H_    0.621628 0.620979 0.902392 0.231288
N1    N     N_2   0.447120 0.447110 0.150550 -0.291033
N2    N     N_2   0.552880 0.552890 0.849450 -0.291036
O1    O     O_R   0.517830 0.337490 0.617920 -0.540011
O2    O     O_R   0.482170 0.662510 0.382080 -0.540010
O3    O     O_R   0.482150 0.301790 0.382070 -0.583979
O4    O     O_R   0.517850 0.698210 0.617930 -0.583984
O5    O     O_R   0.337480 0.517860 0.617920 -0.539986
O6    O     O_R   0.662520 0.482140 0.382080 -0.539992
O7    O     O_R   0.301810 0.482160 0.382070 -0.584141
O8    O     O_R   0.698190 0.517840 0.617930 -0.584142

loop_
_geom_bond_atom_site_label_1
_geom_bond_atom_site_label_2
_ccdc_geom_bond_type
C31   H9    S    
C28   C30   A    
C32   H10   S    
C25   C27   A    
C32   C35   A    
Cu1   O8    S    
C22   C25   A    
C33   H1    S    
Cu2   O2    S    
C41   H17   S    
Cu1   Cu2   S    
C42   H18   S    
C10   C41   A    
C24   H4    S    
C23   C38   A    
C2    H19   S    
C11   H24   S    
Cu2   O7    S    
C16   O7    A    
C9    C40   A    
C13   C15   A    
C16   O5    A    
Br2   C20   S    
C29   C31   A    
Cu1   O4    S    
C17   O8    A    
C1    O1    A    
C40   H16   S    
C35   H12   S    
C34   C39   A    
C40   C42   A    
C30   H8    S    
C25   H5    S    
C13   C18   A    
C22   C33   A    
C28   C38   S    
C36   C39   A    
H26   N2    S    
C37   C38   A    
C3    C5    A    
C4    C6    A    
C15   C19   A    
Cu1   N2    S    
C12   O2    A    
C23   C36   A    
C36   H11   S    
C14   C18   A    
C37   H13   S    
C11   C19   A    
Cu1   O5    S    
C29   H7    S    
C7    C9    A    
C8    C10   A    
C2    C4    A    
C3    C42   A    
Br1   C21   S    
C12   C14   S    
C21   N2    D    
C9    H14   S    
C1    O3    A    
C13   H25   S    
C22   H3    S    
C5    C7    A    
C27   C39   S    
H2    N1    S    
C34   C37   A    
Cu2   O3    S    
C24   C35   A    
C2    C41   A    
C4    C18   S    
C24   C26   A    
Cu1   O1    S    
C26   C28   A    
C7    H22   S    
C27   C29   A    
C5    H20   S    
Cu2   O6    S    
C10   H15   S    
C26   H6    S    
C31   C33   A    
C1    C15   S    
C12   O4    A    
C17   O6    A    
C17   C23   S    
C8    H23   S    
C3    C19   S    
C6    H21   S    
C6    C8    A    
C11   C14   A    
C20   C21   S    
C20   N1    D    
C16   C34   S    
Cu2   N1    S    
C30   C32   A    
