data_mof_unit_1273.cif
_audit_creation_date              2012-12-10T18:58:42-0500
_audit_creation_method            fapswitch 2.2
_symmetry_space_group_name_H-M    P1
_symmetry_Int_Tables_number       1
_space_group_crystal_system       triclinic
_cell_length_a                    13.008963
_cell_length_b                    10.83054
_cell_length_c                    9.564836
_cell_angle_alpha                 90.789903
_cell_angle_beta                  96.086901
_cell_angle_gamma                 90.969227
_cell_volume                      1339.67502004

loop_
_atom_site_label
_atom_site_type_symbol
_atom_type_description
_atom_site_fract_x
_atom_site_fract_y
_atom_site_fract_z
_atom_type_partial_charge
Br1   Br    Br    0.335838 0.313929 0.816015 -0.529287
C1    C     C_R   0.497782 0.262671 0.498841 0.812724
C2    C     C_R   0.449786 0.932668 0.382096 -0.201594
C3    C     C_R   0.495648 0.871475 0.501219 -0.088910
C4    C     C_R   0.300416 0.503461 0.473238 0.823870
C5    C     C_R   0.531304 0.940683 0.621668 0.095045
C6    C     C_3   0.637087 0.944315 0.701697 -0.508990
C7    C     C_3   0.633715 0.083960 0.698369 -0.251403
C8    C     C_R   0.578633 0.555964 0.085850 0.233288
C9    C     C_R   0.431205 0.429794 0.064778 -0.054868
C10   C     C_R   0.431604 0.427930 0.916570 0.347546
C11   C     C_R   0.579147 0.555154 0.938855 0.173507
C12   C     C_R   0.027213 0.494089 0.564572 0.156844
C13   C     C_3   0.613554 0.686577 0.940124 -0.272100
C14   C     C_3   0.612235 0.688045 0.099178 -0.510532
C15   C     C_R   0.500750 0.737828 0.500797 0.794458
C16   C     C_R   0.699285 0.499867 0.526275 0.795005
C17   C     C_R   0.811815 0.499229 0.541297 -0.053544
C18   C     C_R   0.187072 0.510842 0.456114 -0.111896
C19   C     C_R   0.022635 0.543069 0.316360 -0.237157
C20   C     C_R   0.130092 0.539170 0.325784 -0.030656
C21   C     C_R   0.134394 0.490331 0.574552 -0.231483
C22   C     C_1   0.628477 0.142759 0.837060 0.343360
C23   C     C_R   0.971120 0.520106 0.434326 0.154059
C24   C     C_1   0.718401 0.698936 0.896760 0.280248
C25   C     C_1   0.178195 0.568086 0.200443 0.276852
C26   C     C_R   0.863940 0.522874 0.423606 -0.244101
C27   C     C_R   0.867645 0.473716 0.671041 -0.166608
C28   C     C_R   0.975108 0.471500 0.682747 -0.175251
C29   C     C_R   0.529357 0.068234 0.619327 0.141771
C30   C     C_R   0.491976 0.129659 0.498340 -0.103132
C31   C     C_R   0.448052 0.061569 0.380561 -0.185800
Cu1   Cu    Cu3+1 0.499990 0.499980 0.640670 0.995917
Cu2   Cu    Cu3+1 0.500010 0.500020 0.359330 0.964924
H1    H     H_    0.821233 0.543390 0.323220 0.152717
H2    H     H_    0.017277 0.451322 0.783485 0.155881
H3    H     H_    0.176527 0.470703 0.675264 0.201661
H4    H     H_    0.415071 0.107636 0.286908 0.169639
H5    H     H_    0.417488 0.881176 0.289371 0.166587
H6    H     H_    0.637326 0.908942 0.809366 0.201561
H7    H     H_    0.697129 0.904934 0.640395 0.202507
H8    H     H_    0.691819 0.127473 0.636258 0.144588
H9    H     H_    0.374973 0.374439 0.112921 0.165132
H10   H     H_    0.554866 0.746464 0.884119 0.176149
H11   H     H_    0.689413 0.699631 0.160695 0.191966
H12   H     H_    0.551509 0.748549 0.134446 0.213449
H13   H     H_    0.828339 0.454419 0.762867 0.165617
H14   H     H_    0.978992 0.564379 0.216754 0.145549
N1    N     N_R   0.500660 0.500930 0.148010 -0.206102
N2    N     N_R   0.500660 0.500890 0.852110 -0.220118
N3    N     N_1   0.624321 0.189161 0.945990 -0.289094
N4    N     N_1   0.800879 0.709157 0.862894 -0.293741
N5    N     N_1   0.216229 0.591509 0.099774 -0.279961
O1    O     O_R   0.500000 0.319640 0.618810 -0.542556
O2    O     O_R   0.500010 0.319680 0.381230 -0.585617
O3    O     O_R   0.348990 0.499960 0.599490 -0.544166
O4    O     O_R   0.349000 0.500000 0.361910 -0.586145
O5    O     O_R   0.499990 0.680320 0.618770 -0.582333
O6    O     O_R   0.500000 0.680360 0.381190 -0.586371
O7    O     O_R   0.651000 0.500000 0.638090 -0.586393
O8    O     O_R   0.651010 0.500040 0.400510 -0.582512

loop_
_geom_bond_atom_site_label_1
_geom_bond_atom_site_label_2
_ccdc_geom_bond_type
C3    C15   S    
Cu2   O4    S    
C11   N2    A    
C20   C25   S    
C27   H13   S    
Cu1   O5    S    
C4    C18   S    
C31   H4    S    
C4    O3    A    
C22   N3    T    
C30   C31   A    
Br1   C10   S    
C23   C26   A    
C4    O4    A    
C29   C30   A    
C6    H6    S    
C7    C29   S    
C7    C22   S    
Cu1   O3    S    
C16   C17   S    
C8    C14   S    
C24   N4    T    
C2    H5    S    
C6    C7    S    
C8    N1    A    
C10   N2    A    
C15   O5    A    
C21   H3    S    
C28   H2    S    
C5    C6    S    
Cu1   N2    S    
C12   C28   A    
C27   C28   A    
C5    C29   A    
C11   C13   S    
C12   C21   A    
Cu1   Cu2   S    
Cu1   O7    S    
C1    O2    A    
C6    H7    S    
C13   C24   S    
C2    C31   A    
C8    C11   A    
C16   O8    A    
Cu2   O6    S    
C3    C5    A    
C9    C10   A    
C14   H11   S    
C16   O7    A    
C2    C3    A    
C25   N5    T    
Cu2   O2    S    
C18   C21   A    
C17   C27   A    
C19   C20   A    
C13   H10   S    
C1    O1    A    
Cu1   O1    S    
C13   C14   S    
Cu2   N1    S    
C19   H14   S    
C14   H12   S    
C26   H1    S    
C9    H9    S    
C9    N1    A    
Cu2   O8    S    
C17   C26   A    
C19   C23   A    
C12   C23   A    
C7    H8    S    
C1    C30   S    
C18   C20   A    
C15   O6    A    
