data_mof_unit_906.cif
_audit_creation_date              2013-03-05T16:23:18-0500
_audit_creation_method            fapswitch 2.2
_symmetry_space_group_name_H-M    P1
_symmetry_Int_Tables_number       1
_space_group_crystal_system       triclinic
_cell_length_a                    27.720328
_cell_length_b                    10.489787
_cell_length_c                    9.791174
_cell_angle_alpha                 91.139894
_cell_angle_beta                  89.68433
_cell_angle_gamma                 90.664339
_cell_volume                      2846.28641747

loop_
_atom_site_label
_atom_site_type_symbol
_atom_site_description
_atom_site_fract_x
_atom_site_fract_y
_atom_site_fract_z
_atom_type_partial_charge
O1    O     O_R   0.500000 0.313960 0.616610 -0.562287
O2    O     O_R   0.500000 0.686040 0.383390 -0.568128
O3    O     O_R   0.500020 0.313950 0.383350 -0.630517
O4    O     O_R   0.499980 0.686050 0.616650 -0.630935
C1    C     C_R   0.500085 0.257685 0.498792 0.942484
C2    C     C_R   0.500494 0.742210 0.501175 0.926932
O5    O     O_R   0.428750 0.500030 0.616610 -0.605711
O6    O     O_R   0.571250 0.499970 0.383390 -0.621396
O7    O     O_R   0.428770 0.500020 0.383360 -0.551296
O8    O     O_R   0.571230 0.499980 0.616640 -0.548399
C3    C     C_R   0.406168 0.502159 0.500259 0.930675
C4    C     C_R   0.593736 0.502252 0.499664 0.921942
Zn1   Zn    Zn3+2 0.499990 0.500010 0.655740 1.043949
Zn2   Zn    Zn3+2 0.500010 0.499990 0.344260 1.039990
C5    C     C_R   0.179097 0.445544 0.420934 0.539672
C6    C     C_R   0.821450 0.629242 0.545423 0.534292
O9    O     O_2   0.205509 0.354715 0.357179 -0.517043
O10   O     O_2   0.795258 0.725623 0.599449 -0.514355
N1    N     N_R   0.202291 0.543064 0.488331 -0.350254
N2    N     N_R   0.798209 0.521673 0.499193 -0.349533
C7    C     C_R   0.178164 0.640277 0.551106 0.575488
C8    C     C_R   0.822400 0.419017 0.447800 0.572505
C9    C     C_R   0.281400 0.590282 0.391149 -0.187501
C10   C     C_R   0.722137 0.446654 0.596911 -0.190802
C11   C     C_R   0.331177 0.577666 0.392852 0.618628
C12   C     C_R   0.672112 0.442505 0.596787 0.626608
C13   C     C_R   0.324986 0.463877 0.607604 0.131999
C14   C     C_R   0.671222 0.584090 0.400525 0.140005
C15   C     C_R   0.275058 0.479108 0.605088 -0.168498
C16   C     C_R   0.721824 0.586203 0.402527 -0.121013
C17   C     C_R   0.253499 0.540383 0.496508 0.183161
C18   C     C_R   0.746818 0.518177 0.499970 0.161894
C19   C     C_R   0.102380 0.540509 0.482575 -0.171556
C20   C     C_R   0.898104 0.531708 0.487904 -0.171920
C21   C     C_R   0.128347 0.440264 0.418177 -0.032283
C22   C     C_R   0.872126 0.638384 0.538208 -0.031567
C23   C     C_R   0.102865 0.339389 0.352448 0.225775
C24   C     C_R   0.897543 0.750032 0.579027 0.220680
C25   C     C_R   0.127641 0.641748 0.549070 -0.169832
C26   C     C_R   0.872873 0.421319 0.441646 -0.160721
C27   C     C_R   0.353503 0.513365 0.500239 -0.232553
C28   C     C_R   0.646374 0.510129 0.498809 -0.271067
H1    H     H_    0.252670 0.438927 0.684836 0.158082
H2    H     H_    0.742585 0.641435 0.330415 0.160669
C29   C     C_R   0.974878 0.429351 0.428682 -0.019547
C30   C     C_R   0.025577 0.642257 0.542615 -0.023258
C31   C     C_R   0.974498 0.643528 0.535889 0.078832
C32   C     C_R   0.025946 0.435266 0.419830 0.076929
C33   C     C_R   0.949299 0.535007 0.483942 0.075083
C34   C     C_R   0.051166 0.539376 0.481473 0.075827
C35   C     C_R   0.948439 0.319925 0.385931 -0.312557
C36   C     C_R   0.051978 0.739805 0.611145 -0.315603
C37   C     C_R   0.898563 0.316220 0.390970 0.675140
C38   C     C_R   0.101899 0.740216 0.613764 0.687068
O11   O     O_2   0.797349 0.315634 0.402423 -0.461852
O12   O     O_2   0.203287 0.734570 0.615226 -0.455894
C39   C     C_R   0.052674 0.339712 0.351371 -0.275237
C40   C     C_R   0.947778 0.751045 0.578001 -0.277164
H3    H     H_    0.741885 0.393896 0.671926 0.183953
H4    H     H_    0.264309 0.637546 0.307129 0.181775
H5    H     H_    0.965194 0.233073 0.350971 0.168829
H6    H     H_    0.035043 0.816083 0.668128 0.174737
H7    H     H_    0.035694 0.262805 0.294484 0.146346
H8    H     H_    0.964895 0.840485 0.605850 0.144716
C41   C     C_3   0.538981 0.045303 0.565863 0.765386
C42   C     C_3   0.462575 0.954403 0.433879 0.760832
C43   C     C_3   0.541505 0.957399 0.438541 -0.352728
C44   C     C_3   0.460085 0.041959 0.561217 -0.359097
H9    H     H_    0.574840 0.919322 0.390412 0.177108
H10   H     H_    0.426751 0.077512 0.610736 0.181144
C45   C     C_3   0.501162 0.877051 0.503001 -0.178533
C46   C     C_3   0.500305 0.122649 0.496800 -0.180225
C47   C     C_3   0.499312 0.962882 0.631404 -0.290613
C48   C     C_3   0.502261 0.036721 0.368289 -0.287400
H11   H     H_    0.498271 0.930319 0.738389 0.207743
H12   H     H_    0.503262 0.069359 0.261309 0.207555
C49   C     C_3   0.486129 0.392303 0.044688 0.089354
C50   C     C_3   0.513877 0.607665 0.955401 0.085320
C51   C     C_3   0.528610 0.414839 0.949567 0.755746
C52   C     C_3   0.471393 0.585126 0.050461 0.759607
N3    N     N_3   0.499960 0.500030 0.863290 -0.171008
N4    N     N_3   0.500040 0.499970 0.136710 -0.171372
C53   C     C_3   0.456754 0.476309 0.951110 -0.349513
C54   C     C_3   0.543244 0.523647 0.048942 -0.355863
H13   H     H_    0.420846 0.455544 0.905826 0.200912
H14   H     H_    0.579159 0.544290 0.094330 0.208118
N5    N     N_2   0.345797 0.393382 0.714452 -0.285630
H15   H     H_    0.328137 0.403838 0.806979 0.242787
C55   C     C_3   0.353605 0.260930 0.678486 -0.721079
H16   H     H_    0.372278 0.213797 0.763309 0.228483
H17   H     H_    0.376348 0.252900 0.585065 0.226578
H18   H     H_    0.318530 0.211215 0.660202 0.258034
N6    N     N_2   0.644792 0.657885 0.305267 -0.285869
H19   H     H_    0.617389 0.711692 0.347563 0.219006
C56   C     C_3   0.669443 0.716437 0.191365 -0.724225
H20   H     H_    0.642510 0.755856 0.120777 0.235754
H21   H     H_    0.690779 0.644281 0.133364 0.258357
H22   H     H_    0.693165 0.795789 0.228359 0.249690
F1    F     F_    0.578352 0.097637 0.633639 -0.585547
F2    F     F_    0.423148 0.902238 0.366201 -0.592413
F3    F     F_    0.558818 0.324909 0.891034 -0.571731
F4    F     F_    0.441271 0.675238 0.108953 -0.567103
N7    N     N_2   0.470013 0.272228 0.100073 -0.273919
H23   H     H_    0.440793 0.282552 0.164782 0.256347
C57   C     C_3   0.463600 0.169800 0.000585 -0.727113
H24   H     H_    0.449829 0.083268 0.052174 0.248743
H25   H     H_    0.498553 0.146086 0.951052 0.288364
H26   H     H_    0.437256 0.197122 0.921744 0.232306
N8    N     N_2   0.530165 0.727823 0.900592 -0.275144
H27   H     H_    0.560230 0.718023 0.838994 0.253371
C58   C     C_3   0.534665 0.831259 0.999806 -0.730868
H28   H     H_    0.550486 0.916476 0.950199 0.248657
H29   H     H_    0.558386 0.803901 0.085161 0.233357
H30   H     H_    0.498628 0.857250 0.040829 0.289570
N9    N     N_2   0.127050 0.235138 0.288038 -0.262241
H31   H     H_    0.112353 0.207721 0.195263 0.226258
C59   C     C_3   0.133698 0.127553 0.376029 -0.600616
H32   H     H_    0.098205 0.084834 0.404120 0.208203
H33   H     H_    0.153162 0.157684 0.470428 0.264099
H34   H     H_    0.155462 0.054030 0.321688 0.247382
N10   N     N_2   0.873227 0.863613 0.619483 -0.275714
H35   H     H_    0.889446 0.912164 0.699957 0.223326
C60   C     C_3   0.862965 0.946842 0.507522 -0.545339
H36   H     H_    0.897161 0.982759 0.461671 0.228020
H37   H     H_    0.841741 0.029385 0.545849 0.269063
H38   H     H_    0.841499 0.895414 0.427823 0.250212
F5    F     F_    0.648872 0.369801 0.690301 -0.563763
F6    F     F_    0.357409 0.629841 0.290188 -0.562200
F7    F     F_    0.875816 0.208280 0.345543 -0.643228
F8    F     F_    0.124607 0.837745 0.681522 -0.619079

loop_
_geom_bond_atom_site_label_1
_geom_bond_atom_site_label_2
_geom_bond_distance
_ccdc_geom_bond_type
C42   C44   1.535498 S    
N5    H15   1.031913 S    
N6    H19   1.031640 S    
Zn1   N3    2.032149 S    
C13   C15   1.395454 A    
C56   H20   1.109173 S    
C35   H5    1.076361 S    
N1    C17   1.422842 S    
C56   H22   1.111041 S    
C32   C39   1.409944 A    
C31   C33   1.415960 A    
C5    N1    1.363024 A    
C57   H25   1.109735 S    
C19   C25   1.415024 A    
C48   H12   1.108549 S    
O1    C1    1.285345 A    
C21   C23   1.411882 A    
C11   F6    1.357698 S    
C54   H14   1.109787 S    
C1    C46   1.416331 S    
N8    C58   1.446638 S    
C51   C54   1.537352 S    
C50   C52   1.516361 S    
C60   H37   1.110461 S    
C25   C38   1.401221 A    
C29   C35   1.412323 A    
N9    H31   1.031905 S    
C42   C48   1.536407 S    
C30   C36   1.411949 A    
C41   C47   1.536478 S    
C42   F2    1.383019 S    
O4    Zn1   1.996158 S    
C4    C28   1.460522 S    
C24   C40   1.392436 A    
N7    C57   1.445941 S    
C58   H28   1.110477 S    
C41   C43   1.537548 S    
O6    C4    1.300604 A    
C55   H17   1.110422 S    
C43   C45   1.533259 S    
C6    N2    1.363530 A    
C32   C34   1.416477 A    
N6    C56   1.448124 S    
C15   H1    1.083606 S    
C47   H11   1.108356 S    
C16   H2    1.081433 S    
C58   H30   1.109568 S    
O2    C2    1.284640 A    
C52   C53   1.537312 S    
C5    C21   1.407639 A    
N3    C53   1.491975 S    
C36   C38   1.384149 A    
C39   H7    1.076478 S    
C49   C51   1.516655 S    
C40   H8    1.077331 S    
C9    H4    1.083043 S    
C38   F8    1.358562 S    
C57   H26   1.109587 S    
C60   H36   1.111663 S    
C41   F1    1.382908 S    
C46   C48   1.534245 S    
C59   H34   1.110314 S    
C11   C27   1.410167 A    
C51   N3    1.482166 S    
C60   H38   1.111303 S    
N9    C59   1.447425 S    
C44   C47   1.547430 S    
C52   F4    1.382108 S    
C14   N6    1.433621 S    
C43   H9    1.109847 S    
C9    C17   1.392699 A    
O5    C3    1.303592 A    
O7    Zn2   2.009490 S    
C10   C18   1.393262 A    
C13   C27   1.415090 A    
C42   C45   1.520040 S    
C7    C25   1.401031 A    
C29   C33   1.419157 A    
C44   C46   1.532582 S    
C8    C26   1.400034 A    
C58   H29   1.110475 S    
C43   C48   1.549488 S    
C55   H18   1.111665 S    
C13   N5    1.421767 S    
O7    C3    1.301739 A    
N10   H35   1.031978 S    
O3    Zn2   1.996160 S    
O8    C4    1.301701 A    
O4    C2    1.285197 A    
C53   H13   1.109404 S    
N2    C8    1.361607 A    
N4    C54   1.491549 S    
N5    C55   1.444970 S    
C20   C26   1.413875 A    
C49   N7    1.446234 S    
O1    Zn1   1.981387 S    
Zn2   N4    2.032150 S    
C12   C28   1.406724 A    
C45   C47   1.532700 S    
N2    C18   1.424580 S    
C29   C32   1.418522 A    
C5    O9    1.349438 S    
C30   C31   1.418052 A    
C20   C33   1.419492 A    
O6    Zn2   2.013695 S    
C14   C28   1.418596 A    
N1    C7    1.360636 A    
C10   C12   1.386908 A    
C2    C45   1.414114 S    
O3    C1    1.285515 A    
O8    Zn1   2.009493 S    
C7    O12   1.349681 S    
C56   H21   1.111217 S    
C8    O11   1.349985 S    
C23   N9    1.424083 S    
C41   C46   1.521502 S    
C57   H24   1.110349 S    
C30   C34   1.419011 A    
C59   H33   1.111400 S    
C19   C34   1.419677 A    
C14   C16   1.402858 A    
C15   C17   1.394139 A    
C36   H6    1.077006 S    
C59   H32   1.111834 S    
C6    C22   1.408387 A    
C31   C40   1.410010 A    
C16   C18   1.394763 A    
C50   N3    1.479945 S    
C49   N4    1.479630 S    
C10   H3    1.083067 S    
C22   C24   1.411775 A    
C19   C21   1.416909 A    
C52   N4    1.481729 S    
C3    C27   1.465970 S    
C50   N8    1.446219 S    
C20   C22   1.416401 A    
C12   F5    1.358265 S    
C9    C11   1.387930 A    
O2    Zn2   1.981385 S    
N10   C60   1.446421 S    
C24   N10   1.423970 S    
C50   C54   1.528142 S    
O5    Zn1   2.013690 S    
C37   F7    1.357923 S    
C6    O10   1.349307 S    
C26   C37   1.400467 A    
N7    H23   1.030948 S    
C44   H10   1.106291 S    
C49   C53   1.528424 S    
C51   F3    1.382410 S    
C35   C37   1.383330 A    
C55   H16   1.108658 S    
N8    H27   1.030956 S    
C23   C39   1.391445 A    
