data_mof_unit_4397.cif
_audit_creation_date              2012-12-11T15:54:43-0500
_audit_creation_method            fapswitch 2.2
_symmetry_space_group_name_H-M    P1
_symmetry_Int_Tables_number       1
_space_group_crystal_system       triclinic
_cell_length_a                    6.920788
_cell_length_b                    14.762245
_cell_length_c                    15.87701
_cell_angle_alpha                 89.969986
_cell_angle_beta                  89.895879
_cell_angle_gamma                 90.053376
_cell_volume                      1622.09284089

loop_
_atom_site_label
_atom_site_type_symbol
_atom_type_description
_atom_site_fract_x
_atom_site_fract_y
_atom_site_fract_z
_atom_type_partial_charge
O1    O     O_R   0.638180 0.333920 0.163320 -0.547547
O2    O     O_R   0.361820 0.666080 0.836680 -0.547547
O3    O     O_R   0.308470 0.344960 0.336080 -0.548947
O4    O     O_R   0.691530 0.655040 0.663920 -0.548948
O5    O     O_R   0.138140 0.166110 0.336680 -0.531291
O6    O     O_R   0.861860 0.833890 0.663320 -0.531291
C1    C     C_R   0.477470 0.366648 0.365567 0.680685
C2    C     C_R   0.522530 0.633353 0.634431 0.680687
O7    O     O_R   0.308460 0.344950 0.163930 -0.544013
O8    O     O_R   0.691540 0.655050 0.836070 -0.544012
O9    O     O_R   0.138140 0.166100 0.163310 -0.537976
O10   O     O_R   0.861860 0.833900 0.836690 -0.537976
C3    C     C_R   0.477741 0.367369 0.135100 0.674080
C4    C     C_R   0.522258 0.632631 0.864900 0.674082
O11   O     O_R   0.638180 0.333930 0.336700 -0.544365
O12   O     O_R   0.361820 0.666070 0.663300 -0.544365
O13   O     O_3   0.471670 0.191340 0.250000 -0.360669
O14   O     O_3   0.528330 0.808660 0.750000 -0.360669
V1    V     V_3+5 0.196830 0.260900 0.250000 1.387350
V2    V     V_3+5 0.803170 0.739100 0.750000 1.387349
O15   O     O_R   0.808420 0.155070 0.163920 -0.544138
O16   O     O_R   0.191580 0.844930 0.836080 -0.544138
C5    C     C_R   0.977630 0.132763 0.134979 0.683431
C6    C     C_R   0.022370 0.867237 0.865021 0.683431
O17   O     O_R   0.808420 0.155080 0.336070 -0.537850
O18   O     O_R   0.191580 0.844920 0.663930 -0.537850
C7    C     C_R   0.976735 0.136116 0.367192 0.703831
C8    C     C_R   0.023265 0.863885 0.632809 0.703832
V3    V     V_3+5 0.696830 0.239130 0.250000 1.394840
V4    V     V_3+5 0.303170 0.760870 0.750000 1.394839
O19   O     O_3   0.971850 0.308690 0.250010 -0.384339
O20   O     O_3   0.028150 0.691310 0.749990 -0.384339
H1    H     H_    0.812336 0.841340 0.252291 0.123081
H2    H     H_    0.187657 0.158659 0.747712 0.123080
C9    C     C_R   0.074812 0.184035 0.540369 -0.187865
C10   C     C_R   0.925190 0.815966 0.459633 -0.187864
C11   C     C_R   0.128773 0.207913 0.622543 0.055036
C12   C     C_R   0.871226 0.792087 0.377459 0.055032
C13   C     C_R   0.148761 0.140884 0.683707 -0.162163
C14   C     C_R   0.851235 0.859116 0.316296 -0.162160
C15   C     C_R   0.110976 0.051059 0.664600 -0.155437
C16   C     C_R   0.889021 0.948942 0.335403 -0.155436
C17   C     C_R   0.056110 0.024720 0.582540 0.074848
C18   C     C_R   0.943890 0.975282 0.417462 0.074848
C19   C     C_R   0.040655 0.092214 0.518618 0.050802
C20   C     C_R   0.959346 0.907788 0.481384 0.050802
C21   C     C_R   0.013647 0.932850 0.564405 -0.172579
C22   C     C_R   0.986353 0.067152 0.435597 -0.172579
H3    H     H_    0.058396 0.237681 0.494376 0.098753
H4    H     H_    0.941608 0.762320 0.505626 0.098754
H5    H     H_    0.122912 0.003021 0.715717 0.116256
H6    H     H_    0.877084 0.996980 0.284285 0.116258
C23   C     C_R   0.179405 0.976148 0.966025 -0.161184
C24   C     C_R   0.820594 0.023852 0.033975 -0.161184
H7    H     H_    0.320130 0.958878 0.940859 0.117958
H8    H     H_    0.679870 0.041122 0.059141 0.117957
C25   C     C_R   0.168447 0.039646 0.031337 -0.149324
C26   C     C_R   0.831553 0.960354 0.968663 -0.149324
H9    H     H_    0.301213 0.069509 0.054318 0.119573
H10   H     H_    0.698787 0.930491 0.945682 0.119573
C27   C     C_R   0.988886 0.064395 0.066221 -0.047051
C28   C     C_R   0.011114 0.935605 0.933779 -0.047050
C29   C     C_R   0.320003 0.471605 0.470141 -0.159529
C30   C     C_R   0.679998 0.528400 0.529854 -0.159531
H11   H     H_    0.178749 0.450157 0.448848 0.116743
H12   H     H_    0.821251 0.549851 0.551145 0.116739
C31   C     C_R   0.331247 0.536681 0.533990 -0.122870
C32   C     C_R   0.668753 0.463323 0.466006 -0.122871
H13   H     H_    0.198096 0.564058 0.559158 0.121807
H14   H     H_    0.801905 0.435948 0.440837 0.121810
C33   C     C_R   0.511378 0.565373 0.565335 -0.052284
C34   C     C_R   0.488623 0.434630 0.434662 -0.052285
C35   C     C_R   0.320116 0.473001 0.031440 -0.149933
C36   C     C_R   0.679884 0.526999 0.968560 -0.149933
H15   H     H_    0.179004 0.453131 0.054535 0.115641
H16   H     H_    0.820995 0.546869 0.945465 0.115641
C37   C     C_R   0.330996 0.536295 0.965919 -0.152462
C38   C     C_R   0.669004 0.463705 0.034081 -0.152461
H17   H     H_    0.197825 0.563400 0.940655 0.115098
H18   H     H_    0.802175 0.436600 0.059345 0.115098
C39   C     C_R   0.511032 0.564229 0.933628 -0.051391
C40   C     C_R   0.488968 0.435771 0.066372 -0.051389
C41   C     C_R   0.152107 0.303048 0.648382 0.092911
C42   C     C_R   0.990979 0.360735 0.649940 -0.147328
C43   C     C_R   0.002405 0.444438 0.690742 -0.138911
C44   C     C_R   0.175200 0.471517 0.728521 -0.097491
C45   C     C_R   0.338280 0.416116 0.724234 -0.121334
C46   C     C_R   0.326767 0.331810 0.684704 -0.118450
H19   H     H_    0.854186 0.338921 0.623744 0.113168
H20   H     H_    0.876113 0.487310 0.695002 0.121087
H21   H     H_    0.182535 0.535082 0.761639 0.146337
H22   H     H_    0.472156 0.437610 0.753231 0.098971
H23   H     H_    0.451776 0.287696 0.684790 0.106440
C47   C     C_R   0.847896 0.696952 0.351621 0.092901
C48   C     C_R   0.673228 0.668185 0.315312 -0.118443
C49   C     C_R   0.661712 0.583879 0.275780 -0.121325
C50   C     C_R   0.824797 0.528483 0.271480 -0.097495
C51   C     C_R   0.997602 0.555567 0.309248 -0.138911
C52   C     C_R   0.009031 0.639270 0.350050 -0.147326
H24   H     H_    0.548212 0.712295 0.315238 0.106437
H25   H     H_    0.527829 0.562381 0.246792 0.098963
H26   H     H_    0.817460 0.464920 0.238359 0.146334
H27   H     H_    0.123898 0.512698 0.304978 0.121082
H28   H     H_    0.145830 0.661089 0.376235 0.113167

loop_
_geom_bond_atom_site_label_1
_geom_bond_atom_site_label_2
_ccdc_geom_bond_type
C7    C22   S    
C26   C28   A    
V4    O20   S    
C45   C46   A    
C29   H11   S    
C8    C21   S    
O13   V3    S    
C48   C49   A    
O4    C2    A    
V1    O19   S    
C50   C51   A    
C13   C15   A    
C43   C44   A    
O9    V1    S    
C36   H16   S    
C30   C32   A    
C9    C11   A    
O3    C1    A    
C44   H21   S    
C24   C26   A    
C38   H18   S    
C25   H9    S    
C26   H10   S    
C51   H27   S    
C30   C33   A    
O7    C3    A    
C46   H23   S    
O7    V1    S    
O6    C8    A    
O8    V2    S    
C9    H3    S    
O3    V1    S    
O14   V4    S    
C31   C33   A    
C50   H26   S    
C14   C16   A    
C41   C46   A    
C2    O12   A    
O5    C7    A    
C49   H25   S    
V3    O19   S    
C15   C17   A    
O10   V2    S    
C16   C18   A    
C18   C20   A    
O11   V3    S    
C24   H8    S    
C23   H7    S    
O17   V3    S    
C29   C31   A    
H1    C14   S    
H2    C13   S    
O12   V4    S    
C42   C43   A    
O8    C4    A    
C1    C34   S    
C23   C25   A    
C48   H24   S    
C1    O11   A    
O15   V3    S    
C3    C40   S    
C31   H13   S    
C30   H12   S    
C23   C28   A    
C38   C40   A    
C41   C42   A    
C37   C39   A    
C32   C34   A    
C49   C50   A    
C12   C47   S    
O1    V3    S    
C37   H17   S    
C10   C20   A    
C17   C19   A    
O18   V4    S    
O15   C5    A    
O16   C6    A    
O1    C3    A    
C42   H19   S    
C35   H15   S    
C36   C39   A    
C9    C19   A    
C35   C40   A    
C10   H4    S    
V2    O20   S    
C19   C22   A    
C20   C21   A    
C2    C33   S    
C6    C28   S    
O16   V4    S    
C44   C45   A    
C43   H20   S    
C25   C27   A    
O5    V1    S    
C24   C27   A    
O17   C7    A    
O6    V2    S    
O10   C6    A    
O18   C8    A    
O2    V4    S    
C10   C12   A    
C11   C13   A    
C12   C14   A    
C47   C52   A    
O9    C5    A    
O13   V1    S    
C52   H28   S    
O14   V2    S    
C47   C48   A    
O2    C4    A    
O4    V2    S    
C5    C27   S    
C29   C34   A    
C32   H14   S    
C51   C52   A    
C36   C38   A    
C35   C37   A    
C11   C41   S    
C4    C39   S    
C45   H22   S    
C17   C21   A    
C15   H5    S    
C18   C22   A    
C16   H6    S    
