data_mof_unit_1782.cif
_audit_creation_date              2012-12-10T20:56:21-0500
_audit_creation_method            fapswitch 2.2
_symmetry_space_group_name_H-M    P1
_symmetry_Int_Tables_number       1
_space_group_crystal_system       triclinic
_cell_length_a                    13.123641
_cell_length_b                    15.082487
_cell_length_c                    15.850426
_cell_angle_alpha                 89.969391
_cell_angle_beta                  89.554463
_cell_angle_gamma                 70.21653
_cell_volume                      2952.11798821

loop_
_atom_site_label
_atom_site_type_symbol
_atom_type_description
_atom_site_fract_x
_atom_site_fract_y
_atom_site_fract_z
_atom_type_partial_charge
C1    C     C_R   0.499965 0.499998 0.661081 0.886354
C2    C     C_R   0.821469 0.416904 0.512974 -0.090191
C3    C     C_R   0.606446 0.432754 0.043625 0.404946
C4    C     C_R   0.705001 0.448312 0.499103 0.949183
C5    C     C_R   0.513122 0.490338 0.086909 -0.078682
C6    C     C_R   0.422109 0.546664 0.043894 -0.208423
C7    C     C_R   0.422416 0.547436 0.956962 -0.162754
C8    C     C_R   0.514303 0.492877 0.912806 -0.038834
C9    C     C_R   0.608117 0.435596 0.955133 0.393241
C10   C     C_1   0.508026 0.494679 0.175801 0.106639
C11   C     C_1   0.508842 0.496236 0.823966 0.003686
C12   C     C_R   0.956421 0.487899 0.545236 -0.115770
C13   C     C_1   0.504106 0.498545 0.749292 -0.112441
C14   C     C_1   0.503035 0.498210 0.250549 -0.117296
C15   C     C_R   0.477452 0.054203 0.583071 0.339730
C16   C     C_R   0.499295 0.500092 0.338894 0.905319
C17   C     C_R   0.499742 0.094989 0.507013 -0.133234
C18   C     C_R   0.521229 0.040346 0.433194 -0.185988
C19   C     C_R   0.521418 0.947290 0.433189 -0.116357
C20   C     C_R   0.494772 0.906648 0.505961 -0.140035
C21   C     C_R   0.466607 0.962121 0.580838 0.341536
C22   C     C_1   0.499922 0.192928 0.502566 0.270436
C23   C     C_R   0.876845 0.478318 0.490262 -0.134714
C24   C     C_1   0.497948 0.807708 0.502203 0.328304
C25   C     C_R   0.295273 0.551763 0.503462 0.853090
C26   C     C_R   0.014814 0.687072 0.440791 -0.096326
C27   C     C_R   0.177606 0.586035 0.506156 -0.183362
C28   C     C_R   0.863334 0.348963 0.575101 -0.302318
C29   C     C_R   0.941684 0.357556 0.630319 0.343314
C30   C     C_R   0.976552 0.436311 0.622644 0.417893
C31   C     C_R   0.012670 0.548373 0.519177 0.083240
C32   C     C_R   0.962567 0.622466 0.461526 -0.087931
C33   C     C_R   0.869733 0.621790 0.417862 0.271935
C34   C     C_R   0.845503 0.537942 0.418858 0.290006
C35   C     C_R   0.122093 0.528749 0.539626 0.467503
C36   C     C_R   0.121499 0.669188 0.463769 -0.220366
H1    H     H_    0.163520 0.714675 0.439570 0.189359
H2    H     H_    0.494971 0.083899 0.812165 0.400535
H3    H     H_    0.913625 0.694772 0.265493 0.343961
H4    H     H_    0.232332 0.458660 0.617932 0.363984
H5    H     H_    0.141163 0.455165 0.803977 0.386846
H6    H     H_    0.991595 0.129454 0.730915 0.407172
H7    H     H_    0.663726 0.572405 0.283795 0.363126
H8    H     H_    0.694105 0.393575 0.851460 0.362357
H9    H     H_    0.350617 0.590261 0.077787 0.186500
H10   H     H_    0.350907 0.591092 0.923998 0.187570
H11   H     H_    0.539627 0.069572 0.374918 0.190680
H12   H     H_    0.541091 0.907067 0.375113 0.221539
H13   H     H_    0.980085 0.745262 0.398396 0.203580
H14   H     H_    0.823811 0.298020 0.588748 0.230632
H15   H     H_    0.858842 0.234048 0.071986 0.397914
H16   H     H_    0.336020 0.812233 0.687323 0.389692
N1    N     N_1   0.500030 0.729450 0.499980 -0.058005
N2    N     N_1   0.499970 0.270550 0.500020 -0.061970
O1    O     O_R   0.500000 0.426350 0.621980 -0.586049
O2    O     O_2   0.690426 0.325226 0.180061 -0.269993
O3    O     O_3   0.792300 0.266058 0.039553 -0.442105
O4    O     O_2   0.506435 0.861315 0.723557 -0.233194
O5    O     O_2   0.335205 0.994202 0.719312 -0.178516
O6    O     O_3   0.347959 0.844641 0.635743 -0.570876
O7    O     O_2   0.533798 0.181876 0.675581 -0.293978
O8    O     O_2   0.351370 0.175867 0.695512 -0.196963
O9    O     O_3   0.514226 0.043577 0.761137 -0.444532
O10   O     O_2   0.672937 0.720422 0.358394 -0.294997
O11   O     O_2   0.785329 0.811367 0.401347 -0.297372
O12   O     O_R   0.499950 0.573700 0.621980 -0.596692
O13   O     O_3   0.833748 0.717053 0.260694 -0.426043
O14   O     O_3   0.176778 0.446620 0.582098 -0.698804
O15   O     O_2   0.007050 0.586190 0.700029 -0.298192
O16   O     O_2   0.924877 0.491840 0.782912 -0.218855
O17   O     O_3   0.130919 0.422232 0.752379 -0.457706
O18   O     O_2   0.103803 0.252007 0.728201 -0.156139
O19   O     O_2   0.921585 0.309846 0.791083 -0.205077
O20   O     O_3   0.965354 0.173019 0.682844 -0.526610
O21   O     O_2   0.932294 0.457995 0.274402 -0.205581
O22   O     O_2   0.791958 0.403515 0.332171 -0.282643
O23   O     O_R   0.653660 0.389750 0.499980 -0.596499
O24   O     O_3   0.734902 0.566450 0.258877 -0.413175
O25   O     O_3   0.701848 0.382932 0.912967 -0.628090
O26   O     O_R   0.653610 0.537090 0.499980 -0.617144
O27   O     O_R   0.500050 0.426300 0.378020 -0.584269
O28   O     O_R   0.500000 0.573650 0.378020 -0.623027
O29   O     O_R   0.346390 0.462910 0.500020 -0.587015
O30   O     O_R   0.346340 0.610250 0.500020 -0.605402
O31   O     O_2   0.793960 0.416995 0.117176 -0.169348
S1    S     S_3+6 0.722508 0.359953 0.098594 0.136763
S2    S     S_3+6 0.413849 0.916425 0.668553 0.096089
S3    S     S_3+6 0.467921 0.117561 0.679815 0.110402
S4    S     S_3+6 0.787037 0.721070 0.360247 0.063357
S5    S     S_3+6 0.008385 0.487580 0.716198 0.102093
S6    S     S_3+6 0.985374 0.273107 0.711810 0.129121
S7    S     S_3+6 0.825529 0.488640 0.320509 0.114076
Zn1   Zn    Zn3+2 0.500030 0.401620 0.500000 1.071732
Zn2   Zn    Zn3+2 0.499970 0.598380 0.500000 1.044447

loop_
_geom_bond_atom_site_label_1
_geom_bond_atom_site_label_2
_ccdc_geom_bond_type
C21   S2    S    
C26   C32   A    
O28   Zn2   S    
C6    H9    S    
O9    S3    S    
C19   C20   A    
O1    Zn1   S    
C18   H11   S    
C7    C8    A    
C22   N2    T    
O31   S1    D    
H7    O24   S    
O11   S4    D    
C12   C23   A    
C28   C29   A    
C4    O26   A    
C5    C6    A    
O29   Zn1   S    
O13   S4    S    
O3    S1    S    
C18   C19   A    
C9    O25   S    
N2    Zn1   S    
H16   O6    S    
C28   H14   S    
C20   C24   S    
C8    C9    A    
C25   O30   A    
H15   O3    S    
C30   S5    S    
H5    O17   S    
O4    S2    D    
C3    S1    S    
O16   S5    D    
O10   S4    D    
O6    S2    S    
C33   C34   A    
O5    S2    D    
H6    O20   S    
C7    H10   S    
O19   S6    D    
C10   C14   T    
C26   H13   S    
O18   S6    D    
C19   H12   S    
O24   S7    S    
C24   N1    T    
O8    S3    D    
C1    O12   A    
O20   S6    S    
C2    C4    S    
C29   C30   A    
C3    C9    A    
O7    S3    D    
C33   S4    S    
O27   Zn1   S    
O2    S1    D    
C31   C32   A    
C15   C21   A    
C23   C34   A    
C16   O28   A    
C17   C18   A    
O30   Zn2   S    
O21   S7    D    
O22   S7    D    
C26   C36   A    
C12   C31   A    
C31   C35   A    
C1    C13   S    
O26   Zn2   S    
O15   S5    D    
C29   S6    S    
H2    O9    S    
C15   C17   A    
C36   H1    S    
C12   C30   A    
N1    Zn2   S    
H3    O13   S    
H8    O25   S    
C3    C5    A    
C6    C7    A    
C27   C36   A    
C25   C27   S    
C17   C22   S    
O12   Zn2   S    
C27   C35   A    
C32   C33   A    
C1    O1    A    
C5    C10   S    
C11   C13   T    
O17   S5    S    
C35   O14   S    
C8    C11   S    
O23   Zn1   S    
C16   O27   A    
C14   C16   S    
C34   S7    S    
C4    O23   A    
C20   C21   A    
H4    O14   S    
C2    C23   A    
C25   O29   A    
C2    C28   A    
C15   S3    S    
