data_mof_unit_1717.cif
_audit_creation_date              2012-12-10T16:52:08-0500
_audit_creation_method            fapswitch 2.2
_symmetry_space_group_name_H-M    P1
_symmetry_Int_Tables_number       1
_space_group_crystal_system       triclinic
_cell_length_a                    7.801172
_cell_length_b                    8.644439
_cell_length_c                    14.922791
_cell_angle_alpha                 91.731991
_cell_angle_beta                  85.687807
_cell_angle_gamma                 93.01468
_cell_volume                      1001.75828446

loop_
_atom_site_label
_atom_site_type_symbol
_atom_type_description
_atom_site_fract_x
_atom_site_fract_y
_atom_site_fract_z
_atom_type_partial_charge
C1    C     C_R   0.544395 0.793867 0.498718 0.888400
C2    C     C_R   0.562743 0.634543 0.812262 0.019609
C3    C     C_R   0.493962 0.498903 0.232534 -0.147802
C4    C     C_R   0.505702 0.499245 0.767275 -0.146049
C5    C     C_R   0.552874 0.632846 0.187539 0.025784
C6    C     C_R   0.447507 0.364802 0.812040 0.019679
C7    C     C_R   0.556877 0.632131 0.094372 0.119963
C8    C     C_R   0.442616 0.365670 0.905299 0.121066
C9    C     C_R   0.497305 0.498132 0.046967 -0.051956
C10   C     C_R   0.501718 0.499819 0.952781 -0.051147
C11   C     C_R   0.433952 0.362778 0.093625 0.124024
C12   C     C_R   0.455610 0.206375 0.502718 0.959516
C13   C     C_R   0.565031 0.635270 0.906190 0.123286
C14   C     C_R   0.621709 0.763365 0.048172 -0.276230
C15   C     C_R   0.377765 0.234460 0.951534 -0.276046
C16   C     C_R   0.627483 0.766478 0.955223 0.090710
C17   C     C_R   0.371657 0.231508 0.044559 0.091190
C18   C     C_2   0.565519 0.954904 0.488102 -0.129877
C19   C     C_2   0.434118 0.046657 0.515594 -0.110063
C20   C     C_R   0.501814 0.499833 0.672354 0.868793
C21   C     C_R   0.497975 0.498965 0.327580 0.872174
C22   C     C_R   0.436171 0.363703 0.187636 0.018297
H1    H     H_    0.670011 0.865710 0.083842 0.179692
H2    H     H_    0.495356 0.194231 0.717940 0.189810
H3    H     H_    0.630875 0.997522 0.936319 0.191174
H4    H     H_    0.827101 0.921897 0.929809 0.183229
H5    H     H_    0.172176 0.075998 0.069968 0.182962
H6    H     H_    0.368465 0.000515 0.063546 0.190944
H7    H     H_    0.826790 0.985773 0.477385 0.196784
H8    H     H_    0.736657 0.957764 0.377898 0.176016
H9    H     H_    0.303046 0.930591 0.620437 0.194816
H10   H     H_    0.194325 0.936770 0.523112 0.212979
H11   H     H_    0.988435 0.255632 0.416742 0.179495
H12   H     H_    0.329696 0.132072 0.915820 0.179577
H13   H     H_    0.991576 0.405176 0.347397 0.180778
H14   H     H_    0.007524 0.740663 0.587137 0.153609
H15   H     H_    0.010847 0.587894 0.653592 0.185539
H16   H     H_    0.489163 0.196085 0.272969 0.180980
H17   H     H_    0.282194 0.250823 0.283451 0.196811
H18   H     H_    0.716402 0.748264 0.716600 0.199091
H19   H     H_    0.509100 0.802187 0.727095 0.170983
H20   H     H_    0.509813 0.803214 0.282314 0.186321
H21   H     H_    0.715146 0.743761 0.271313 0.196557
H22   H     H_    0.289311 0.251188 0.726597 0.211748
N1    N     N_2   0.950330 0.457950 0.475660 0.000739
N2    N     N_3   0.276879 0.996225 0.565782 -0.471001
N3    N     N_3   0.033581 0.370472 0.408158 -0.325612
N4    N     N_3   0.966102 0.624658 0.593936 -0.326718
N5    N     N_2   0.049670 0.542050 0.524340 -0.005027
N6    N     N_3   0.385851 0.226833 0.237591 -0.427709
N7    N     N_3   0.612526 0.771690 0.762439 -0.426160
N8    N     N_3   0.609733 0.769891 0.236276 -0.477926
N9    N     N_3   0.393616 0.226906 0.762992 -0.472328
N10   N     N_3   0.700473 0.903125 0.911903 -0.425933
N11   N     N_3   0.298762 0.094876 0.087916 -0.426575
N12   N     N_3   0.723264 0.012875 0.441084 -0.438241
O1    O     O_R   0.389250 0.738570 0.505970 -0.636937
O2    O     O_R   0.610750 0.261430 0.494030 -0.604670
O3    O     O_R   0.678390 0.711620 0.490370 -0.621461
O4    O     O_R   0.321610 0.288380 0.509630 -0.609417
O5    O     O_R   0.355420 0.513510 0.639950 -0.636031
O6    O     O_R   0.644580 0.486490 0.360050 -0.632572
O7    O     O_R   0.644560 0.486560 0.624350 -0.607861
O8    O     O_R   0.355440 0.513440 0.375650 -0.609757
Zn1   Zn    Zn3+2 0.306940 0.517990 0.510420 0.948728
Zn2   Zn    Zn3+2 0.693060 0.482010 0.489580 0.959253

loop_
_geom_bond_atom_site_label_1
_geom_bond_atom_site_label_2
_ccdc_geom_bond_type
C14   H1    S    
C2    C4    A    
C10   C13   A    
C5    N8    S    
C15   C17   A    
H16   N6    S    
H7    N12   S    
C1    O1    A    
H18   N7    S    
C5    C7    A    
C9    C10   A    
C17   N11   S    
C11   C22   A    
N1    N5    D    
C22   N6    S    
C12   O2    A    
O8    Zn1   S    
C20   O7    A    
C1    O3    A    
C1    C18   S    
O7    Zn2   S    
H13   N3    S    
H15   N4    S    
C18   N12   S    
C9    C11   A    
C21   O6    A    
N5    Zn1   S    
H4    N10   S    
C12   C19   S    
C4    C6    A    
N4    N5    S    
H6    N11   S    
O2    Zn2   S    
O4    Zn1   S    
H14   N4    S    
C8    C15   A    
C14   C16   A    
N1    N3    S    
O3    Zn2   S    
H11   N3    S    
C16   N10   S    
H21   N8    S    
C19   N2    S    
C3    C21   S    
C2    N7    S    
H5    N11   S    
C6    N9    S    
H8    N12   S    
C12   O4    A    
O5    Zn1   S    
N1    Zn2   S    
H17   N6    S    
H3    N10   S    
C8    C10   A    
C18   C19   D    
C13   C16   A    
O1    Zn1   S    
C20   O5    A    
C7    C9    A    
C2    C13   A    
O6    Zn2   S    
C11   C17   A    
C3    C22   A    
C6    C8    A    
C15   H12   S    
C3    C5    A    
H2    N9    S    
H10   N2    S    
H22   N9    S    
H19   N7    S    
C7    C14   A    
H20   N8    S    
C21   O8    A    
H9    N2    S    
C4    C20   S    
