data_mof_unit_3022.cif
_audit_creation_date              2012-12-11T18:37:25-0500
_audit_creation_method            fapswitch 2.2
_symmetry_space_group_name_H-M    P1
_symmetry_Int_Tables_number       1
_space_group_crystal_system       triclinic
_cell_length_a                    8.498251
_cell_length_b                    14.57194
_cell_length_c                    26.863501
_cell_angle_alpha                 93.862007
_cell_angle_beta                  93.657385
_cell_angle_gamma                 87.004146
_cell_volume                      3308.50851266

loop_
_atom_site_label
_atom_site_type_symbol
_atom_type_description
_atom_site_fract_x
_atom_site_fract_y
_atom_site_fract_z
_atom_type_partial_charge
Ba1   Ba    Ba6+2 0.849670 0.455410 0.524690 1.716565
Ba2   Ba    Ba6+2 0.340150 0.544510 0.475310 1.741024
C1    C     C_3   0.523995 0.221615 0.741459 -0.203665
C2    C     C_3   0.509891 0.276744 0.694577 0.254957
C3    C     C_3   0.686114 0.742158 0.634577 0.702183
C4    C     C_3   0.706548 0.842224 0.654690 -0.373057
C5    C     C_3   0.011844 0.801643 0.352108 0.214177
C6    C     C_3   0.110735 0.885318 0.346776 -0.381596
C7    C     C_3   0.551618 0.783381 0.308977 0.272070
C8    C     C_3   0.476603 0.830593 0.263221 -0.262080
C9    C     C_R   0.935424 0.439283 0.171036 0.585710
C10   C     C_R   0.994285 0.598729 0.182080 0.602282
C11   C     C_2   0.780468 0.574188 0.269337 -0.066673
C12   C     C_3   0.930227 0.179432 0.619853 0.779058
C13   C     C_3   0.756972 0.588966 0.324796 -0.092380
C14   C     C_1   0.971097 0.471411 0.339725 -0.038282
C15   C     C_2   0.009372 0.469191 0.291803 -0.103072
C16   C     C_2   0.907113 0.521741 0.253613 0.241662
C17   C     C_R   0.023783 0.517171 0.100324 -0.078299
C18   C     C_R   0.975670 0.435898 0.119990 -0.048859
C19   C     C_R   0.969276 0.354713 0.087682 -0.042808
C20   C     C_R   0.034212 0.598360 0.131831 -0.034499
C21   C     C_2   0.830903 0.507421 0.351395 -0.272196
C22   C     C_2   0.344159 0.486259 0.642331 -0.268974
C23   C     C_3   0.828384 0.110365 0.641897 0.327753
C24   C     C_R   0.118619 0.434061 0.969018 0.024906
C25   C     C_R   0.123382 0.603490 0.976698 -0.004948
C26   C     C_R   0.143563 0.518639 0.947841 0.049456
C27   C     C_R   0.149220 0.351243 0.939873 -0.101436
C28   C     C_R   0.195399 0.351549 0.891042 -0.065079
C29   C     C_R   0.212946 0.434379 0.868827 -0.026531
C30   C     C_R   0.186724 0.518199 0.897119 -0.079083
C31   C     C_R   0.201630 0.601441 0.874440 -0.042068
C32   C     C_R   0.244554 0.599852 0.824172 0.589660
C33   C     C_R   0.255144 0.434971 0.818721 0.577863
C34   C     C_3   0.253248 0.262629 0.390635 0.332414
C35   C     C_2   0.458893 0.503417 0.730395 -0.102841
C36   C     C_3   0.492461 0.500426 0.674841 0.058093
C37   C     C_1   0.211502 0.524550 0.657719 -0.029353
C38   C     C_2   0.177330 0.526280 0.705217 -0.159321
C39   C     C_2   0.308144 0.516149 0.744758 0.242199
C40   C     C_R   0.065086 0.434772 0.018485 0.021469
C41   C     C_R   0.062603 0.517675 0.049115 0.055654
C42   C     C_R   0.101097 0.601110 0.029149 0.012008
C43   C     C_R   0.013883 0.354994 0.038401 -0.118239
C44   C     C_R   0.089140 0.677324 0.112918 -0.051426
C45   C     C_3   0.249382 0.158171 0.380930 -0.305895
C46   C     C_R   0.122490 0.686465 0.951085 -0.056508
C47   C     C_R   0.166100 0.684528 0.901598 -0.080423
C48   C     C_R   0.124704 0.678042 0.063094 -0.091457
C49   C     C_R   0.726069 0.067261 0.494881 -0.009008
C50   C     C_R   0.536680 0.203648 0.509692 0.018733
C51   C     C_R   0.403315 0.238406 0.532405 -0.292519
C52   C     C_R   0.308815 0.181690 0.554768 0.005835
C53   C     C_R   0.360313 0.090993 0.564011 0.307878
C54   C     C_R   0.493394 0.050673 0.539976 -0.060177
C55   C     C_R   0.586756 0.107896 0.514171 -0.120089
C56   C     C_3   0.202530 0.740779 0.619500 0.694746
C57   C     C_R   0.660040 0.912617 0.515056 -0.135379
C58   C     C_R   0.764602 0.971189 0.494724 0.015022
C59   C     C_R   0.693050 0.815192 0.511828 -0.161659
C60   C     C_R   0.828156 0.778850 0.488309 0.252351
C61   C     C_R   0.940991 0.837290 0.470799 0.236579
C62   C     C_R   0.906800 0.934208 0.474292 0.244319
C63   C     C_R   0.527338 0.953865 0.538371 -0.090368
C64   C     C_3   0.245907 0.760736 0.675431 -0.373170
C65   C     C_3   0.718601 0.226839 0.375888 0.706347
C66   C     C_3   0.772414 0.124889 0.381096 -0.258076
H1    H     H_    0.476242 0.232051 0.660921 -0.008958
H2    H     H_    0.364158 0.125071 0.393705 0.066877
H3    H     H_    0.155663 0.131392 0.401858 0.115991
H4    H     H_    0.297358 0.695852 0.603625 0.076981
H5    H     H_    0.140543 0.785590 0.695716 0.083818
H6    H     H_    0.335524 0.813802 0.680630 0.119281
H7    H     H_    0.297303 0.697866 0.692334 0.096408
H8    H     H_    0.815250 0.272269 0.389693 0.006882
H9    H     H_    0.625916 0.171252 0.739978 0.052492
H10   H     H_    0.880979 0.123043 0.405825 0.087514
H11   H     H_    0.679019 0.087942 0.397246 0.087564
H12   H     H_    0.416266 0.331672 0.699458 0.008411
H13   H     H_    0.788074 0.716460 0.613523 0.030777
H14   H     H_    0.611197 0.864826 0.679769 0.111252
H15   H     H_    0.821334 0.848956 0.676178 0.055035
H16   H     H_    0.702840 0.888490 0.623499 0.062985
H17   H     H_    0.545209 0.269243 0.774968 0.125316
H18   H     H_    0.899998 0.814706 0.329762 0.049446
H19   H     H_    0.233373 0.874784 0.362852 0.069702
H20   H     H_    0.116771 0.897333 0.306560 0.119806
H21   H     H_    0.054769 0.947877 0.364886 0.161945
H22   H     H_    0.666319 0.750520 0.298540 -0.051191
H23   H     H_    0.422213 0.778005 0.236549 0.117549
H24   H     H_    0.855079 0.243424 0.614284 -0.047993
H25   H     H_    0.382047 0.882186 0.274126 0.092095
H26   H     H_    0.556285 0.496853 0.758299 0.070176
H27   H     H_    0.217021 0.285935 0.870553 0.123675
H28   H     H_    0.142754 0.284392 0.954304 0.077425
H29   H     H_    0.002811 0.291529 0.015605 0.068565
H30   H     H_    0.706740 0.613228 0.242968 0.073407
H31   H     H_    0.106946 0.739199 0.136896 0.129820
H32   H     H_    0.166558 0.748907 0.883525 0.122618
H33   H     H_    0.056011 0.533150 0.715565 0.092382
H34   H     H_    0.178263 0.738707 0.052526 0.090197
H35   H     H_    0.344518 0.440220 0.608749 0.048858
H36   H     H_    0.359010 0.308085 0.526301 0.075180
H37   H     H_    0.808349 0.110684 0.481086 0.151614
H38   H     H_    0.745703 0.148626 0.666822 -0.057857
H39   H     H_    0.447133 0.910127 0.554013 0.132296
H40   H     H_    0.753519 0.075849 0.611643 -0.009718
H41   H     H_    0.327256 0.289576 0.362728 0.109224
H42   H     H_    0.302198 0.278012 0.429261 0.025949
N1    N     N_R   0.946388 0.519722 0.201302 -0.429249
N2    N     N_R   0.272130 0.517062 0.797084 -0.422622
O1    O     O_2   0.918080 0.549800 0.616640 -0.435587
O2    O     O_3   0.584344 0.248551 0.403630 -0.660729
O3    O     O_3   0.972498 0.143017 0.572410 -0.613754
O4    O     O_2   0.271610 0.450170 0.383330 -0.456339
O5    O     O_3   0.039630 0.450200 0.443530 -0.481131
O6    O     O_3   0.531440 0.620360 0.408460 -0.501188
O7    O     O_3   0.100081 0.301528 0.386791 -0.662716
O8    O     O_3   0.643350 0.612530 0.521650 -0.445392
O9    O     O_3   0.127390 0.668260 0.431510 -0.415247
O10   O     O_2   0.122724 0.760461 0.498367 -0.433586
O11   O     O_3   0.970351 0.787736 0.401430 -0.665820
O12   O     O_3   0.150070 0.549720 0.556460 -0.445971
O13   O     O_3   0.546340 0.387390 0.478340 -0.460809
O14   O     O_2   0.398940 0.728800 0.517420 -0.443890
O15   O     O_3   0.546814 0.740464 0.603924 -0.647475
O16   O     O_2   0.435619 0.542002 0.321759 -0.429999
O17   O     O_3   0.445153 0.720317 0.322970 -0.596975
O18   O     O_2   0.889527 0.371014 0.188550 -0.604468
O19   O     O_2   0.274851 0.362253 0.794137 -0.636057
O20   O     O_2   0.002444 0.669731 0.208850 -0.596576
O21   O     O_2   0.256744 0.672160 0.804489 -0.599828
O22   O     O_3   0.658250 0.379560 0.591530 -0.483712
O23   O     O_2   0.807799 0.449494 0.673219 -0.486781
O24   O     O_3   0.058877 0.696851 0.611858 -0.660979
O25   O     O_3   0.659163 0.310593 0.688933 -0.629789
O26   O     O_2   0.790750 0.271170 0.482550 -0.480620
O27   O     O_3   0.062300 0.331660 0.568480 -0.496016
O28   O     O_2   0.062006 0.213469 0.491458 -0.490231
P1    P     P_3+3 0.090020 0.577590 0.608380 1.012832
P2    P     P_3+3 0.614340 0.285150 0.467650 0.960173
P3    P     P_3+3 0.100245 0.217076 0.548581 1.021288
P4    P     P_3+3 0.099670 0.422330 0.391610 0.981656
P5    P     P_3+3 0.135648 0.787134 0.444238 0.934852
P6    P     P_3+3 0.646630 0.410616 0.656079 0.940576
P7    P     P_3+3 0.576041 0.727566 0.539718 0.967041
P8    P     P_3+3 0.544104 0.619436 0.342911 0.975388
C67   C     C_1   0.218905 0.132752 0.327527 0.302569
N3    N     N_1   0.195126 0.112694 0.285408 -0.250026
O29   O     O_3   0.196528 0.823167 0.593884 -0.636950
C68   C     C_3   0.053887 0.875203 0.600956 0.249445
H43   H     H_    0.052763 0.939115 0.581183 0.121548
H44   H     H_    0.950452 0.838455 0.584426 -0.001740
H45   H     H_    0.041776 0.894125 0.641041 0.071457
O30   O     O_3   0.668698 0.241264 0.325303 -0.642119
C69   C     C_3   0.792755 0.264550 0.296520 0.172177
H46   H     H_    0.777608 0.338092 0.288686 0.068919
H47   H     H_    0.783185 0.224516 0.259937 0.138457
H48   H     H_    0.913188 0.249386 0.313479 0.002000
C70   C     C_1   0.810058 0.073684 0.334027 0.314626
N4    N     N_1   0.839831 0.033505 0.296941 -0.262156
C71   C     C_1   0.382784 0.170911 0.747618 0.273963
N5    N     N_1   0.272152 0.130467 0.753030 -0.283949
O31   O     O_3   0.665590 0.684262 0.673887 -0.650781
C72   C     C_3   0.796564 0.681879 0.708986 0.165697
H49   H     H_    0.786285 0.740649 0.737309 0.040201
H50   H     H_    0.911250 0.682044 0.691544 0.025092
H51   H     H_    0.795315 0.617888 0.729035 0.075591
O32   O     O_3   0.925794 0.042386 0.665456 -0.645523
C73   C     C_3   0.890174 0.037865 0.715729 0.173148
H52   H     H_    0.765841 0.019234 0.718409 0.010205
H53   H     H_    0.913156 0.103982 0.737474 0.070444
H54   H     H_    0.968126 0.983299 0.732552 0.068513
C74   C     C_1   0.086433 0.718233 0.328801 0.339760
N6    N     N_1   0.145524 0.652621 0.310261 -0.222616
C75   C     C_1   0.580092 0.851571 0.351044 0.219983
N7    N     N_1   0.601837 0.905018 0.384264 -0.339224
C76   C     C_1   0.594251 0.875607 0.236748 0.276528
N8    N     N_1   0.686624 0.910521 0.215508 -0.220703
C77   C     C_1   0.143012 0.412276 0.275234 0.346473
N9    N     N_1   0.249845 0.366697 0.261939 -0.250417
C78   C     C_1   0.918829 0.268381 0.103362 0.375590
N10   N     N_1   0.878584 0.199207 0.115764 -0.241306
C79   C     C_1   0.055543 0.773612 0.970844 0.256530
N11   N     N_1   0.001505 0.843515 0.986341 -0.273509
O33   O     O_3   0.067606 0.193591 0.652098 -0.660440
C80   C     C_3   0.046652 0.273783 0.683790 0.097688
H55   H     H_    0.947863 0.267930 0.708293 0.089886
H56   H     H_    0.030592 0.335782 0.661988 0.087253
H57   H     H_    0.154512 0.283222 0.708225 0.103875
C81   C     C_1   0.720379 0.452730 0.371620 0.221855
N12   N     N_1   0.617937 0.416577 0.386406 -0.186499
O34   O     O_3   0.267998 0.040072 0.591103 -0.642375
C82   C     C_3   0.347044 0.023245 0.637693 0.257617
H58   H     H_    0.257388 0.016558 0.665255 0.127556
H59   H     H_    0.424953 0.078895 0.652624 -0.029921
H60   H     H_    0.416991 0.957157 0.635123 0.026762
O35   O     O_3   0.998969 0.993215 0.451599 -0.682765
C83   C     C_3   0.155582 0.992722 0.472457 0.183550
H61   H     H_    0.237530 0.961865 0.444843 -0.029273
H62   H     H_    0.174733 0.957778 0.507964 0.044594
H63   H     H_    0.190542 0.063952 0.479037 0.079059
O36   O     O_3   0.869713 0.685814 0.490899 -0.615989
C84   C     C_3   0.826360 0.637179 0.445446 0.472767
H64   H     H_    0.922024 0.593172 0.432344 0.050250
H65   H     H_    0.779999 0.680734 0.415040 -0.094694
H66   H     H_    0.753349 0.579834 0.451168 0.065797

loop_
_geom_bond_atom_site_label_1
_geom_bond_atom_site_label_2
_ccdc_geom_bond_type
C25   C46   A    
C23   O32   S    
C73   H52   S    
O31   C72   S    
C4    H14   S    
C1    H17   S    
Ba2   P4    S    
O27   P3    S    
C17   C18   A    
O28   P3    D    
C53   C54   A    
C70   N4    T    
Ba2   O6    S    
C5    C6    S    
C77   N9    T    
C50   C51   A    
C73   H53   S    
C35   C36   S    
C11   C16   D    
C80   H57   S    
C8    C76   S    
O2    P2    S    
O30   C69   S    
C14   P4    S    
C65   O2    S    
Ba1   O13   S    
C2    H12   S    
C3    C4    S    
C84   H66   S    
C5    H18   S    
O32   C73   S    
C51   H36   S    
C31   C47   A    
C12   O3    S    
C64   H6    S    
C10   C20   A    
C22   C37   D    
C32   N2    Am   
C54   C55   A    
C34   C45   S    
C80   H56   S    
Ba1   Ba2   S    
O10   P5    D    
C11   H30   S    
C34   O7    S    
C21   C81   S    
O17   P8    S    
Ba1   P2    S    
C2    O25   S    
O4    P4    D    
Ba2   O4    S    
C25   C42   A    
C56   C64   S    
C69   H46   S    
C36   P6    S    
O11   P5    S    
C83   H61   S    
C39   N2    S    
C5    C74   S    
C22   C36   S    
O29   C68   S    
C49   C55   A    
C3    O31   S    
C7    C8    S    
Ba1   O27   S    
C1    C71   S    
O8    P7    S    
C82   H60   S    
C63   H39   S    
C66   H11   S    
C13   C21   S    
O34   C82   S    
C38   H33   S    
C57   C58   A    
C69   H47   S    
C72   H50   S    
O7    P4    S    
C3    O15   S    
Ba1   O1    S    
C2    H1    S    
Ba2   O5    S    
C17   C41   A    
C23   H38   S    
C31   C32   A    
C19   C43   A    
C84   H65   S    
C66   H10   S    
O22   P6    S    
C73   H54   S    
O3    P3    S    
C9    C18   A    
C57   C59   A    
C4    H16   S    
C9    N1    Am   
C65   C66   S    
C45   C67   S    
O25   P6    S    
C26   C30   A    
C17   C20   A    
C16   N1    S    
O26   P2    D    
C5    O11   S    
C37   C38   D    
Ba2   O8    S    
C14   C15   D    
C32   O21   D    
C56   O24   S    
C51   C52   A    
C64   H5    S    
C50   P2    S    
C76   N8    T    
C80   H55   S    
C6    H20   S    
C40   C43   A    
C41   C42   A    
C45   H2    S    
C27   C28   A    
O36   C84   S    
C3    H13   S    
C54   C63   A    
C74   N6    T    
C68   H45   S    
C66   C70   S    
O13   P2    S    
C49   H37   S    
O23   P6    D    
C45   H3    S    
O5    P4    S    
C60   C61   A    
C15   C16   S    
C78   N10   T    
Ba1   O5    S    
C18   C19   A    
C60   O36   S    
C24   C27   A    
C37   P1    S    
Ba2   O14   S    
C46   C47   A    
C20   C44   A    
C12   H24   S    
C8    H23   S    
C48   H34   S    
C69   H48   S    
Ba2   O12   S    
C11   C13   S    
C34   H42   S    
C72   H49   S    
O9    P5    S    
O12   P1    S    
C40   C41   A    
C1    C2    S    
C1    H9    S    
C9    O18   D    
C33   O19   D    
C34   H41   S    
C7    C75   S    
C56   O29   S    
C24   C40   A    
Ba2   O9    S    
C42   C48   A    
C19   C78   S    
C84   H64   S    
C52   C53   A    
C38   C39   S    
C4    H15   S    
C10   O20   D    
C29   C30   A    
O16   P8    D    
C68   H44   S    
C61   C62   A    
C7    H22   S    
C27   H28   S    
O14   P7    D    
C13   P8    S    
C49   C58   A    
C7    O17   S    
C14   C21   D    
C44   C48   A    
C24   C26   A    
C6    H21   S    
C8    H25   S    
C58   C62   A    
C6    H19   S    
C30   C31   A    
C22   H35   S    
C44   H31   S    
O6    P8    S    
C59   P7    S    
Ba1   O12   S    
C46   C79   S    
C43   H29   S    
C67   N3    T    
C81   N12   T    
C47   H32   S    
C12   O33   S    
C56   H4    S    
C79   N11   T    
C28   C29   A    
Ba1   O8    S    
C83   H63   S    
C64   H7    S    
O24   P1    S    
O1    P1    D    
C35   H26   S    
C52   P3    S    
C28   H27   S    
C29   C33   A    
C12   C23   S    
C35   C39   D    
C59   C60   A    
C71   N5    T    
Ba1   P1    S    
C50   C55   A    
C33   N2    Am   
C82   H58   S    
Ba2   O13   S    
C15   C77   S    
O35   C83   S    
C53   O34   S    
C68   H43   S    
C72   H51   S    
C83   H62   S    
C75   N7    T    
C62   O35   S    
C25   C26   A    
C65   O30   S    
O33   C80   S    
C65   H8    S    
C61   P5    S    
C10   N1    Am   
C57   C63   A    
Ba1   O26   S    
Ba1   O22   S    
C23   H40   S    
O15   P7    S    
C82   H59   S    
