data_mof_unit_4721.cif
_audit_creation_date              2012-10-26T19:54:49-0400
_audit_creation_method            fapswitch 2.2
_symmetry_space_group_name_H-M    P1
_symmetry_Int_Tables_number       1
_space_group_crystal_system       triclinic
_cell_length_a                    17.771914
_cell_length_b                    16.421811
_cell_length_c                    10.612404
_cell_angle_alpha                 90.982447
_cell_angle_beta                  87.777426
_cell_angle_gamma                 88.924202
_cell_volume                      3093.82764429

loop_
_atom_site_label
_atom_site_type_symbol
_atom_type_description
_atom_site_fract_x
_atom_site_fract_y
_atom_site_fract_z
_atom_type_partial_charge
C1    C     C_R   0.355188 0.500819 0.490714 0.603486
C2    C     C_R   0.530939 0.172698 0.602614 0.008426
C3    C     C_R   0.535195 0.742445 0.592437 0.095958
C4    C     C_R   0.462491 0.256803 0.411124 0.097729
C5    C     C_R   0.469054 0.742772 0.404180 0.101593
C6    C     C_R   0.533923 0.258236 0.593891 0.074411
C7    C     C_R   0.506785 0.872885 0.495344 -0.023180
C8    C     C_R   0.494483 0.127278 0.508383 -0.012250
C9    C     C_1   0.502821 0.962831 0.500398 0.137441
C10   C     C_1   0.498878 0.037344 0.504650 0.141514
C11   C     C_R   0.512088 0.498966 0.260607 0.614248
C12   C     C_R   0.644602 0.499298 0.509337 0.613907
C13   C     C_R   0.486903 0.501085 0.738966 0.619681
C14   C     C_R   0.560837 0.644168 0.099793 0.215132
C15   C     C_R   0.436118 0.356713 0.900029 0.246992
C16   C     C_R   0.454027 0.653940 0.911841 0.220134
C17   C     C_R   0.542080 0.345981 0.087914 0.205506
C18   C     C_R   0.539672 0.719280 0.051145 -0.135938
C19   C     C_R   0.456282 0.281357 0.948753 -0.104782
C20   C     C_R   0.484224 0.724371 0.963283 -0.109889
C21   C     C_R   0.511349 0.275763 0.036884 -0.094799
C22   C     C_R   0.482856 0.576371 0.946854 -0.033982
C23   C     C_R   0.885027 0.515247 0.530117 -0.027414
C24   C     C_R   0.514436 0.423921 0.052595 -0.058917
C25   C     C_R   0.525324 0.572072 0.056793 -0.033729
C26   C     C_R   0.472169 0.428424 0.942670 -0.033156
C27   C     C_R   0.470477 0.503166 0.878297 0.058829
C28   C     C_R   0.527372 0.497122 0.120994 0.036848
C29   C     C_R   0.838470 0.568648 0.605975 0.196626
C30   C     C_R   0.150645 0.441687 0.537597 0.180591
C31   C     C_R   0.154392 0.587513 0.487355 0.194528
C32   C     C_R   0.853734 0.451380 0.459244 0.189960
C33   C     C_R   0.759390 0.563664 0.598216 0.028170
C34   C     C_R   0.113783 0.518300 0.525776 -0.025009
C35   C     C_R   0.228015 0.433876 0.502629 0.013631
C36   C     C_R   0.233265 0.580009 0.466191 0.039996
C37   C     C_R   0.775716 0.437230 0.474328 0.031013
C38   C     C_R   0.727536 0.499103 0.528735 -0.076652
C39   C     C_R   0.271070 0.504454 0.484033 -0.087498
C40   C     C_2   0.709714 0.621328 0.673028 0.663590
C41   C     C_2   0.259590 0.353942 0.456527 0.672466
C42   C     C_2   0.274452 0.646955 0.404181 0.673321
C43   C     C_2   0.747607 0.353303 0.457197 0.691619
C44   C     C_2   0.586872 0.867367 0.689388 0.621653
C45   C     C_1   0.965410 0.521066 0.532571 0.211702
C46   C     C_2   0.411667 0.130288 0.317625 0.594961
C47   C     C_2   0.443132 0.868378 0.284394 0.588023
C48   C     C_2   0.563431 0.134236 0.714417 0.577434
C49   C     C_1   0.033046 0.521936 0.532541 0.213087
C50   C     C_R   0.541130 0.828098 0.591831 0.010762
C51   C     C_R   0.457745 0.171033 0.413193 0.020836
C52   C     C_R   0.472488 0.828477 0.397621 0.028819
Cu1   Cu    Cu3+1 0.500000 0.580420 0.500000 1.128550
Cu2   Cu    Cu3+1 0.500000 0.419580 0.500000 1.131776
H1    H     H_    0.530711 0.216008 0.064621 0.197735
H2    H     H_    0.273607 0.448609 0.759920 0.389596
H3    H     H_    0.340682 0.795915 0.834498 0.355602
H4    H     H_    0.691161 0.420521 0.060936 0.371206
H5    H     H_    0.842792 0.701761 0.887023 0.394731
H6    H     H_    0.126677 0.256652 0.719739 0.397715
H7    H     H_    0.121440 0.805022 0.544427 0.395153
H8    H     H_    0.895735 0.334286 0.168380 0.397357
H9    H     H_    0.632247 0.636606 0.815962 0.342295
H10   H     H_    0.303643 0.289006 0.307619 0.357056
H11   H     H_    0.326135 0.685808 0.244172 0.372849
H12   H     H_    0.464332 0.784001 0.936166 0.173664
H13   H     H_    0.696262 0.257823 0.538019 0.362576
H14   H     H_    0.630901 0.860292 0.861522 0.365550
H15   H     H_    0.367950 0.134199 0.145020 0.372166
H16   H     H_    0.371808 0.863673 0.141095 0.373405
H17   H     H_    0.638311 0.141148 0.852275 0.377992
H18   H     H_    0.430271 0.226138 0.916043 0.184755
H19   H     H_    0.565232 0.774799 0.083616 0.165225
H20   H     H_    0.560685 0.708055 0.665734 0.168805
H21   H     H_    0.435190 0.290685 0.338853 0.165906
H22   H     H_    0.443816 0.708744 0.329474 0.155796
H23   H     H_    0.561755 0.293057 0.665210 0.180394
H24   H     H_    0.706000 0.734253 0.085954 0.350283
N1    N     N_R   0.500000 0.701220 0.500000 -0.230399
N2    N     N_R   0.500000 0.298780 0.500000 -0.223853
O1    O     O_R   0.391260 0.567930 0.500000 -0.458261
O2    O     O_2   0.662285 0.562745 0.240574 -0.208737
O3    O     O_3   0.715325 0.675346 0.098414 -0.430633
O4    O     O_2   0.373353 0.304804 0.690885 -0.249573
O5    O     O_2   0.292627 0.318977 0.881108 -0.206524
O6    O     O_3   0.329131 0.450383 0.763879 -0.497729
O7    O     O_2   0.377730 0.671184 0.698826 -0.259137
O8    O     O_2   0.316235 0.596885 0.871037 -0.172288
O9    O     O_3   0.323497 0.753097 0.892997 -0.457414
O10   O     O_2   0.610308 0.314568 0.301197 -0.239082
O11   O     O_2   0.670060 0.259734 0.107245 -0.227293
O12   O     O_R   0.608740 0.432070 0.500000 -0.452962
O13   O     O_3   0.681774 0.413810 0.152756 -0.419200
O14   O     O_2   0.955964 0.617212 0.747697 -0.219477
O15   O     O_2   0.881501 0.722268 0.645610 -0.173181
O16   O     O_3   0.823967 0.652628 0.843926 -0.443423
O17   O     O_2   0.024482 0.375153 0.650593 -0.241629
O18   O     O_2   0.093036 0.295446 0.484707 -0.176199
O19   O     O_3   0.151372 0.309363 0.704675 -0.421285
O20   O     O_2   0.129666 0.713639 0.334175 -0.200473
O21   O     O_2   0.024420 0.682593 0.478221 -0.216370
O22   O     O_3   0.140029 0.751034 0.571258 -0.418845
O23   O     O_R   0.608740 0.567930 0.500000 -0.456867
O24   O     O_2   0.987529 0.421223 0.324647 -0.241554
O25   O     O_2   0.919633 0.304957 0.410145 -0.182184
O26   O     O_3   0.867593 0.378421 0.215584 -0.407847
O27   O     O_2   0.712782 0.694472 0.654306 -0.424991
O28   O     O_R   0.660484 0.591547 0.766532 -0.682044
O29   O     O_2   0.259455 0.294518 0.524063 -0.376009
O30   O     O_R   0.288440 0.347044 0.332324 -0.666408
O31   O     O_2   0.283428 0.711486 0.460227 -0.400872
O32   O     O_R   0.302958 0.635062 0.280496 -0.652884
O33   O     O_2   0.759016 0.315565 0.358051 -0.330352
O34   O     O_R   0.391260 0.432070 0.500000 -0.455066
O35   O     O_R   0.710861 0.315757 0.558870 -0.661660
O36   O     O_2   0.617803 0.931856 0.668454 -0.429636
O37   O     O_R   0.597825 0.828379 0.803506 -0.716766
O38   O     O_2   0.380683 0.066204 0.341335 -0.433577
O39   O     O_R   0.401020 0.167125 0.201702 -0.723943
O40   O     O_2   0.470739 0.931329 0.245885 -0.468707
O41   O     O_R   0.385853 0.831876 0.218079 -0.683107
O42   O     O_2   0.537036 0.071675 0.756639 -0.466897
O43   O     O_R   0.622167 0.171944 0.775540 -0.669577
O44   O     O_R   0.500000 0.567910 0.319660 -0.504680
O45   O     O_R   0.500000 0.432090 0.680340 -0.503521
O46   O     O_R   0.500000 0.567910 0.680340 -0.497604
O47   O     O_R   0.500000 0.432090 0.319660 -0.489951
O48   O     O_2   0.631347 0.704134 0.299525 -0.281479
S1    S     S_3+6 0.642529 0.644794 0.190778 0.064435
S2    S     S_3+6 0.356099 0.356777 0.806314 0.072201
S3    S     S_3+6 0.366613 0.666446 0.839208 0.072817
S4    S     S_3+6 0.627333 0.331845 0.165118 0.067568
S5    S     S_3+6 0.878096 0.641814 0.710799 0.118320
S6    S     S_3+6 0.101159 0.354314 0.593142 0.111019
S7    S     S_3+6 0.108745 0.684396 0.464143 0.117809
S8    S     S_3+6 0.910841 0.387629 0.353231 0.122413

loop_
_geom_bond_atom_site_label_1
_geom_bond_atom_site_label_2
_ccdc_geom_bond_type
C29   S5    S    
C23   C45   S    
C14   C18   A    
C36   C42   S    
C11   O44   A    
H6    O19   S    
C3    N1    A    
O48   S1    D    
C48   O43   S    
Cu1   Cu2   S    
C25   C28   A    
C15   C19   A    
C26   C27   A    
H3    O9    S    
C30   C35   A    
C23   C29   A    
H17   O43   S    
Cu1   N1    S    
H4    O13   S    
C24   C26   A    
C7    C52   A    
C4    N2    A    
C48   O42   D    
C35   C39   A    
H14   O37   S    
C47   O41   S    
C1    O1    A    
C29   C33   A    
O15   S5    D    
O14   S5    D    
C46   O38   D    
Cu1   O1    S    
O7    S3    D    
C16   S3    S    
C3    H20   S    
C42   O32   S    
O22   S7    S    
C4    H21   S    
H13   O35   S    
C43   O35   S    
H10   O30   S    
H24   O3    S    
C30   S6    S    
C22   C25   A    
C5    C52   A    
C5    N1    A    
O13   S4    S    
C9    C10   T    
O20   S7    D    
C40   O28   S    
O10   S4    D    
O26   S8    S    
C41   O29   D    
C17   S4    S    
C19   H18   S    
C2    C6    A    
O17   S6    D    
C3    C50   A    
Cu2   N2    S    
O21   S7    D    
Cu2   O45   S    
C17   C24   A    
C30   C34   A    
C4    C51   A    
C33   C40   S    
C12   O23   A    
C31   S7    S    
C32   S8    S    
O6    S2    S    
C6    H23   S    
O11   S4    D    
C2    C48   S    
C46   C51   S    
H15   O39   S    
C17   C21   A    
O19   S6    S    
C37   C43   S    
C11   O47   A    
C42   O31   D    
H11   O32   S    
Cu2   O12   S    
C37   C38   A    
O5    S2    D    
H2    O6    S    
C45   C49   T    
C16   C20   A    
C31   C34   A    
C32   C37   A    
O2    S1    D    
C8    C51   A    
O16   S5    S    
C40   O27   D    
C13   O46   A    
C47   O40   D    
C18   H19   S    
C22   C27   A    
O25   S8    D    
C6    N2    A    
H5    O16   S    
C21   H1    S    
C20   H12   S    
C7    C9    S    
C34   C49   S    
C16   C22   A    
O24   S8    D    
C19   C21   A    
C12   O12   A    
C36   C39   A    
C2    C8    A    
C24   C28   A    
C7    C50   A    
C15   C26   A    
Cu1   O44   S    
O3    S1    S    
C47   C52   S    
H8    O26   S    
Cu2   O47   S    
O18   S6    D    
C33   C38   A    
O9    S3    S    
C41   O30   S    
C23   C32   A    
C5    H22   S    
H7    O22   S    
C13   O45   A    
C43   O33   D    
H16   O41   S    
C15   S2    S    
C11   C28   S    
Cu1   O23   S    
Cu2   O34   S    
O4    S2    D    
C46   O39   S    
C18   C20   A    
C14   C25   A    
C12   C38   S    
C35   C41   S    
Cu1   O46   S    
C1    C39   S    
C44   O37   S    
C44   O36   D    
C44   C50   S    
C8    C10   S    
C1    O34   A    
C31   C36   A    
C13   C27   S    
O8    S3    D    
H9    O28   S    
C14   S1    S    
