data_mof_unit_3958.cif
_audit_creation_date              2012-12-10T16:51:27-0500
_audit_creation_method            fapswitch 2.2
_symmetry_space_group_name_H-M    P1
_symmetry_Int_Tables_number       1
_space_group_crystal_system       triclinic
_cell_length_a                    7.964026
_cell_length_b                    8.557955
_cell_length_c                    12.0437
_cell_angle_alpha                 94.712517
_cell_angle_beta                  101.079732
_cell_angle_gamma                 93.751998
_cell_volume                      800.051075979

loop_
_atom_site_label
_atom_site_type_symbol
_atom_type_description
_atom_site_fract_x
_atom_site_fract_y
_atom_site_fract_z
_atom_type_partial_charge
C1    C     C_R   0.043923 0.794081 0.497738 0.952074
C2    C     C_R   0.160913 0.507089 0.833246 -0.114191
C3    C     C_2   0.066695 0.957823 0.496373 -0.397349
C4    C     C_R   0.105702 0.504409 0.710330 0.833488
C5    C     C_2   0.933828 0.042358 0.504746 -0.389377
C6    C     C_R   0.956246 0.205969 0.502628 0.938787
C7    C     C_R   0.893112 0.488822 0.289509 0.849581
C8    C     C_R   0.807717 0.295734 0.992734 -0.184271
C9    C     C_R   0.831055 0.462012 0.167602 -0.062029
C10   C     C_R   0.079412 0.600453 0.904389 -0.187868
C11   C     C_R   0.154938 0.636726 0.018144 -0.124069
C12   C     C_R   0.401941 0.494749 0.989125 0.079014
C13   C     C_R   0.316573 0.588465 0.059966 -0.212477
C14   C     C_3   0.342812 0.282923 0.302514 -0.713276
C15   C     C_3   0.656010 0.713483 0.699197 -0.713486
C16   C     C_R   0.313098 0.439526 0.878671 0.084196
C17   C     C_R   0.572081 0.453468 0.024027 0.074619
C18   C     C_R   0.641634 0.341492 0.955609 0.160282
C19   C     C_R   0.542641 0.273348 0.852974 -0.254895
C20   C     C_R   0.379959 0.320823 0.815216 -0.196225
C21   C     C_R   0.675459 0.520751 0.125391 -0.261151
C22   C     C_R   0.900854 0.353099 0.100067 -0.192609
H1    H     H_    0.021810 0.306374 0.132248 0.151213
H2    H     H_    0.192226 0.008182 0.488162 0.192438
H3    H     H_    0.588709 0.323703 0.390635 0.281500
H4    H     H_    0.387615 0.186395 0.250947 0.196078
H5    H     H_    0.325960 0.385039 0.251455 0.233041
H6    H     H_    0.219105 0.238355 0.321239 0.267927
H7    H     H_    0.411046 0.676533 0.609046 0.282289
H8    H     H_    0.611924 0.810332 0.750888 0.189055
H9    H     H_    0.781094 0.756747 0.681712 0.266890
H10   H     H_    0.669379 0.610118 0.749428 0.241205
H11   H     H_    0.808351 0.992027 0.513080 0.193599
H12   H     H_    0.591382 0.183973 0.801378 0.151962
H13   H     H_    0.861537 0.209854 0.941390 0.135548
H14   H     H_    0.633804 0.613691 0.177103 0.152302
H15   H     H_    0.961208 0.650992 0.871205 0.149806
H16   H     H_    0.369286 0.623402 0.148489 0.137243
H17   H     H_    0.091316 0.708258 0.073103 0.144226
H18   H     H_    0.306173 0.262550 0.736048 0.175114
N1    N     N_2   0.434800 0.456690 0.470850 0.027119
N2    N     N_2   0.565200 0.543310 0.529150 0.029944
N3    N     N_2   0.468211 0.325943 0.405876 -0.227305
N4    N     N_2   0.532013 0.673415 0.594840 -0.226363
O1    O     O_R   0.893060 0.738880 0.507150 -0.603094
O2    O     O_R   0.172250 0.711130 0.488470 -0.643947
O3    O     O_R   0.944700 0.520730 0.667600 -0.614756
O4    O     O_R   0.223890 0.492980 0.648920 -0.633215
O5    O     O_R   0.827750 0.288870 0.511530 -0.642355
O6    O     O_R   0.106940 0.261120 0.492850 -0.610652
O7    O     O_R   0.776110 0.507020 0.351080 -0.633983
O8    O     O_R   0.055300 0.479270 0.332400 -0.619170
Zn1   Zn    Zn3+2 0.813580 0.518530 0.512470 0.946438
Zn2   Zn    Zn3+2 0.186420 0.481470 0.487530 0.941134

loop_
_geom_bond_atom_site_label_1
_geom_bond_atom_site_label_2
_ccdc_geom_bond_type
C12   C17   A    
C15   N4    S    
C8    C22   A    
C15   H9    S    
C14   H5    S    
C2    C16   A    
N1    N2    D    
C8    H13   S    
C2    C4    S    
C19   C20   A    
C16   C20   A    
O3    Zn1   S    
C9    C21   A    
O2    Zn2   S    
C17   C18   A    
C13   H16   S    
C3    C5    D    
O1    Zn1   S    
C15   H10   S    
N2    Zn1   S    
C21   H14   S    
C14   H4    S    
O4    Zn2   S    
N1    N3    S    
C1    O1    A    
C3    H2    S    
O6    Zn2   S    
N2    N4    S    
C10   H15   S    
O5    Zn1   S    
C1    O2    A    
H3    N3    S    
O8    Zn2   S    
C7    O8    A    
H7    N4    S    
C5    C6    S    
C20   H18   S    
C8    C18   A    
N1    Zn2   S    
C10   C11   A    
O7    Zn1   S    
C7    O7    A    
C2    C10   A    
C11   H17   S    
C11   C13   A    
C12   C13   A    
C15   H8    S    
C18   C19   A    
C4    O4    A    
C7    C9    S    
C9    C22   A    
C14   H6    S    
C22   H1    S    
C19   H12   S    
C6    O6    A    
C6    O5    A    
C12   C16   A    
C5    H11   S    
C14   N3    S    
C1    C3    S    
C4    O3    A    
C17   C21   A    
