data_mof_unit_3187.cif
_audit_creation_date              2012-12-11T14:42:22-0500
_audit_creation_method            fapswitch 2.2
_symmetry_space_group_name_H-M    P1
_symmetry_Int_Tables_number       1
_space_group_crystal_system       triclinic
_cell_length_a                    19.046729
_cell_length_b                    10.909423
_cell_length_c                    18.844315
_cell_angle_alpha                 90.035129
_cell_angle_beta                  90.723851
_cell_angle_gamma                 89.910893
_cell_volume                      3915.32013928

loop_
_atom_site_label
_atom_site_type_symbol
_atom_type_description
_atom_site_fract_x
_atom_site_fract_y
_atom_site_fract_z
_atom_type_partial_charge
C1    C     C_R   0.727512 0.955402 0.853307 0.557308
C2    C     C_R   0.247762 0.414423 0.923829 0.035606
C3    C     C_R   0.252250 0.914239 0.076201 0.036663
C4    C     C_R   0.747762 0.914423 0.923829 0.035608
C5    C     C_R   0.796620 0.332001 0.042128 -0.122581
C6    C     C_R   0.203696 0.331771 0.957740 -0.122454
C7    C     C_R   0.296620 0.832001 0.042128 -0.122583
C8    C     C_R   0.703695 0.831771 0.957740 -0.122454
C9    C     C_R   0.794233 0.322447 0.969580 -0.126426
C10   C     C_R   0.206095 0.321955 0.030281 -0.126524
C11   C     C_R   0.294233 0.822447 0.969580 -0.126425
C12   C     C_R   0.272471 0.955271 0.146717 0.557268
C13   C     C_R   0.706095 0.821955 0.030281 -0.126524
C14   C     C_R   0.744189 0.388610 0.929604 0.036394
C15   C     C_R   0.255798 0.388432 0.070402 0.036132
C16   C     C_R   0.244189 0.888610 0.929604 0.036394
C17   C     C_R   0.755798 0.888432 0.070402 0.036133
C18   C     C_R   0.562317 0.279300 0.519483 0.237143
C19   C     C_R   0.546220 0.274171 0.446630 0.227490
C20   C     C_R   0.062308 0.779329 0.519497 0.237039
C21   C     C_R   0.046164 0.774246 0.446655 0.227555
C22   C     C_R   0.515391 0.167196 0.418263 0.030949
C23   C     C_R   0.227512 0.455402 0.853307 0.557311
C24   C     C_R   0.552356 0.173872 0.561208 0.028927
C25   C     C_R   0.015381 0.667236 0.418270 0.030966
C26   C     C_R   0.052348 0.673893 0.561211 0.028948
C27   C     C_R   0.511871 0.060275 0.458843 -0.203606
C28   C     C_R   0.530794 0.063377 0.529849 -0.201992
C29   C     C_R   0.011892 0.560301 0.458834 -0.203719
C30   C     C_R   0.030792 0.563409 0.529844 -0.202120
C31   C     C_R   0.773199 0.297516 0.526572 -0.120321
C32   C     C_R   0.187747 0.379961 0.458610 -0.140882
C33   C     C_R   0.273019 0.797376 0.526541 -0.120259
C34   C     C_R   0.772471 0.455271 0.146717 0.557290
C35   C     C_R   0.687807 0.879547 0.458675 -0.140868
C36   C     C_R   0.777673 0.316221 0.454333 -0.130078
C37   C     C_R   0.182863 0.385983 0.531142 -0.138782
C38   C     C_R   0.277518 0.816123 0.454305 -0.130102
C39   C     C_R   0.682953 0.885572 0.531206 -0.138866
C40   C     C_R   0.530795 0.177312 0.851175 0.586493
C41   C     C_R   0.469267 0.177181 0.148864 0.582182
C42   C     C_R   0.030794 0.677312 0.851175 0.586492
C43   C     C_R   0.969267 0.677181 0.148864 0.582143
C44   C     C_R   0.755397 0.427392 0.425701 0.057115
C45   C     C_R   0.699605 0.476413 0.037412 -0.136927
C46   C     C_R   0.239952 0.426661 0.572640 0.027987
C47   C     C_R   0.255406 0.927433 0.425709 0.056969
C48   C     C_R   0.739985 0.926588 0.572660 0.028089
C49   C     C_R   0.727871 0.519581 0.469899 -0.119198
C50   C     C_R   0.303120 0.458230 0.540122 -0.149133
C51   C     C_R   0.228033 0.019731 0.469937 -0.119559
C52   C     C_R   0.803077 0.958463 0.540096 -0.148989
C53   C     C_R   0.724244 0.501224 0.542798 -0.121646
C54   C     C_R   0.309039 0.447243 0.466785 -0.143396
C55   C     C_R   0.224387 0.001332 0.542832 -0.122115
C56   C     C_R   0.300099 0.476889 0.962772 -0.137138
C57   C     C_R   0.808971 0.947491 0.466755 -0.143338
C58   C     C_R   0.747004 0.389923 0.571158 0.064474
C59   C     C_R   0.251385 0.406255 0.425894 0.025999
C60   C     C_R   0.246983 0.889894 0.571156 0.064477
C61   C     C_R   0.751371 0.906188 0.425908 0.026141
C62   C     C_R   0.737124 0.358852 0.854740 0.549746
C63   C     C_R   0.262877 0.358686 0.145254 0.548948
C64   C     C_R   0.237124 0.858852 0.854740 0.549743
C65   C     C_R   0.762877 0.858686 0.145254 0.548955
C66   C     C_R   0.726511 0.957307 0.646342 0.533537
C67   C     C_R   0.199605 0.976413 0.037412 -0.136928
C68   C     C_R   0.272930 0.957643 0.353292 0.552331
C69   C     C_R   0.226504 0.457322 0.646335 0.533492
C70   C     C_R   0.772927 0.457637 0.353290 0.552387
C71   C     C_R   0.564284 0.180742 0.637648 0.597220
C72   C     C_R   0.473383 0.176032 0.353387 0.574368
C73   C     C_R   0.064283 0.680744 0.637640 0.597141
C74   C     C_R   0.973380 0.676038 0.353389 0.574383
C75   C     C_R   0.738846 0.359982 0.645467 0.548080
C76   C     C_R   0.261091 0.362079 0.353941 0.542847
C77   C     C_R   0.238845 0.859982 0.645468 0.548061
C78   C     C_R   0.800099 0.976889 0.962772 -0.137137
C79   C     C_R   0.761088 0.862071 0.353943 0.542897
C80   C     C_2   0.498495 0.165453 0.920758 -0.065863
C81   C     C_2   0.501619 0.165155 0.079311 -0.064878
C82   C     C_2   0.998496 0.665453 0.920758 -0.065864
C83   C     C_2   0.001619 0.665155 0.079311 -0.064880
C84   C     C_2   0.487474 0.068364 0.036812 0.191907
C85   C     C_2   0.512527 0.068382 0.963095 0.191798
C86   C     C_2   0.987474 0.568364 0.036812 0.191910
C87   C     C_2   0.012527 0.568382 0.963095 0.191796
C88   C     C_R   0.695313 0.463003 0.964032 -0.142313
C89   C     C_R   0.752251 0.414239 0.076201 0.036666
C90   C     C_R   0.304375 0.463314 0.036134 -0.141659
C91   C     C_R   0.195313 0.963004 0.964032 -0.142313
C92   C     C_R   0.804375 0.963314 0.036134 -0.141658
Cr1   Cr    Cr6+3 0.769270 0.163730 0.750710 1.015991
Cr2   Cr    Cr6+3 0.385840 0.322500 0.252290 1.035588
Cr3   Cr    Cr6+3 0.114160 0.822500 0.747710 1.049013
Cr4   Cr    Cr6+3 0.885840 0.822500 0.252290 1.035736
Cr5   Cr    Cr6+3 0.230730 0.163730 0.249290 1.032385
Cr6   Cr    Cr6+3 0.269270 0.663730 0.750710 1.015975
Cr7   Cr    Cr6+3 0.730730 0.663730 0.249290 1.032346
Cr8   Cr    Cr6+3 0.612620 0.009790 0.748780 1.050949
Cr9   Cr    Cr6+3 0.387380 0.009790 0.251220 1.054640
Cr10  Cr    Cr6+3 0.112620 0.509790 0.748780 1.050960
Cr11  Cr    Cr6+3 0.887380 0.509790 0.251220 1.054629
Cr12  Cr    Cr6+3 0.614160 0.322500 0.747710 1.048944
H1    H     H_    0.799872 0.245270 0.421121 0.123234
H2    H     H_    0.359146 0.466344 0.442617 0.133341
H3    H     H_    0.203627 0.072693 0.576675 0.124618
H4    H     H_    0.859017 0.966883 0.442547 0.133279
H5    H     H_    0.531049 0.242746 0.059140 0.049603
H6    H     H_    0.469158 0.243250 0.941061 0.048627
H7    H     H_    0.031049 0.742746 0.059140 0.049602
H8    H     H_    0.969158 0.743250 0.941061 0.048628
H9    H     H_    0.654724 0.511157 0.934420 0.122661
H10   H     H_    0.344713 0.511739 0.065862 0.122840
H11   H     H_    0.154724 0.011157 0.934420 0.122664
H12   H     H_    0.133023 0.361921 0.554269 0.135046
H13   H     H_    0.844713 0.011739 0.065862 0.122842
H14   H     H_    0.664044 0.539208 0.063216 0.124784
H15   H     H_    0.335417 0.540027 0.937108 0.124476
H16   H     H_    0.164044 0.039209 0.063216 0.124786
H17   H     H_    0.835417 0.040027 0.937108 0.124477
H18   H     H_    0.836754 0.281154 0.070905 0.141529
H19   H     H_    0.163802 0.280709 0.928844 0.141574
H20   H     H_    0.336753 0.781154 0.070905 0.141526
H21   H     H_    0.663802 0.780709 0.928844 0.141571
H22   H     H_    0.831557 0.261118 0.945166 0.132219
H23   H     H_    0.299598 0.745086 0.421064 0.123220
H24   H     H_    0.169055 0.260212 0.054575 0.132043
H25   H     H_    0.331556 0.761117 0.945166 0.132219
H26   H     H_    0.669055 0.760212 0.054575 0.132041
H27   H     H_    0.489350 0.976806 0.437339 0.147644
H28   H     H_    0.524053 0.981021 0.561032 0.148087
H29   H     H_    0.989393 0.476822 0.437320 0.147635
H30   H     H_    0.024039 0.481061 0.561027 0.148044
H31   H     H_    0.789897 0.209968 0.547736 0.137082
H32   H     H_    0.142460 0.347880 0.428598 0.136077
H33   H     H_    0.289578 0.709723 0.547686 0.137109
H34   H     H_    0.633166 0.861271 0.554364 0.135010
H35   H     H_    0.642559 0.847206 0.428706 0.136043
H36   H     H_    0.441900 0.911302 0.021546 0.320577
H37   H     H_    0.557975 0.910904 0.978105 0.320529
H38   H     H_    0.941900 0.411302 0.021546 0.320577
H39   H     H_    0.057975 0.410904 0.978105 0.320529
H40   H     H_    0.587260 0.453820 0.517833 0.328976
H41   H     H_    0.529075 0.441757 0.421091 0.311686
H42   H     H_    0.087604 0.953710 0.517788 0.329204
H43   H     H_    0.028901 0.941897 0.421360 0.311801
H44   H     H_    0.711995 0.607604 0.448520 0.138966
H45   H     H_    0.347301 0.491946 0.571140 0.132346
H46   H     H_    0.212293 0.107857 0.448585 0.139100
H47   H     H_    0.847212 0.992438 0.571078 0.132309
H48   H     H_    0.703363 0.572501 0.576616 0.124604
O1    O     O_R   0.784320 0.290430 0.830510 -0.521216
O2    O     O_R   0.456080 0.282180 0.333210 -0.476110
O3    O     O_R   0.043920 0.782180 0.666790 -0.456558
O4    O     O_R   0.956080 0.782180 0.333210 -0.475742
O5    O     O_R   0.679040 0.374160 0.674430 -0.475616
O6    O     O_R   0.320960 0.374160 0.325570 -0.507631
O7    O     O_R   0.179040 0.874160 0.674430 -0.475604
O8    O     O_R   0.820960 0.874160 0.325570 -0.507580
O9    O     O_3   0.665350 0.165340 0.749070 -0.286229
O10   O     O_3   0.334650 0.165340 0.250930 -0.262950
O11   O     O_3   0.165350 0.665340 0.749070 -0.286251
O12   O     O_R   0.215680 0.290430 0.169490 -0.523100
O13   O     O_3   0.834650 0.665340 0.250930 -0.262969
O14   O     O_R   0.762640 0.040960 0.825200 -0.509825
O15   O     O_R   0.237360 0.040960 0.174800 -0.509915
O16   O     O_R   0.262640 0.540960 0.825200 -0.509826
O17   O     O_R   0.737360 0.540960 0.174800 -0.509912
O18   O     O_R   0.667400 0.923970 0.829950 -0.484083
O19   O     O_R   0.332600 0.923970 0.170050 -0.486839
O20   O     O_R   0.167400 0.423970 0.829950 -0.484072
O21   O     O_R   0.832600 0.423970 0.170050 -0.486829
O22   O     O_R   0.553960 0.081340 0.821780 -0.422708
O23   O     O_R   0.284320 0.790430 0.830510 -0.521220
O24   O     O_R   0.446040 0.081340 0.178220 -0.429554
O25   O     O_R   0.053960 0.581340 0.821780 -0.422704
O26   O     O_R   0.946040 0.581340 0.178220 -0.429567
O27   O     O_R   0.543180 0.283240 0.826740 -0.531799
O28   O     O_R   0.456820 0.283240 0.173260 -0.527800
O29   O     O_R   0.043180 0.783240 0.826740 -0.531794
O30   O     O_R   0.956820 0.783240 0.173260 -0.527816
O31   O     O_R   0.678360 0.375140 0.822710 -0.506981
O32   O     O_R   0.321640 0.375140 0.177290 -0.504700
O33   O     O_R   0.178360 0.875140 0.822710 -0.506977
O34   O     O_R   0.715680 0.790430 0.169490 -0.523099
O35   O     O_R   0.821640 0.875140 0.177290 -0.504703
O36   O     O_R   0.785050 0.289380 0.670560 -0.528338
O37   O     O_R   0.214950 0.289380 0.329440 -0.525094
O38   O     O_R   0.285050 0.789380 0.670560 -0.528286
O39   O     O_R   0.714950 0.789380 0.329440 -0.525161
O40   O     O_R   0.763320 0.039990 0.676930 -0.508705
O41   O     O_R   0.236680 0.039990 0.323070 -0.494031
O42   O     O_R   0.263320 0.539990 0.676930 -0.508708
O43   O     O_R   0.736680 0.539990 0.323070 -0.494054
O44   O     O_R   0.668130 0.922920 0.670000 -0.536987
O45   O     O_R   0.554640 0.080370 0.673500 -0.527775
O46   O     O_R   0.331870 0.922920 0.330000 -0.528521
O47   O     O_R   0.168130 0.422920 0.670000 -0.536952
O48   O     O_R   0.831870 0.422920 0.330000 -0.528556
O49   O     O_3   0.449944 0.968982 0.061495 -0.673843
O50   O     O_3   0.549948 0.968738 0.938246 -0.673508
O51   O     O_3   0.949945 0.468982 0.061495 -0.673840
O52   O     O_3   0.049948 0.468738 0.938246 -0.673508
O53   O     O_3   0.585776 0.385462 0.552012 -0.688653
O54   O     O_3   0.558119 0.373239 0.403040 -0.688400
O55   O     O_3   0.085772 0.885482 0.552037 -0.688683
O56   O     O_R   0.445360 0.080370 0.326500 -0.522526
O57   O     O_3   0.057876 0.873447 0.403121 -0.688464
O58   O     O_R   0.054640 0.580370 0.673500 -0.527775
O59   O     O_R   0.945360 0.580370 0.326500 -0.522585
O60   O     O_R   0.543920 0.282180 0.666790 -0.456709

loop_
_geom_bond_atom_site_label_1
_geom_bond_atom_site_label_2
_ccdc_geom_bond_type
C44   C49   A    
C45   H14   S    
C29   H29   S    
C65   O35   A    
C43   O26   A    
C8    C13   A    
C43   C83   S    
C70   O43   A    
C41   O28   A    
C75   O36   A    
C42   C82   S    
Cr12  O5    S    
Cr6   O38   S    
C12   O15   A    
Cr6   O11   S    
C72   O56   A    
C37   H12   S    
C7    C11   A    
C76   O6    A    
C29   C30   A    
C18   O53   S    
C18   C24   A    
C77   O38   A    
C31   C58   A    
C27   C28   A    
Cr9   O10   S    
C18   C19   A    
C3    C7    A    
C10   C15   A    
C31   C36   A    
C71   O45   A    
Cr12  O27   S    
C87   O52   S    
C42   O25   A    
C82   C87   D    
C14   C62   S    
Cr7   O43   S    
C1    O18   A    
Cr11  O21   S    
C26   C73   S    
C27   H27   S    
Cr6   O42   S    
C68   O46   A    
C25   C74   S    
Cr5   O41   S    
C88   H9    S    
C78   H17   S    
C46   C69   S    
C21   C25   A    
C76   O37   A    
C35   H35   S    
C62   O31   A    
C23   O20   A    
C51   H46   S    
C33   H33   S    
Cr10  O11   S    
C30   H30   S    
C66   O40   A    
C19   O54   S    
C13   H26   S    
C40   C80   S    
C44   C70   S    
C68   O41   A    
C3    C12   S    
C45   C89   A    
C67   H16   S    
C7    H20   S    
C9    H22   S    
C51   C55   A    
C64   O33   A    
C21   O57   S    
C4    C8    A    
Cr8   O45   S    
C75   O5    A    
C56   C90   A    
H39   O52   S    
C39   H34   S    
Cr2   O6    S    
C79   O39   A    
C55   C60   A    
Cr10  O20   S    
Cr4   O35   S    
C2    C6    A    
C17   C92   A    
Cr2   O32   S    
C6    H19   S    
C10   H24   S    
C11   H25   S    
C22   C72   S    
H41   O54   S    
C58   C75   S    
C38   H23   S    
C12   O19   A    
C54   C59   A    
Cr8   O44   S    
C42   O29   A    
C25   C29   A    
C63   O12   A    
Cr3   O7    S    
C60   C77   S    
C72   O2    A    
C54   H2    S    
Cr8   O18   S    
C73   O58   A    
C19   C22   A    
H43   O57   S    
H37   O50   S    
C31   H31   S    
Cr11  O59   S    
Cr12  O9    S    
C32   H32   S    
Cr9   O46   S    
Cr10  O58   S    
C47   C51   A    
C78   C92   A    
Cr5   O15   S    
C5    H18   S    
C49   H44   S    
C55   H3    S    
C28   H28   S    
C82   H8    S    
C35   C39   A    
C9    C14   A    
C5    C9    A    
C80   C85   D    
Cr9   O56   S    
Cr3   O11   S    
C53   H48   S    
C40   O27   A    
C11   C16   A    
Cr1   O9    S    
Cr2   O2    S    
Cr5   O12   S    
C41   C81   S    
C73   O3    A    
Cr3   O29   S    
C67   C91   A    
C83   C86   D    
C74   O4    A    
C35   C61   A    
C50   C54   A    
C32   C37   A    
C84   C85   S    
C64   O23   A    
C38   C47   A    
Cr8   O9    S    
C34   O17   A    
C85   O50   S    
C77   O7    A    
C92   H13   S    
C45   C88   A    
Cr4   O8    S    
C41   O24   A    
C81   H5    S    
Cr1   O14   S    
Cr11  O13   S    
C33   C60   A    
C22   C27   A    
Cr8   O22   S    
C56   H15   S    
C83   H7    S    
C36   C44   A    
Cr12  O60   S    
C47   C68   S    
C79   O8    A    
C81   C84   D    
Cr3   O33   S    
H40   O53   S    
Cr1   O40   S    
Cr12  O31   S    
C84   O49   S    
Cr2   O10   S    
C65   O34   A    
Cr5   O10   S    
C70   O48   A    
C63   O32   A    
C36   H1    S    
C86   C87   S    
C3    C67   A    
C24   C28   A    
Cr4   O30   S    
H42   O55   S    
C6    C10   A    
C66   O44   A    
C53   C58   A    
C57   C61   A    
Cr7   O17   S    
C4    C78   A    
C46   C50   A    
C43   O30   A    
C17   C65   S    
C33   C38   A    
C32   C59   A    
C62   O1    A    
C13   C17   A    
C74   O59   A    
Cr11  O26   S    
H38   O51   S    
C1    C4    S    
Cr1   O1    S    
C34   C89   S    
C14   C88   A    
C34   O21   A    
C2    C56   A    
Cr10  O47   S    
C15   C90   A    
Cr7   O39   S    
Cr6   O23   S    
C50   H45   S    
Cr4   O4    S    
C20   C26   A    
C1    O14   A    
C61   C79   S    
C52   H47   S    
C49   C53   A    
C86   O51   S    
Cr5   O37   S    
C69   O42   A    
C91   H11   S    
Cr9   O19   S    
Cr3   O3    S    
Cr11  O48   S    
C90   H10   S    
C5    C89   A    
Cr2   O28   S    
C52   C57   A    
C23   O16   A    
Cr1   O36   S    
C8    H21   S    
C48   C52   A    
C57   H4    S    
C20   C21   A    
C40   O22   A    
C16   C91   A    
C71   O60   A    
C80   H6    S    
C2    C23   S    
C69   O47   A    
Cr10  O25   S    
C15   C63   S    
Cr4   O13   S    
Cr9   O24   S    
C16   C64   S    
C20   O55   S    
C48   C66   S    
C37   C46   A    
H36   O49   S    
C59   C76   S    
Cr7   O34   S    
Cr6   O16   S    
C24   C71   S    
C39   C48   A    
Cr7   O13   S    
C26   C30   A    
