data_mof_unit_1111.cif
_audit_creation_date              2012-12-10T17:19:24-0500
_audit_creation_method            fapswitch 2.2
_symmetry_space_group_name_H-M    P1
_symmetry_Int_Tables_number       1
_space_group_crystal_system       triclinic
_cell_length_a                    15.159551
_cell_length_b                    10.763525
_cell_length_c                    9.618971
_cell_angle_alpha                 90.488684
_cell_angle_beta                  90.231769
_cell_angle_gamma                 93.33619
_cell_volume                      1566.79632831

loop_
_atom_site_label
_atom_site_type_symbol
_atom_type_description
_atom_site_fract_x
_atom_site_fract_y
_atom_site_fract_z
_atom_type_partial_charge
C1    C     C_R   0.499048 0.262910 0.499456 0.794252
C2    C     C_R   0.906243 0.549086 0.386062 0.128470
C3    C     C_R   0.949710 0.450067 0.750916 -0.026911
C4    C     C_R   0.041370 0.443843 0.745487 -0.142347
C5    C     C_R   0.089511 0.472376 0.623535 0.022510
C6    C     C_R   0.044653 0.512252 0.504916 0.022072
C7    C     C_R   0.092013 0.550915 0.384535 0.073146
C8    C     C_R   0.044600 0.591199 0.268161 -0.136848
C9    C     C_R   0.953026 0.588196 0.268376 -0.170518
C10   C     C_R   0.181776 0.464038 0.620033 -0.061495
C11   C     C_R   0.230548 0.505774 0.501468 -0.207502
C12   C     C_R   0.328422 0.500659 0.500082 0.755696
C13   C     C_R   0.185266 0.551692 0.384457 -0.050845
C14   C     C_R   0.335636 0.115338 0.543484 -0.133283
C15   C     C_R   0.257637 0.043242 0.565906 -0.044788
C16   C     C_R   0.258739 0.914106 0.568883 -0.155815
C17   C     C_R   0.337770 0.856425 0.548934 -0.171082
C18   C     C_R   0.417626 0.927553 0.525088 0.113352
C19   C     C_R   0.416372 0.058499 0.522963 0.069543
C20   C     C_R   0.495779 0.129038 0.498152 -0.132321
C21   C     C_R   0.574447 0.072345 0.472919 -0.151454
C22   C     C_R   0.577118 0.943378 0.474560 -0.039642
C23   C     C_R   0.500176 0.737124 0.500480 0.745126
C24   C     C_R   0.498409 0.871186 0.501436 -0.160760
C25   C     C_R   0.619400 0.663953 0.145928 -0.132353
C26   C     C_R   0.679874 0.741652 0.075602 -0.318249
C27   C     C_R   0.681315 0.741514 0.931732 -0.013120
C28   C     C_R   0.620032 0.663592 0.858591 -0.125941
C29   C     C_R   0.558745 0.580721 0.926596 0.159563
C30   C     C_R   0.558698 0.580646 0.075804 0.208420
C31   C     C_R   0.443388 0.422007 0.070839 0.061415
C32   C     C_R   0.444895 0.422715 0.922998 -0.019677
C33   C     C_R   0.670845 0.501772 0.500337 0.790806
C34   C     C_R   0.814386 0.544955 0.384384 -0.211932
C35   C     C_R   0.767039 0.506980 0.502144 -0.041045
C36   C     C_R   0.811429 0.475837 0.623404 -0.208189
C37   C     C_R   0.903883 0.480446 0.628684 0.023748
C38   C     C_R   0.951685 0.514010 0.506813 0.081650
Cu1   Cu    Cu3+1 0.499990 0.499990 0.640660 0.945837
Cu2   Cu    Cu3+1 0.500010 0.500010 0.359340 0.934257
H1    H     H_    0.196077 0.087674 0.580636 0.181312
H2    H     H_    0.198102 0.858291 0.586228 0.147721
H3    H     H_    0.622628 0.671320 0.748930 0.221078
H4    H     H_    0.401137 0.359421 0.863484 0.191628
H5    H     H_    0.075327 0.420122 0.839935 0.213143
H6    H     H_    0.077044 0.624811 0.174910 0.187971
H7    H     H_    0.918685 0.617261 0.176135 0.147094
N1    N     N_R   0.500860 0.501210 0.147910 -0.244063
N2    N     N_R   0.500890 0.501290 0.852040 -0.224786
O1    O     O_R   0.499990 0.319640 0.618810 -0.563561
O2    O     O_R   0.500000 0.319660 0.381240 -0.604558
O3    O     O_R   0.370250 0.499960 0.618800 -0.593512
O4    O     O_R   0.370260 0.499980 0.381230 -0.596345
O5    O     O_R   0.500000 0.680340 0.618760 -0.585726
O6    O     O_R   0.500010 0.680360 0.381190 -0.598086
O7    O     O_R   0.629740 0.500020 0.618770 -0.602005
O8    O     O_R   0.629750 0.500040 0.381200 -0.602428
H8    H     H_    0.779817 0.571464 0.291306 0.149492
H9    H     H_    0.332034 0.215425 0.541027 0.136798
H10   H     H_    0.335499 0.756057 0.551707 0.127370
C39   C     C_2   0.662729 0.885611 0.450732 0.438434
H11   H     H_    0.668460 0.786593 0.464817 0.048754
O9    O     O_2   0.728506 0.948304 0.415666 -0.525247
C40   C     C_2   0.377799 0.333215 0.137085 0.437538
H12   H     H_    0.374247 0.320856 0.247241 0.129558
O10   O     O_2   0.324615 0.270175 0.066713 -0.527524
H13   H     H_    0.623565 0.672696 0.255483 0.192952
H14   H     H_    0.726068 0.802274 0.134587 0.175023
C41   C     C_2   0.747729 0.823508 0.859284 0.368831
H15   H     H_    0.791771 0.887070 0.918805 0.097183
O11   O     O_2   0.754908 0.820344 0.732968 -0.550167
H16   H     H_    0.772665 0.444041 0.711437 0.146229
C42   C     C_2   0.904754 0.428667 0.886955 0.362046
H17   H     H_    0.840620 0.464050 0.907558 0.062064
O12   O     O_2   0.940185 0.373007 0.980062 -0.512938
C43   C     C_2   0.225956 0.408745 0.740740 0.390456
H18   H     H_    0.263779 0.468262 0.813595 0.117968
O13   O     O_2   0.217882 0.296884 0.760850 -0.521301
C44   C     C_2   0.235735 0.606078 0.265171 0.383152
H19   H     H_    0.283780 0.683450 0.282654 0.082884
O14   O     O_2   0.227196 0.560763 0.148731 -0.539814
H20   H     H_    0.634273 0.129911 0.454052 0.181638

loop_
_geom_bond_atom_site_label_1
_geom_bond_atom_site_label_2
_ccdc_geom_bond_type
C13   C44   S    
C42   H17   S    
C19   C20   A    
C25   H13   S    
C7    C8    A    
C29   N2    A    
C14   H9    S    
C26   C27   A    
C29   C30   A    
C18   C24   A    
C30   N1    A    
C36   C37   A    
C43   O13   D    
C34   C35   A    
C5    C6    A    
Cu1   O5    S    
C15   C16   A    
C41   O11   D    
C18   C19   A    
C39   O9    D    
C10   C43   S    
Cu1   O7    S    
C16   C17   A    
C23   C24   S    
C6    C38   A    
C1    O1    A    
C12   O4    A    
C27   C41   S    
C2    C34   A    
C33   O7    A    
Cu1   O3    S    
C21   C22   A    
C42   O12   D    
C39   H11   S    
C14   C19   A    
C12   O3    A    
C4    H5    S    
C43   H18   S    
C15   H1    S    
Cu1   Cu2   S    
C44   O14   D    
C8    C9    A    
C25   C26   A    
C35   C36   A    
C40   O10   D    
C37   C38   A    
C2    C38   A    
C31   C32   A    
Cu2   O6    S    
C17   C18   A    
C32   H4    S    
C20   C21   A    
C1    O2    A    
Cu1   N2    S    
C9    H7    S    
C31   N1    A    
C22   C24   A    
C3    C4    A    
C16   H2    S    
C23   O5    A    
C25   C30   A    
Cu2   N1    S    
C28   C29   A    
C1    C20   S    
C33   O8    A    
Cu2   O8    S    
C31   C40   S    
C4    C5    A    
C11   C12   S    
C23   O6    A    
C6    C7    A    
Cu2   O2    S    
C28   H3    S    
C26   H14   S    
C40   H12   S    
C5    C10   A    
C22   C39   S    
C11   C13   A    
C33   C35   S    
C41   H15   S    
C3    C42   S    
C8    H6    S    
C32   N2    A    
C10   C11   A    
C17   H10   S    
C44   H19   S    
C7    C13   A    
Cu1   O1    S    
C21   H20   S    
C3    C37   A    
Cu2   O4    S    
C27   C28   A    
C34   H8    S    
C14   C15   A    
C2    C9    A    
C36   H16   S    
