data_mof_unit_1579.cif
_audit_creation_date              2012-12-10T19:49:19-0500
_audit_creation_method            fapswitch 2.2
_symmetry_space_group_name_H-M    P1
_symmetry_Int_Tables_number       1
_space_group_crystal_system       triclinic
_cell_length_a                    14.939895
_cell_length_b                    14.238926
_cell_length_c                    14.882564
_cell_angle_alpha                 89.893659
_cell_angle_beta                  90.657693
_cell_angle_gamma                 89.794797
_cell_volume                      3165.70437888

loop_
_atom_site_label
_atom_site_type_symbol
_atom_type_description
_atom_site_fract_x
_atom_site_fract_y
_atom_site_fract_z
_atom_type_partial_charge
C1    C     C_R   0.327594 0.500190 0.498574 0.915238
C2    C     C_R   0.806832 0.448528 0.425555 -0.310006
C3    C     C_R   0.816270 0.552694 0.554443 -0.317108
C4    C     C_R   0.184937 0.416035 0.486751 -0.332452
C5    C     C_R   0.231338 0.500860 0.490911 -0.180571
C6    C     C_R   0.766532 0.499765 0.493720 -0.160929
C7    C     C_R   0.046706 0.502790 0.474407 -0.107151
C8    C     C_R   0.949984 0.503623 0.478367 -0.119010
C9    C     C_R   0.470220 0.104729 0.424977 0.334179
C10   C     C_R   0.575080 0.894444 0.531634 0.336392
C11   C     C_R   0.530819 0.105452 0.576510 0.333290
C12   C     C_R   0.671689 0.499851 0.499734 0.912991
C13   C     C_R   0.423648 0.895128 0.471500 0.368515
C14   C     C_R   0.464347 0.204318 0.428553 0.070543
C15   C     C_R   0.570726 0.794983 0.537346 0.076854
C16   C     C_R   0.536098 0.204525 0.571449 0.084283
C17   C     C_R   0.429270 0.795913 0.463105 0.078337
C18   C     C_R   0.500115 0.053307 0.501293 -0.096283
C19   C     C_R   0.499428 0.946482 0.501903 -0.108012
C20   C     C_R   0.498934 0.500029 0.327240 0.877848
C21   C     C_R   0.500583 0.499931 0.672765 0.882141
C22   C     C_R   0.583175 0.485153 0.814646 0.016232
C23   C     C_R   0.337067 0.527617 0.041798 -0.195346
C24   C     C_R   0.415668 0.513214 0.185461 0.015853
C25   C     C_R   0.502251 0.499743 0.767962 -0.088540
C26   C     C_R   0.496886 0.499861 0.232055 -0.079623
C27   C     C_R   0.421696 0.514324 0.811515 -0.290188
C28   C     C_R   0.577286 0.484789 0.188424 -0.284295
C29   C     C_R   0.419881 0.513906 0.904267 0.130430
C30   C     C_R   0.578791 0.484170 0.095702 0.131689
C31   C     C_R   0.500222 0.499018 0.953149 0.021304
C32   C     C_R   0.498405 0.498894 0.046863 0.021024
C33   C     C_R   0.582346 0.484490 0.908348 0.128097
C34   C     C_R   0.661463 0.469649 0.958231 -0.196172
C35   C     C_R   0.416304 0.513349 0.091704 0.127885
C36   C     C_R   0.338979 0.527982 0.948604 -0.232659
C37   C     C_R   0.659500 0.469318 0.051356 -0.236990
C38   C     C_3   0.018908 0.701575 0.390248 0.091930
C39   C     C_3   0.094990 0.727810 0.326392 -0.408537
C40   C     C_3   0.058965 0.776123 0.241801 -0.927648
C41   C     C_3   0.965735 0.450947 0.275707 0.110975
C42   C     C_3   0.886783 0.486719 0.218007 -0.417126
C43   C     C_3   0.918701 0.526478 0.128654 -0.951026
C44   C     C_3   0.980071 0.543429 0.685387 0.068628
C45   C     C_R   0.093967 0.588592 0.473688 0.504782
C46   C     C_3   0.030517 0.600815 0.756138 -0.284997
C47   C     C_3   0.059102 0.540051 0.836131 -1.000525
C48   C     C_3   0.035090 0.296347 0.564291 0.076321
C49   C     C_3   0.998207 0.196619 0.557558 -0.297157
C50   C     C_3   0.982513 0.154221 0.650248 -0.998664
C51   C     C_3   0.516807 0.039013 0.294421 0.082254
C52   C     C_3   0.485427 0.986982 0.210187 -0.296586
C53   C     C_3   0.563833 0.962628 0.149574 -0.981607
C54   C     C_3   0.709494 0.950282 0.485481 0.078392
C55   C     C_3   0.801647 0.981039 0.519692 -0.304311
C56   C     C_R   0.898547 0.452783 0.414728 0.510229
C57   C     C_3   0.867589 0.991514 0.442773 -0.974083
C58   C     C_3   0.487249 0.037515 0.707714 0.079964
C59   C     C_3   0.521150 0.011864 0.801829 -0.300515
C60   C     C_3   0.444331 0.983443 0.862767 -0.976438
C61   C     C_3   0.295747 0.971300 0.516850 0.100088
C62   C     C_3   0.231493 0.894215 0.547500 -0.377356
C63   C     C_3   0.170724 0.929103 0.622176 -0.930053
C64   C     C_R   0.908521 0.551808 0.549773 0.484741
C65   C     C_R   0.092458 0.416249 0.481113 0.470742
C66   C     C_R   0.185780 0.586531 0.485079 -0.303527
H1    H     H_    0.360518 0.525502 0.772774 0.141701
H2    H     H_    0.219857 0.349237 0.489439 0.181093
H3    H     H_    0.660172 0.413756 0.726131 0.201013
H4    H     H_    0.676131 0.531586 0.726974 0.171798
H5    H     H_    0.323397 0.466293 0.273797 0.186109
H6    H     H_    0.337964 0.584287 0.273581 0.184909
H7    H     H_    0.975766 0.764421 0.399649 0.179872
H8    H     H_    0.974858 0.647230 0.360225 0.109682
H9    H     H_    0.142231 0.775982 0.361115 0.230002
H10   H     H_    0.132179 0.663480 0.306628 0.210323
H11   H     H_    0.009813 0.730390 0.206780 0.259192
H12   H     H_    0.638603 0.473996 0.227081 0.133075
H13   H     H_    0.115057 0.790911 0.195619 0.268367
H14   H     H_    0.026041 0.843614 0.259350 0.266438
H15   H     H_    0.007714 0.404314 0.233622 0.182006
H16   H     H_    0.009979 0.509513 0.296658 0.105934
H17   H     H_    0.839763 0.427966 0.204598 0.230274
H18   H     H_    0.850380 0.542691 0.254731 0.208677
H19   H     H_    0.968879 0.582538 0.140273 0.264831
H20   H     H_    0.861054 0.556816 0.090718 0.266197
H21   H     H_    0.949225 0.470032 0.087542 0.265471
H22   H     H_    0.024751 0.485604 0.662991 0.118585
H23   H     H_    0.277194 0.539283 0.911156 0.152111
H24   H     H_    0.918859 0.513375 0.716400 0.131905
H25   H     H_    0.091042 0.632169 0.725482 0.231509
H26   H     H_    0.986827 0.658742 0.780064 0.224340
H27   H     H_    0.999539 0.508994 0.868700 0.269843
H28   H     H_    0.095316 0.583872 0.886242 0.265903
H29   H     H_    0.104459 0.482821 0.813950 0.262170
H30   H     H_    0.985589 0.340671 0.600174 0.123043
H31   H     H_    0.099282 0.294081 0.603292 0.123163
H32   H     H_    0.933851 0.197818 0.519279 0.242141
H33   H     H_    0.046444 0.151668 0.520749 0.218857
H34   H     H_    0.721079 0.457403 0.088746 0.154871
H35   H     H_    0.046308 0.150947 0.689232 0.267229
H36   H     H_    0.956123 0.081816 0.642777 0.272425
H37   H     H_    0.932988 0.196951 0.687595 0.269589
H38   H     H_    0.565731 0.993391 0.330959 0.119680
H39   H     H_    0.550162 0.105507 0.273951 0.134009
H40   H     H_    0.451135 0.921095 0.230151 0.233185
H41   H     H_    0.436872 0.031601 0.172174 0.223905
H42   H     H_    0.597842 0.027645 0.127019 0.268021
H43   H     H_    0.538862 0.924250 0.089511 0.267749
H44   H     H_    0.612752 0.917106 0.185996 0.265159
H45   H     H_    0.273463 0.538824 0.074350 0.173579
H46   H     H_    0.682718 0.005167 0.439084 0.127914
H47   H     H_    0.717455 0.882863 0.448160 0.129720
H48   H     H_    0.795461 0.049338 0.555228 0.234063
H49   H     H_    0.828094 0.927947 0.568103 0.227663
H50   H     H_    0.874810 0.923986 0.406250 0.261368
H51   H     H_    0.934195 0.011834 0.470080 0.270967
H52   H     H_    0.844163 0.046789 0.395180 0.268843
H53   H     H_    0.452475 0.975404 0.678981 0.137187
H54   H     H_    0.438901 0.097137 0.713470 0.110327
H55   H     H_    0.569454 0.952519 0.797305 0.235967
H56   H     H_    0.725047 0.458136 0.925733 0.173031
H57   H     H_    0.556389 0.073142 0.831741 0.219122
H58   H     H_    0.395938 0.042353 0.869518 0.265215
H59   H     H_    0.471167 0.965300 0.930492 0.269334
H60   H     H_    0.409123 0.921194 0.834873 0.266398
H61   H     H_    0.255568 0.033043 0.494501 0.172036
H62   H     H_    0.337613 0.995897 0.574357 0.094682
H63   H     H_    0.189297 0.871459 0.489673 0.236693
H64   H     H_    0.270342 0.832670 0.572598 0.220118
H65   H     H_    0.211343 0.951281 0.681373 0.255311
H66   H     H_    0.125319 0.871653 0.643011 0.282361
H67   H     H_    0.221030 0.652668 0.489512 0.195443
H68   H     H_    0.129411 0.989318 0.598096 0.264354
H69   H     H_    0.361021 0.282271 0.382925 0.192335
H70   H     H_    0.403561 0.213011 0.303316 0.206779
H71   H     H_    0.613985 0.716683 0.641662 0.195734
H72   H     H_    0.694387 0.785144 0.600571 0.204129
H73   H     H_    0.645740 0.230747 0.647680 0.191002
H74   H     H_    0.547356 0.241099 0.702257 0.187423
H75   H     H_    0.390709 0.720793 0.355917 0.194603
H76   H     H_    0.308412 0.787903 0.394920 0.194511
H77   H     H_    0.766743 0.407168 0.379195 0.168606
H78   H     H_    0.783741 0.592311 0.607021 0.167063
N1    N     N_R   0.500000 0.252470 0.500000 -0.130369
N2    N     N_R   0.500000 0.747530 0.500000 -0.134626
N3    N     N_3   0.665836 0.472669 0.767533 -0.486885
N4    N     N_3   0.332960 0.524963 0.232685 -0.483340
N5    N     N_3   0.420948 0.255983 0.357462 -0.389413
N6    N     N_3   0.640504 0.742676 0.581979 -0.395094
N7    N     N_3   0.579885 0.255321 0.641940 -0.381315
N8    N     N_3   0.361552 0.744752 0.415052 -0.415866
O1    O     O_R   0.369060 0.579480 0.500010 -0.602250
O2    O     O_3   0.936622 0.396585 0.349338 -0.597233
O3    O     O_3   0.957308 0.602600 0.612429 -0.595640
O4    O     O_3   0.047639 0.331477 0.476655 -0.592922
O5    O     O_3   0.441867 0.058279 0.348290 -0.592761
O6    O     O_3   0.652056 0.940145 0.559521 -0.588834
O7    O     O_3   0.561143 0.061308 0.654043 -0.586777
O8    O     O_3   0.346479 0.940945 0.442492 -0.595686
O9    O     O_R   0.630940 0.420520 0.499990 -0.605826
O10   O     O_R   0.630940 0.579480 0.499990 -0.593847
O11   O     O_R   0.369060 0.420520 0.500010 -0.631458
O12   O     O_R   0.499980 0.579490 0.367850 -0.624208
O13   O     O_R   0.500020 0.420510 0.632150 -0.600237
O14   O     O_R   0.500020 0.579490 0.632150 -0.622596
O15   O     O_R   0.499980 0.420510 0.367850 -0.594199
O16   O     O_3   0.051610 0.675392 0.476247 -0.602192
Zn1   Zn    Zn3+2 0.500000 0.606140 0.500000 0.950666
Zn2   Zn    Zn3+2 0.500000 0.393860 0.500000 0.955992

loop_
_geom_bond_atom_site_label_1
_geom_bond_atom_site_label_2
_ccdc_geom_bond_type
C36   H23   S    
C53   H44   S    
C11   C18   A    
C59   H55   S    
C27   C29   A    
C34   C37   A    
C41   C42   S    
C62   H64   S    
C3    C6    A    
C8    C56   A    
H70   N5    S    
C11   O7    S    
C7    C8    S    
C3    C64   A    
H72   N6    S    
C38   O16   S    
C48   H31   S    
C29   C36   A    
C20   C26   S    
C1    C5    S    
C7    C45   A    
C60   H59   S    
C24   C26   A    
C65   O4    S    
C58   O7    S    
C6    C12   S    
C4    C65   A    
C64   O3    S    
C49   H33   S    
C20   O12   A    
C54   H47   S    
C21   O13   A    
C18   C19   S    
H76   N8    S    
C60   H58   S    
O11   Zn2   S    
C49   H32   S    
C46   C47   S    
C52   H41   S    
C16   N7    S    
C22   C25   A    
C40   H14   S    
C39   H9    S    
C57   H50   S    
C28   H12   S    
C10   O6    S    
C13   O8    S    
H5    N4    S    
C48   O4    S    
C52   H40   S    
C59   C60   S    
C34   H56   S    
C2    H77   S    
C43   H20   S    
C62   H63   S    
O12   Zn1   S    
C2    C6    A    
C22   C33   A    
C58   H54   S    
C44   C46   S    
O15   Zn2   S    
C59   H57   S    
C24   C35   A    
C13   C19   A    
C51   C52   S    
C43   H19   S    
C63   H68   S    
C42   H18   S    
C56   O2    S    
C24   N4    S    
C61   O8    S    
C39   C40   S    
C4    H2    S    
C5    C66   A    
C46   H25   S    
C58   C59   S    
H69   N5    S    
C51   O5    S    
C21   O14   A    
C30   C37   A    
C16   N1    A    
C3    H78   S    
C9    C14   A    
C32   C35   A    
C62   C63   S    
C54   O6    S    
C66   H67   S    
C11   C16   A    
C31   C32   A    
C14   N1    A    
C9    O5    S    
C10   C19   A    
C51   H39   S    
C41   H15   S    
N1    Zn2   S    
C31   C33   A    
C33   C34   A    
C47   H27   S    
C40   H13   S    
C54   H46   S    
C61   H61   S    
C39   H10   S    
C12   O9    A    
C1    O1    A    
H74   N7    S    
C8    C64   A    
O9    Zn2   S    
C48   C49   S    
C50   H36   S    
C23   C36   A    
C63   H65   S    
C55   C57   S    
H3    N3    S    
H71   N6    S    
C17   N8    S    
C42   C43   S    
C44   H24   S    
C52   C53   S    
C57   H51   S    
C41   O2    S    
C38   H8    S    
C53   H43   S    
O13   Zn2   S    
C20   O15   A    
C21   C25   S    
C54   C55   S    
C48   H30   S    
C44   O3    S    
C26   C28   A    
C7    C65   A    
C42   H17   S    
O14   Zn1   S    
C4    C5    A    
C15   N2    A    
C55   H48   S    
C25   C27   A    
C23   H45   S    
C23   C35   A    
C13   C17   A    
C10   C15   A    
C43   H21   S    
C60   H60   S    
C17   N2    A    
C51   H38   S    
C28   C30   A    
C29   C31   A    
H6    N4    S    
C30   C32   A    
C53   H42   S    
C38   C39   S    
O10   Zn1   S    
C55   H49   S    
C41   H16   S    
C14   N5    S    
H73   N7    S    
C58   H53   S    
C47   H28   S    
C63   H66   S    
C61   H62   S    
C15   N6    S    
C61   C62   S    
C45   O16   S    
C27   H1    S    
C12   O10   A    
C9    C18   A    
C50   H37   S    
C46   H26   S    
C22   N3    S    
C1    O11   A    
C50   H35   S    
C49   C50   S    
N2    Zn1   S    
O1    Zn1   S    
C45   C66   A    
C47   H29   S    
C40   H11   S    
C2    C56   A    
H4    N3    S    
C44   H22   S    
C37   H34   S    
H75   N8    S    
C57   H52   S    
C38   H7    S    
