data_mof_unit_2367.cif
_audit_creation_date              2013-03-05T16:34:52-0500
_audit_creation_method            fapswitch 2.2
_symmetry_space_group_name_H-M    P1
_symmetry_Int_Tables_number       1
_space_group_crystal_system       triclinic
_cell_length_a                    15.095616
_cell_length_b                    9.096501
_cell_length_c                    7.783058
_cell_angle_alpha                 89.994087
_cell_angle_beta                  90.021821
_cell_angle_gamma                 89.99901
_cell_volume                      1068.74831829

loop_
_atom_site_label
_atom_site_type_symbol
_atom_site_description
_atom_site_fract_x
_atom_site_fract_y
_atom_site_fract_z
_atom_type_partial_charge
O1    O     O_R   0.500000 0.288390 0.642760 -0.574191
O2    O     O_R   0.500000 0.711610 0.357240 -0.574191
O3    O     O_R   0.500000 0.711610 0.642760 -0.578509
O4    O     O_R   0.500000 0.288390 0.357240 -0.578509
C1    C     C_R   0.500000 0.220011 0.500005 0.847640
C2    C     C_R   0.500000 0.779989 0.499995 0.847640
O5    O     O_R   0.370260 0.500000 0.642800 -0.583125
O6    O     O_R   0.629740 0.500000 0.357200 -0.583126
O7    O     O_R   0.629740 0.500000 0.642800 -0.586012
O8    O     O_R   0.370260 0.500000 0.357200 -0.586011
C3    C     C_R   0.328225 0.500305 0.499949 0.800430
C4    C     C_R   0.671775 0.499695 0.500051 0.800430
Cu1   Cu    Cu3+1 0.500000 0.500000 0.669080 1.015135
Cu2   Cu    Cu3+1 0.500000 0.500000 0.330920 1.015135
N1    N     N_1   0.500000 0.500000 0.076820 -0.045683
N2    N     N_1   0.500000 0.500000 0.923180 -0.045683
C5    C     C_R   0.814386 0.544135 0.646328 -0.134856
C6    C     C_R   0.185614 0.455861 0.353673 -0.134856
C7    C     C_R   0.814399 0.450562 0.355119 -0.175819
C8    C     C_R   0.185601 0.549441 0.644879 -0.175818
C9    C     C_R   0.768402 0.498137 0.500428 -0.114213
C10   C     C_R   0.231598 0.501862 0.499572 -0.114211
C11   C     C_R   0.907122 0.444365 0.355067 -0.000542
C12   C     C_R   0.092878 0.555637 0.644932 -0.000544
C13   C     C_R   0.906916 0.547765 0.647245 0.040810
C14   C     C_R   0.093084 0.452232 0.352755 0.040814
C15   C     C_R   0.953593 0.498072 0.500529 -0.073959
C16   C     C_R   0.046407 0.501927 0.499471 -0.073958
C17   C     C_R   0.954243 0.388953 0.211425 0.293084
C18   C     C_R   0.045757 0.611049 0.788573 0.293086
C19   C     C_R   0.952521 0.602681 0.791507 0.410211
C20   C     C_R   0.047479 0.397315 0.208493 0.410193
C21   C     C_1   0.500000 0.065364 0.500007 -0.167638
C22   C     C_1   0.500000 0.934636 0.499993 -0.167639
O9    O     O_3   0.911432 0.325953 0.072943 -0.731653
H1    H     H_    0.862656 0.263835 0.117191 0.326508
O10   O     O_3   0.088567 0.674053 0.927050 -0.731658
H2    H     H_    0.137343 0.736170 0.882800 0.326509
O11   O     O_3   0.903793 0.651860 0.930998 -0.721730
H3    H     H_    0.943686 0.683413 0.024897 0.372953
O12   O     O_3   0.096208 0.348132 0.069004 -0.721740
H4    H     H_    0.056314 0.316582 0.975111 0.372961
H5    H     H_    0.777400 0.581214 0.757486 0.205626
H6    H     H_    0.222600 0.418779 0.242517 0.205625
H7    H     H_    0.776851 0.418912 0.242653 0.175542
H8    H     H_    0.223149 0.581094 0.757344 0.175540

loop_
_geom_bond_atom_site_label_1
_geom_bond_atom_site_label_2
_geom_bond_distance
_ccdc_geom_bond_type
C13   C19   1.408441 A    
C7    C11   1.400840 A    
C20   O12   1.385857 S    
C7    H7    1.081688 S    
C14   C20   1.408442 A    
O10   H2    0.990038 S    
C6    H6    1.083692 S    
C13   C15   1.416142 A    
O12   H4    0.989336 S    
C17   O9    1.381068 S    
C3    C10   1.458708 S    
C14   C16   1.416143 A    
O9    H1    0.990044 S    
O3    Cu1   1.935759 S    
O6    C4    1.279942 A    
O3    C2    1.273342 A    
C5    C13   1.397216 A    
C5    H5    1.083691 S    
C21   C22   1.189168 T    
Cu1   Cu2   2.631920 S    
O5    C3    1.279942 A    
O2    C2    1.273391 A    
O1    C1    1.273391 A    
C11   C17   1.417963 A    
C7    C9    1.396120 A    
C8    C10   1.396119 A    
C17   C20   1.409701 A    
C11   C15   1.418471 A    
C1    C21   1.406743 S    
O4    Cu2   1.935760 S    
C18   C19   1.409702 A    
O2    Cu2   1.935801 S    
O7    C4    1.279673 A    
C12   C18   1.417960 A    
O1    Cu1   1.935802 S    
O8    C3    1.279673 A    
N1    N2    1.195790 T    
C12   C16   1.418470 A    
O5    Cu1   1.969081 S    
O8    Cu2   1.969236 S    
Cu1   N2    1.977674 S    
O11   H3    0.989375 S    
O7    Cu1   1.969234 S    
Cu2   N1    1.977674 S    
O6    Cu2   1.969079 S    
C6    C10   1.394962 A    
C4    C9    1.458710 S    
C8    C12   1.400840 A    
C5    C9    1.394961 A    
C2    C22   1.406743 S    
C18   O10   1.381053 S    
C19   O11   1.385853 S    
O4    C1    1.273342 A    
C15   C16   1.401548 A    
C8    H8    1.081689 S    
C6    C14   1.397216 A    
