data_mof_unit_3491.cif
_audit_creation_date              2012-12-11T14:43:59-0500
_audit_creation_method            fapswitch 2.2
_symmetry_space_group_name_H-M    P1
_symmetry_Int_Tables_number       1
_space_group_crystal_system       triclinic
_cell_length_a                    18.957448
_cell_length_b                    10.934665
_cell_length_c                    18.895324
_cell_angle_alpha                 90.00171
_cell_angle_beta                  89.980821
_cell_angle_gamma                 89.954534
_cell_volume                      3916.87342715

loop_
_atom_site_label
_atom_site_type_symbol
_atom_type_description
_atom_site_fract_x
_atom_site_fract_y
_atom_site_fract_z
_atom_type_partial_charge
C1    C     C_R   0.730879 0.377416 0.146078 0.561323
C2    C     C_R   0.271945 0.371822 0.856347 0.568272
C3    C     C_R   0.230879 0.877416 0.146079 0.561326
C4    C     C_R   0.771945 0.871822 0.856348 0.568272
C5    C     C_R   0.526557 0.377721 0.922529 -0.093757
C6    C     C_R   0.509633 0.397568 0.068436 -0.088047
C7    C     C_R   0.026557 0.877720 0.922529 -0.093757
C8    C     C_R   0.009633 0.897568 0.068436 -0.088046
C9    C     C_R   0.034124 0.990692 0.955477 -0.120554
C10   C     C_R   0.024080 0.001129 0.027997 -0.118395
C11   C     C_R   0.534124 0.490692 0.955477 -0.120554
C12   C     C_R   0.524080 0.501129 0.027997 -0.118397
C13   C     C_R   0.689457 0.890524 0.037035 -0.115875
C14   C     C_R   0.304007 0.870432 0.962084 -0.117674
C15   C     C_R   0.189458 0.390523 0.037035 -0.115875
C16   C     C_R   0.804006 0.370429 0.962083 -0.117674
C17   C     C_R   0.694344 0.878305 0.963974 0.053657
C18   C     C_R   0.303980 0.856601 0.035248 0.072998
C19   C     C_R   0.194344 0.378305 0.963974 0.053657
C20   C     C_R   0.803979 0.356597 0.035248 0.072999
C21   C     C_R   0.760464 0.893590 0.931342 0.040211
C22   C     C_R   0.252504 0.919345 0.076088 0.036128
C23   C     C_R   0.260464 0.393590 0.931342 0.040211
C24   C     C_R   0.752503 0.419343 0.076088 0.036126
C25   C     C_R   0.820926 0.913145 0.973118 -0.133964
C26   C     C_R   0.209483 0.006860 0.043692 -0.146432
C27   C     C_R   0.320926 0.413148 0.973118 -0.133966
C28   C     C_R   0.709483 0.506860 0.043691 -0.146434
C29   C     C_R   0.815642 0.923799 0.045460 -0.124668
C30   C     C_R   0.210399 0.020274 0.971386 -0.130686
C31   C     C_R   0.315642 0.423801 0.045460 -0.124668
C32   C     C_R   0.710400 0.520275 0.971386 -0.130686
C33   C     C_R   0.749700 0.918034 0.077451 0.006680
C34   C     C_R   0.255372 0.948358 0.929752 0.006836
C35   C     C_R   0.249700 0.418034 0.077451 0.006680
C36   C     C_R   0.755372 0.448358 0.929752 0.006837
C37   C     C_R   0.466932 0.075839 0.454376 -0.129892
C38   C     C_R   0.455023 0.072044 0.526285 -0.119217
C39   C     C_R   0.966965 0.575793 0.454383 -0.129929
C40   C     C_R   0.955066 0.571995 0.526293 -0.119230
C41   C     C_R   0.484034 0.161509 0.571035 0.024511
C42   C     C_R   0.508873 0.168401 0.426361 0.043961
C43   C     C_R   0.984035 0.661508 0.571034 0.024502
C44   C     C_R   0.008861 0.668400 0.426357 0.043913
C45   C     C_R   0.530849 0.156564 0.147141 0.546788
C46   C     C_R   0.466705 0.154811 0.854442 0.544500
C47   C     C_R   0.030849 0.656565 0.147141 0.546783
C48   C     C_R   0.966705 0.654811 0.854442 0.544501
C49   C     C_R   0.524032 0.256761 0.543131 -0.132417
C50   C     C_R   0.537602 0.259024 0.470836 -0.098799
C51   C     C_R   0.023982 0.756807 0.543119 -0.132423
C52   C     C_R   0.037548 0.759069 0.470823 -0.098813
C53   C     C_R   0.818633 0.926829 0.457076 0.074348
C54   C     C_R   0.194772 0.997328 0.530174 0.076169
C55   C     C_R   0.318633 0.426742 0.457064 0.074328
C56   C     C_R   0.694766 0.497311 0.530177 0.076140
C57   C     C_R   0.823214 0.914667 0.529466 -0.102438
C58   C     C_R   0.198330 0.992690 0.457702 -0.115188
C59   C     C_R   0.323223 0.414563 0.529454 -0.102429
C60   C     C_R   0.698324 0.492680 0.457704 -0.115203
C61   C     C_R   0.762521 0.897085 0.570863 0.006514
C62   C     C_R   0.246951 0.916854 0.423903 -0.001254
C63   C     C_R   0.262525 0.397066 0.570860 0.006538
C64   C     C_R   0.746950 0.416857 0.423903 -0.001254
C65   C     C_R   0.696785 0.884890 0.538824 -0.129538
C66   C     C_R   0.298189 0.854720 0.463543 -0.147340
C67   C     C_R   0.196778 0.384958 0.538833 -0.129529
C68   C     C_R   0.798195 0.354736 0.463541 -0.147326
C69   C     C_R   0.691396 0.896515 0.465918 -0.144927
C70   C     C_R   0.299309 0.867112 0.536779 -0.170073
C71   C     C_R   0.191382 0.396592 0.465928 -0.144906
C72   C     C_R   0.799316 0.367127 0.536776 -0.170046
C73   C     C_R   0.751767 0.921900 0.424845 0.029503
C74   C     C_R   0.248040 0.938611 0.570897 0.029560
C75   C     C_R   0.251758 0.421899 0.424846 0.029507
C76   C     C_R   0.748040 0.438607 0.570898 0.029566
C77   C     C_R   0.741343 0.968179 0.147924 0.553216
C78   C     C_R   0.260233 0.975880 0.854865 0.545267
C79   C     C_R   0.241343 0.468179 0.147924 0.553221
C80   C     C_R   0.760233 0.475879 0.854865 0.545265
C81   C     C_R   0.729980 0.378892 0.352328 0.539645
C82   C     C_R   0.272407 0.373913 0.645597 0.551921
C83   C     C_R   0.229980 0.878891 0.352329 0.539655
C84   C     C_R   0.772406 0.873917 0.645598 0.551929
C85   C     C_R   0.533838 0.157474 0.354324 0.553722
C86   C     C_R   0.465494 0.156426 0.645209 0.545872
C87   C     C_R   0.033834 0.657474 0.354322 0.553699
C88   C     C_R   0.965492 0.656425 0.645208 0.545887
C89   C     C_R   0.741764 0.970122 0.354032 0.558191
C90   C     C_R   0.258420 0.973695 0.644508 0.554675
C91   C     C_R   0.241763 0.470123 0.354032 0.558202
C92   C     C_R   0.758420 0.473694 0.644508 0.554681
C93   C     C_R   0.488430 0.161522 0.928749 0.014935
C94   C     C_R   0.498805 0.170187 0.076782 -0.006285
C95   C     C_R   0.988429 0.661522 0.928749 0.014935
C96   C     C_R   0.998804 0.670187 0.076782 -0.006286
C97   C     C_R   0.507092 0.273014 0.961828 0.014140
C98   C     C_R   0.505097 0.280436 0.036730 0.021183
C99   C     C_R   0.007092 0.773014 0.961828 0.014140
C100  C     C_R   0.005097 0.780435 0.036730 0.021183
C101  C     C_R   0.479289 0.062480 0.042850 -0.144659
C102  C     C_R   0.472784 0.058842 0.970529 -0.119300
C103  C     C_R   0.979288 0.562480 0.042850 -0.144660
C104  C     C_R   0.972783 0.558842 0.970529 -0.119300
Cr1   Cr    Cr6+3 0.772000 0.169640 0.250110 1.080996
Cr2   Cr    Cr6+3 0.228000 0.169640 0.749890 1.079904
Cr3   Cr    Cr6+3 0.272000 0.669640 0.250110 1.080991
Cr4   Cr    Cr6+3 0.728000 0.669640 0.749890 1.079904
Cr5   Cr    Cr6+3 0.614960 0.323350 0.249260 1.040064
Cr6   Cr    Cr6+3 0.385040 0.323350 0.750740 1.034572
Cr7   Cr    Cr6+3 0.114960 0.823350 0.249260 1.040055
Cr8   Cr    Cr6+3 0.885040 0.823350 0.750740 1.034563
Cr9   Cr    Cr6+3 0.616670 0.010620 0.250840 1.036442
Cr10  Cr    Cr6+3 0.383330 0.010620 0.749160 1.047300
Cr11  Cr    Cr6+3 0.116670 0.510620 0.250840 1.036447
Cr12  Cr    Cr6+3 0.883330 0.510620 0.749160 1.047297
H1    H     H_    0.471946 0.978497 0.072182 0.176897
H2    H     H_    0.454955 0.973664 0.947449 0.179300
H3    H     H_    0.971945 0.478497 0.072182 0.176895
H4    H     H_    0.954954 0.473664 0.947449 0.179299
H5    H     H_    0.875188 0.917897 0.553236 0.173084
H6    H     H_    0.158004 0.040395 0.427851 0.169432
H7    H     H_    0.375203 0.417718 0.553217 0.173074
H8    H     H_    0.657993 0.540375 0.427855 0.169433
H9    H     H_    0.649866 0.868789 0.570148 0.164573
H10   H     H_    0.335615 0.793706 0.438390 0.161738
H11   H     H_    0.149855 0.368921 0.570166 0.164536
H12   H     H_    0.835627 0.293735 0.438386 0.161744
H13   H     H_    0.639303 0.893221 0.442446 0.158905
H14   H     H_    0.340343 0.821394 0.566661 0.143526
H15   H     H_    0.139282 0.393371 0.442465 0.158904
H16   H     H_    0.840356 0.321420 0.566657 0.143511
H17   H     H_    0.536634 0.373592 0.866292 0.144149
H18   H     H_    0.498906 0.412121 0.123910 0.149544
H19   H     H_    0.036634 0.873591 0.866292 0.144148
H20   H     H_    0.998906 0.912121 0.123910 0.149541
H21   H     H_    0.046974 0.070625 0.924385 0.155726
H22   H     H_    0.028338 0.089681 0.053188 0.151954
H23   H     H_    0.546974 0.570626 0.924385 0.155727
H24   H     H_    0.528338 0.589682 0.053188 0.151954
H25   H     H_    0.637763 0.886383 0.061365 0.161861
H26   H     H_    0.342551 0.821469 0.930587 0.153909
H27   H     H_    0.137763 0.386381 0.061365 0.161861
H28   H     H_    0.842549 0.321466 0.930586 0.153909
H29   H     H_    0.873042 0.919931 0.950036 0.163995
H30   H     H_    0.171902 0.060528 0.073789 0.142193
H31   H     H_    0.373042 0.419934 0.950036 0.163995
H32   H     H_    0.671903 0.560529 0.073789 0.142192
H33   H     H_    0.862575 0.943566 0.075971 0.157861
H34   H     H_    0.176074 0.088516 0.948302 0.164878
H35   H     H_    0.362575 0.443569 0.075971 0.157863
H36   H     H_    0.676076 0.588517 0.948302 0.164878
H37   H     H_    0.445354 0.004435 0.421009 0.134651
H38   H     H_    0.422640 0.999033 0.547006 0.145297
H39   H     H_    0.945420 0.504353 0.421025 0.134678
H40   H     H_    0.922722 0.498945 0.547019 0.145314
H41   H     H_    0.545930 0.326397 0.577307 0.157366
H42   H     H_    0.571946 0.329433 0.449972 0.165117
H43   H     H_    0.045843 0.826484 0.577286 0.157391
H44   H     H_    0.071858 0.829517 0.449951 0.165166
O1    O     O_R   0.787540 0.042690 0.170470 -0.483886
O2    O     O_R   0.212460 0.042690 0.829530 -0.513941
O3    O     O_R   0.287540 0.542690 0.170470 -0.483885
O4    O     O_R   0.712460 0.542690 0.829530 -0.513940
O5    O     O_R   0.556540 0.252920 0.323970 -0.489068
O6    O     O_R   0.443460 0.252920 0.676030 -0.500759
O7    O     O_R   0.056540 0.752920 0.323970 -0.489092
O8    O     O_R   0.943460 0.752920 0.676030 -0.500761
O9    O     O_R   0.545870 0.051100 0.330840 -0.522256
O10   O     O_R   0.454130 0.051100 0.669160 -0.511541
O11   O     O_R   0.045870 0.551100 0.330840 -0.522264
O12   O     O_R   0.954130 0.551100 0.669160 -0.511557
O13   O     O_R   0.681340 0.959300 0.325510 -0.515989
O14   O     O_R   0.318660 0.959300 0.674490 -0.513095
O15   O     O_R   0.181340 0.459300 0.325510 -0.515985
O16   O     O_R   0.818660 0.459300 0.674490 -0.513092
O17   O     O_3   0.667880 0.167870 0.250070 -0.260759
O18   O     O_3   0.332120 0.167870 0.749930 -0.270689
O19   O     O_3   0.167880 0.667870 0.250070 -0.260755
O20   O     O_3   0.832120 0.667870 0.749930 -0.270681
O21   O     O_R   0.765660 0.292160 0.175050 -0.464009
O22   O     O_R   0.234340 0.292160 0.824950 -0.471237
O23   O     O_R   0.265660 0.792160 0.175050 -0.464009
O24   O     O_R   0.734340 0.792160 0.824950 -0.471236
O25   O     O_R   0.670190 0.408980 0.168550 -0.527467
O26   O     O_R   0.329810 0.408980 0.831450 -0.524941
O27   O     O_R   0.170190 0.908980 0.168550 -0.527466
O28   O     O_R   0.829810 0.908980 0.831450 -0.524942
O29   O     O_R   0.556580 0.251450 0.175160 -0.509058
O30   O     O_R   0.443420 0.251450 0.824840 -0.519541
O31   O     O_R   0.056580 0.751450 0.175160 -0.509062
O32   O     O_R   0.943420 0.751450 0.824840 -0.519541
O33   O     O_R   0.545920 0.049510 0.170320 -0.510542
O34   O     O_R   0.454080 0.049510 0.829680 -0.495943
O35   O     O_R   0.045920 0.549510 0.170320 -0.510541
O36   O     O_R   0.954080 0.549510 0.829680 -0.495942
O37   O     O_R   0.681390 0.957840 0.176710 -0.511158
O38   O     O_R   0.318610 0.957840 0.823290 -0.506430
O39   O     O_R   0.181390 0.457840 0.176710 -0.511155
O40   O     O_R   0.818610 0.457840 0.823290 -0.506432
O41   O     O_R   0.787500 0.044280 0.330990 -0.478354
O42   O     O_R   0.212500 0.044280 0.669010 -0.474791
O43   O     O_R   0.287500 0.544280 0.330990 -0.478362
O44   O     O_R   0.712500 0.544280 0.669010 -0.474793
O45   O     O_R   0.765610 0.293630 0.323860 -0.497922
O46   O     O_R   0.234390 0.293630 0.676140 -0.478576
O47   O     O_R   0.265610 0.793630 0.323860 -0.497934
O48   O     O_R   0.734390 0.793630 0.676140 -0.478584
O49   O     O_R   0.670140 0.410570 0.329080 -0.524575
O50   O     O_R   0.329860 0.410570 0.670920 -0.520109
O51   O     O_R   0.170140 0.910570 0.329080 -0.524570
O52   O     O_R   0.829860 0.910570 0.670920 -0.520127
I1    I     I_    0.915899 0.958694 0.403270 -0.370481
I2    I     I_    0.102363 0.091488 0.567178 -0.398970
I3    I     I_    0.415898 0.458499 0.403232 -0.370426
I4    I     I_    0.602347 0.591435 0.567186 -0.398984
I5    I     I_    0.599190 0.845909 0.907723 -0.422144
I6    I     I_    0.385013 0.741834 0.075964 -0.430327
I7    I     I_    0.099189 0.345908 0.907723 -0.422146
I8    I     I_    0.885010 0.241826 0.075961 -0.430324

loop_
_geom_bond_atom_site_label_1
_geom_bond_atom_site_label_2
_ccdc_geom_bond_type
C52   H44   S    
C89   O41   A    
C62   C83   S    
C14   H26   S    
C15   C19   A    
C58   C62   A    
C101  C102  A    
C56   C76   A    
C48   C95   S    
C55   C59   A    
C8    H20   S    
C77   O37   A    
C14   C18   A    
C81   O49   A    
C86   O6    A    
C89   O13   A    
C72   C76   A    
C33   C77   S    
C1    O21   A    
C97   C98   A    
C71   C75   A    
C50   H42   S    
C5    H17   S    
C41   C86   S    
Cr4   O4    S    
Cr4   O20   S    
C7    C99   A    
C88   O12   A    
C43   C88   S    
Cr8   O52   S    
C47   O35   A    
C16   H28   S    
C5    C11   A    
C55   I3    S    
Cr12  O40   S    
C95   C99   A    
C30   H34   S    
Cr8   O32   S    
C94   C98   A    
Cr8   O8    S    
C29   C33   A    
C70   H14   S    
Cr12  O12   S    
C7    C9    A    
C2    O22   A    
C81   O45   A    
C15   C35   A    
C37   C42   A    
C26   H30   S    
C11   H23   S    
Cr10  O10   S    
Cr2   O22   S    
Cr11  O15   S    
C103  C104  A    
Cr1   O21   S    
C54   C74   A    
Cr9   O37   S    
C9    H21   S    
C40   C43   A    
C80   O4    A    
C20   C24   A    
C94   C101  A    
Cr5   O29   S    
Cr10  O18   S    
C70   C74   A    
C83   O47   A    
Cr4   O48   S    
C12   H24   S    
C46   O34   A    
C13   H25   S    
C44   C87   S    
C9    C10   A    
C68   H12   S    
Cr3   O47   S    
C92   O44   A    
C75   C91   S    
Cr8   O20   S    
C55   C75   A    
C44   C52   A    
Cr9   O17   S    
C18   C22   A    
C48   O36   A    
Cr7   O19   S    
Cr7   O27   S    
C20   I8    S    
C49   H41   S    
Cr3   O43   S    
Cr6   O50   S    
C74   C90   S    
C46   O30   A    
Cr5   O49   S    
C45   C94   S    
C41   C49   A    
C59   H7    S    
C72   H16   S    
Cr7   O51   S    
C83   O51   A    
C25   C29   A    
C63   C67   A    
C58   H6    S    
C79   O39   A    
C30   C34   A    
C63   C82   S    
C27   C31   A    
C51   C52   A    
C6    C98   A    
C37   H37   S    
Cr7   O31   S    
C28   C32   A    
C38   C41   A    
Cr11  O11   S    
C21   C25   A    
C36   C80   S    
C47   C96   S    
Cr1   O17   S    
C39   C40   A    
C62   C66   A    
C82   O50   A    
Cr9   O9    S    
C88   O8    A    
Cr11  O39   S    
Cr6   O30   S    
C85   O9    A    
C56   C60   A    
C48   O32   A    
C39   H39   S    
C68   C72   A    
C45   O33   A    
C65   H9    S    
C19   C23   A    
C17   C21   A    
C2    O26   A    
Cr2   O46   S    
C37   C38   A    
C67   H11   S    
Cr2   O42   S    
C31   H35   S    
C84   O48   A    
C93   C97   A    
Cr1   O41   S    
C99   C100  A    
C32   H36   S    
C16   C20   A    
C87   O11   A    
C84   O52   A    
C91   O15   A    
Cr4   O44   S    
C42   C85   S    
C4    O24   A    
C69   C73   A    
Cr5   O5    S    
C76   C92   S    
C15   H27   S    
Cr12  O16   S    
C45   O29   A    
C42   C50   A    
C78   O2    A    
C23   C27   A    
Cr12  O20   S    
Cr10  O38   S    
C49   C50   A    
Cr1   O1    S    
C35   C79   S    
C34   C78   S    
C19   I7    S    
C38   H38   S    
C18   I6    S    
C64   C68   A    
C82   O46   A    
C17   I5    S    
C95   C104  A    
Cr9   O13   S    
Cr8   O28   S    
C54   C58   A    
C54   I2    S    
Cr11  O35   S    
Cr6   O26   S    
C53   I1    S    
Cr10  O34   S    
Cr3   O19   S    
C86   O10   A    
C28   H32   S    
Cr9   O33   S    
C92   O16   A    
C8    C10   A    
C103  H3    S    
C24   C28   A    
C79   O3    A    
C61   C84   S    
C53   C57   A    
C93   C102  A    
C14   C34   A    
C11   C12   A    
C32   C36   A    
C57   C61   A    
C39   C44   A    
Cr1   O45   S    
C60   H8    S    
C73   C89   S    
C87   O7    A    
Cr5   O25   S    
C90   O14   A    
C59   C63   A    
C13   C17   A    
C60   C64   A    
C85   O5    A    
C1    O25   A    
C4    O28   A    
Cr4   O24   S    
C8    C100  A    
C66   H10   S    
C101  H1    S    
C6    H18   S    
C27   H31   S    
C1    C24   S    
C16   C36   A    
C6    C12   A    
C4    C21   S    
Cr6   O6    S    
C43   C51   A    
C66   C70   A    
C46   C93   S    
C3    O23   A    
C65   C69   A    
C53   C73   A    
C96   C100  A    
C31   C35   A    
C51   H43   S    
C77   O1    A    
C5    C97   A    
C78   O38   A    
C67   C71   A    
Cr2   O2    S    
C61   C65   A    
C47   O31   A    
C102  H2    S    
Cr11  O19   S    
C64   C81   S    
C56   I4    S    
C29   H33   S    
C7    H19   S    
C57   H5    S    
Cr12  O36   S    
Cr5   O17   S    
Cr10  O14   S    
Cr7   O7    S    
C71   H15   S    
C69   H13   S    
C13   C33   A    
C22   C26   A    
C96   C103  A    
Cr3   O23   S    
C2    C23   S    
Cr6   O18   S    
C40   H40   S    
C3    C22   S    
C25   H29   S    
Cr3   O3    S    
C10   H22   S    
C90   O42   A    
C3    O27   A    
Cr2   O18   S    
C91   O43   A    
C104  H4    S    
C26   C30   A    
C80   O40   A    
