data_mof_unit_4979.cif
_audit_creation_date              2013-03-05T15:44:04-0500
_audit_creation_method            fapswitch 2.2
_symmetry_space_group_name_H-M    P1
_symmetry_Int_Tables_number       1
_space_group_crystal_system       triclinic
_cell_length_a                    6.941072
_cell_length_b                    18.266059
_cell_length_c                    18.729317
_cell_angle_alpha                 89.935811
_cell_angle_beta                  89.780696
_cell_angle_gamma                 90.761727
_cell_volume                      2374.38688731

loop_
_atom_site_label
_atom_site_type_symbol
_atom_site_description
_atom_site_fract_x
_atom_site_fract_y
_atom_site_fract_z
_atom_type_partial_charge
O1    O     O_R   0.377350 0.828520 0.186660 -0.533736
O2    O     O_R   0.622650 0.171480 0.813340 -0.534539
O3    O     O_R   0.122650 0.171480 0.686660 -0.537008
O4    O     O_R   0.877350 0.828520 0.313340 -0.533183
O5    O     O_R   0.877350 0.671480 0.313340 -0.555678
O6    O     O_R   0.122650 0.328520 0.686660 -0.547395
O7    O     O_R   0.622650 0.328520 0.813340 -0.546047
O8    O     O_R   0.377350 0.671480 0.186660 -0.539554
O9    O     O_R   0.707090 0.671930 0.178410 -0.517412
O10   O     O_R   0.292910 0.328070 0.821590 -0.529369
O11   O     O_R   0.792910 0.328070 0.678410 -0.563202
O12   O     O_R   0.207090 0.671930 0.321590 -0.554894
O13   O     O_R   0.207090 0.828070 0.321590 -0.508275
O14   O     O_R   0.792910 0.171930 0.678410 -0.505883
O15   O     O_R   0.292910 0.171930 0.821590 -0.512435
O16   O     O_R   0.707090 0.828070 0.178410 -0.518946
C1    C     C_R   0.538284 0.645537 0.161924 0.927665
C2    C     C_R   0.461817 0.352993 0.839492 0.924829
C3    C     C_R   0.962094 0.353195 0.660934 0.996498
C4    C     C_R   0.037824 0.645993 0.338328 0.976902
C5    C     C_R   0.039613 0.854580 0.337902 0.957106
C6    C     C_R   0.960599 0.146096 0.661314 0.969387
C7    C     C_R   0.460182 0.145840 0.838361 0.933705
C8    C     C_R   0.540137 0.853481 0.160863 0.945077
O17   O     O_3   0.543850 0.750000 0.294270 -0.260619
O18   O     O_3   0.456150 0.250000 0.705730 -0.261761
O19   O     O_3   0.956150 0.250000 0.794270 -0.238340
O20   O     O_3   0.043850 0.750000 0.205730 -0.238114
V1    V     V_3+5 0.818700 0.750000 0.241790 1.356648
V2    V     V_3+5 0.181300 0.250000 0.758210 1.347081
V3    V     V_3+5 0.681300 0.250000 0.741790 1.335872
V4    V     V_3+5 0.318700 0.750000 0.258210 1.349402
C9    C     C_R   0.970821 0.414710 0.608634 -0.221021
C10   C     C_R   0.029771 0.583525 0.389882 -0.214339
C11   C     C_R   0.535198 0.582823 0.110308 -0.219572
C12   C     C_R   0.466062 0.414762 0.891755 -0.211752
C13   C     C_R   0.460850 0.083120 0.889839 -0.227426
C14   C     C_R   0.541855 0.914507 0.107479 -0.224376
C15   C     C_R   0.039266 0.916824 0.389984 -0.212257
C16   C     C_R   0.961379 0.083947 0.609120 -0.220512
C17   C     C_R   0.073608 0.453188 0.415146 0.415821
C18   C     C_R   0.949852 0.546461 0.586427 0.401667
C19   C     C_R   0.316791 0.527648 0.934053 0.413412
C20   C     C_R   0.697341 0.474076 0.063906 0.437403
C21   C     C_R   0.725349 0.015055 0.052383 0.443337
C22   C     C_R   0.286659 0.978080 0.941319 0.412168
C23   C     C_R   0.784819 0.979766 0.557398 0.414074
C24   C     C_R   0.224624 0.016237 0.445499 0.443600
C25   C     C_R   0.078145 0.513196 0.366485 0.258547
C26   C     C_R   0.958321 0.486399 0.634644 0.260063
C27   C     C_R   0.347587 0.475046 0.879505 0.282042
C28   C     C_R   0.676072 0.528623 0.117139 0.317817
C29   C     C_R   0.692398 0.966607 0.110354 0.298769
C30   C     C_R   0.307025 0.032210 0.887595 0.329678
C31   C     C_R   0.807541 0.033020 0.611687 0.321498
C32   C     C_R   0.192940 0.967488 0.387876 0.312594
C33   C     C_R   0.978206 0.594548 0.461934 0.286370
C34   C     C_R   0.982161 0.402563 0.534001 0.289836
C35   C     C_R   0.574811 0.411918 0.955138 0.286242
C36   C     C_R   0.400905 0.577748 0.053802 0.292793
C37   C     C_R   0.411479 0.916275 0.049798 0.274119
C38   C     C_R   0.600348 0.078002 0.944459 0.277230
C39   C     C_R   0.100296 0.079194 0.553778 0.301265
C40   C     C_R   0.897995 0.922813 0.444060 0.289921
C41   C     C_R   0.978403 0.535348 0.511891 -0.135936
C42   C     C_R   0.009427 0.463209 0.486584 -0.137744
C43   C     C_R   0.566672 0.470044 0.005899 -0.137627
C44   C     C_R   0.425633 0.525139 0.998190 -0.138547
C45   C     C_R   0.424514 0.972799 0.997074 -0.144152
C46   C     C_R   0.583838 0.022688 0.998246 -0.130955
C47   C     C_R   0.081989 0.024325 0.499567 -0.135053
C48   C     C_R   0.918566 0.976038 0.499757 -0.149799
N1    N     N_R   0.941071 0.330681 0.505744 0.146133
O21   O     O_R   0.994267 0.272240 0.539489 -0.350428
O22   O     O_R   0.822594 0.323418 0.452428 -0.261075
N2    N     N_R   0.913525 0.665283 0.482690 0.137765
O23   O     O_R   0.030816 0.721411 0.480569 -0.320705
O24   O     O_R   0.733031 0.674017 0.499161 -0.261836
N3    N     N_R   0.232395 0.622123 0.055924 0.149076
O25   O     O_R   0.247361 0.692912 0.054779 -0.258555
O26   O     O_R   0.063111 0.591590 0.062677 -0.328081
N4    N     N_R   0.670644 0.345510 0.972781 0.127970
O27   O     O_R   0.618297 0.309838 0.029945 -0.259225
O28   O     O_R   0.826675 0.327112 0.938951 -0.270305
N5    N     N_R   0.748075 0.133338 0.948854 0.134782
O29   O     O_R   0.897043 0.130762 0.906714 -0.300343
O30   O     O_R   0.751062 0.177780 0.002934 -0.220718
N6    N     N_R   0.283965 0.855160 0.039547 0.135324
O31   O     O_R   0.309982 0.813020 0.984456 -0.268852
O32   O     O_R   0.122929 0.850919 0.075189 -0.278027
N7    N     N_R   0.733793 0.874703 0.441617 0.133455
O33   O     O_R   0.594436 0.887308 0.397358 -0.316801
O34   O     O_R   0.724017 0.817786 0.483038 -0.213715
N8    N     N_R   0.250636 0.133840 0.549707 0.141932
O35   O     O_R   0.258584 0.178679 0.495707 -0.214687
O36   O     O_R   0.396650 0.130595 0.592793 -0.310357
O37   O     O_3   0.949379 0.495793 0.707814 -0.699473
H1    H     H_    0.992533 0.546067 0.719942 0.329161
O38   O     O_3   0.124586 0.504491 0.295196 -0.706781
H2    H     H_    0.093075 0.453612 0.280736 0.327965
O39   O     O_3   0.787863 0.528773 0.178075 -0.676872
H3    H     H_    0.821717 0.477628 0.189720 0.324019
O40   O     O_3   0.264587 0.481679 0.813022 -0.688228
H4    H     H_    0.255297 0.534482 0.801651 0.323086
O41   O     O_3   0.177522 0.036984 0.831741 -0.690880
H5    H     H_    0.051508 0.015628 0.846009 0.342508
O42   O     O_3   0.808980 0.968074 0.170094 -0.693064
H6    H     H_    0.866139 0.017785 0.175204 0.326296
O43   O     O_3   0.309570 0.968969 0.327817 -0.680288
H7    H     H_    0.366861 0.018657 0.322446 0.326856
O44   O     O_3   0.680070 0.036678 0.668622 -0.694285
H8    H     H_    0.553122 0.016205 0.654588 0.344521
O45   O     O_3   0.146618 0.385928 0.395991 -0.629066
H9    H     H_    0.248804 0.393336 0.359540 0.327813
O46   O     O_3   0.922781 0.616364 0.612034 -0.633670
H10   H     H_    0.826221 0.613806 0.651116 0.326143
O47   O     O_3   0.187760 0.583562 0.923753 -0.638483
H11   H     H_    0.081546 0.565485 0.892969 0.327499
O48   O     O_3   0.853657 0.427880 0.064695 -0.636044
H12   H     H_    0.961947 0.451591 0.090479 0.335224
O49   O     O_3   0.899781 0.051938 0.046132 -0.636785
H13   H     H_    0.001231 0.023423 0.070236 0.327519
O50   O     O_3   0.127519 0.932114 0.941140 -0.649260
H14   H     H_    0.113373 0.912111 0.892221 0.327963
O51   O     O_3   0.631947 0.930972 0.560909 -0.647077
H15   H     H_    0.623685 0.911891 0.610427 0.327297
O52   O     O_3   0.399260 0.052916 0.451725 -0.636531
H16   H     H_    0.500837 0.025294 0.426602 0.337210

loop_
_geom_bond_atom_site_label_1
_geom_bond_atom_site_label_2
_geom_bond_distance
_ccdc_geom_bond_type
C36   N3    1.432325 S    
C9    C34   1.417631 A    
N1    O21   1.298481 A    
N6    O32   1.301108 A    
O13   V4    2.017168 S    
O44   H8    0.989248 S    
C35   N4    1.430145 S    
O14   V3    2.017169 S    
C12   C35   1.410482 A    
C19   C27   1.420781 A    
O37   H1    0.989083 S    
O50   H14   0.991514 S    
O5    C4    1.301433 A    
N5    O29   1.299782 A    
O6    C3    1.301625 A    
C39   N8    1.436182 S    
O11   C3    1.295824 A    
O39   H3    0.990614 S    
C16   C39   1.416487 A    
C33   N2    1.427342 S    
O20   V1    1.700102 S    
N2    O24   1.301013 A    
N7    O34   1.297405 A    
C27   O40   1.379881 S    
O46   H10   0.991222 S    
C38   C46   1.429177 A    
O10   V2    2.006066 S    
C22   C45   1.423104 A    
C35   C43   1.427518 A    
C34   C42   1.429178 A    
O38   H2    0.990198 S    
C19   C44   1.422527 A    
C26   O37   1.382572 S    
C18   C41   1.424391 A    
C8    C14   1.496493 S    
O42   H6    0.990962 S    
O4    V1    2.002892 S    
O9    V1    2.006067 S    
C16   C31   1.407468 A    
C4    C10   1.494283 S    
C20   C28   1.419004 A    
O17   V4    1.704848 S    
O15   C7    1.300374 A    
O11   V3    2.000658 S    
O18   V3    1.704848 S    
O16   C8    1.297385 A    
O12   V4    2.000660 S    
O19   V2    1.700102 S    
N1    O22   1.301801 A    
O12   C4    1.298129 A    
C45   C46   1.423837 A    
C17   C25   1.424675 A    
C23   O51   1.377968 S    
O5    V1    2.008486 S    
O2    C7    1.300801 A    
N5    O30   1.298808 A    
O17   V1    2.142729 S    
C38   N5    1.432881 S    
C28   O39   1.382525 S    
O7    V3    2.008550 S    
O19   V3    2.149418 S    
C43   C44   1.420896 A    
O8    V4    2.008551 S    
O20   V4    2.149418 S    
N2    O23   1.301131 A    
C3    C9    1.490300 S    
C17   O45   1.382408 S    
N7    O33   1.299014 A    
N3    O26   1.299605 A    
C20   O48   1.383438 S    
C21   O49   1.382216 S    
C9    C26   1.401322 A    
C7    C13   1.496603 S    
O1    V4    1.998652 S    
O2    V3    1.998653 S    
O3    V2    2.002893 S    
C15   C40   1.412352 A    
C37   N6    1.428972 S    
C25   O38   1.382200 S    
C29   O42   1.383428 S    
C15   C32   1.403244 A    
C5    C15   1.498918 S    
O7    C2    1.302142 A    
C6    C16   1.498982 S    
C22   C30   1.415293 A    
O13   C5    1.300666 A    
N8    O36   1.299863 A    
O49   H13   0.991265 S    
C12   C27   1.402287 A    
C18   C26   1.422157 A    
C13   C30   1.407317 A    
O9    C1    1.299497 A    
O6    V2    2.008485 S    
C39   C47   1.432286 A    
O18   V2    2.142729 S    
N4    O28   1.300859 A    
O51   H15   0.991594 S    
C22   O50   1.378578 S    
C24   C47   1.422677 A    
O52   H16   0.990214 S    
C32   O43   1.383399 S    
C11   C28   1.406796 A    
O15   V2    2.018778 S    
C23   C31   1.415731 A    
O45   H9    0.990453 S    
C37   C45   1.429628 A    
C24   C32   1.415918 A    
C10   C25   1.402375 A    
C30   O41   1.385279 S    
C31   O44   1.385255 S    
C21   C46   1.422427 A    
C33   C41   1.429190 A    
C20   C43   1.419265 A    
O48   H12   0.990134 S    
C17   C42   1.421385 A    
O41   H5    0.988704 S    
O8    C1    1.302922 A    
C14   C37   1.412544 A    
O16   V1    2.018777 S    
C47   C48   1.427594 A    
C41   C42   1.419694 A    
O43   H7    0.990902 S    
C24   O52   1.382550 S    
O4    C5    1.302655 A    
O14   C6    1.300790 A    
C14   C29   1.405181 A    
O10   C2    1.297437 A    
C10   C33   1.410166 A    
C40   C48   1.433014 A    
N8    O35   1.301253 A    
C23   C48   1.423420 A    
C21   C29   1.415938 A    
N3    O25   1.295977 A    
C18   O46   1.379403 S    
N6    O31   1.301450 A    
C36   C44   1.429347 A    
O1    C8    1.303709 A    
N4    O27   1.300782 A    
O40   H4    0.990496 S    
C19   O47   1.381185 S    
C13   C38   1.415125 A    
C11   C36   1.415274 A    
O3    C6    1.302399 A    
C1    C11   1.499755 S    
C40   N7    1.430802 S    
O47   H11   0.991051 S    
C2    C12   1.494596 S    
C34   N1    1.441592 S    
