data_mof_unit_3301.cif
_audit_creation_date              2013-03-05T16:12:49-0500
_audit_creation_method            fapswitch 2.2
_symmetry_space_group_name_H-M    P1
_symmetry_Int_Tables_number       1
_space_group_crystal_system       triclinic
_cell_length_a                    8.205836
_cell_length_b                    16.31941
_cell_length_c                    18.762328
_cell_angle_alpha                 111.724408
_cell_angle_beta                  90.677917
_cell_angle_gamma                 84.353849
_cell_volume                      2321.9469096

loop_
_atom_site_label
_atom_site_type_symbol
_atom_site_description
_atom_site_fract_x
_atom_site_fract_y
_atom_site_fract_z
_atom_type_partial_charge
P1    P     P_3+3 0.582960 0.413890 0.320860 0.409103
O1    O     O_2   0.402610 0.439360 0.314250 -0.309117
O2    O     O_3   0.648560 0.446300 0.404730 -0.363974
O3    O     O_3   0.108870 0.604000 0.387500 -0.308756
O4    O     O_2   0.255389 0.534777 0.250113 -0.409793
O5    O     O_3   0.595591 0.298071 0.281129 -0.553054
O6    O     O_3   0.118618 0.695818 0.285697 -0.512284
H1    H     H_    0.111319 0.766452 0.403004 0.148531
C1    C     C_3   0.040588 0.851195 0.341304 -0.822821
H2    H     H_    0.167902 0.864781 0.334018 0.301314
H3    H     H_    0.969737 0.849985 0.290182 0.252953
P2    P     P_3+3 0.071690 0.707860 0.593450 0.454877
P3    P     P_3+3 0.500249 0.764391 0.449161 0.481332
O7    O     O_2   0.241370 0.719440 0.573960 -0.381447
O8    O     O_3   0.507090 0.652150 0.432150 -0.287357
O9    O     O_2   0.355518 0.812106 0.506171 -0.315500
O10   O     O_3   0.037739 0.750469 0.693483 -0.450348
O11   O     O_3   0.446906 0.779498 0.363980 -0.446642
C2    C     C_3   0.533925 0.711970 0.302594 0.182130
H4    H     H_    0.485945 0.647345 0.292268 0.204867
H5    H     H_    0.666921 0.706539 0.313682 0.095959
C3    C     C_3   0.512163 0.733034 0.230405 -0.494200
H6    H     H_    0.380512 0.736855 0.216337 0.197233
H7    H     H_    0.559527 0.797454 0.239234 0.197393
C4    C     C_3   0.571087 0.769520 0.752537 1.109116
H8    H     H_    0.441226 0.776935 0.742070 -0.206062
C5    C     C_3   0.592459 0.766056 0.832017 -1.511513
H9    H     H_    0.523393 0.714296 0.838112 0.252148
H10   H     H_    0.724000 0.755610 0.843354 0.426376
H11   H     H_    0.541402 0.830205 0.875979 0.341246
Ba1   Ba    Ba6+2 0.333520 0.539550 0.472180 0.555120
C6    C     C_3   0.569732 0.264468 0.338086 0.497524
H12   H     H_    0.453366 0.295365 0.370034 0.045153
H13   H     H_    0.671457 0.276883 0.378680 0.125347
C7    C     C_3   0.563279 0.164882 0.299311 -0.697337
H14   H     H_    0.453772 0.150905 0.263053 0.222718
H15   H     H_    0.557551 0.134360 0.342628 0.199214
H16   H     H_    0.675046 0.134092 0.262862 0.259158
C8    C     C_3   0.149698 0.714469 0.733269 0.717490
H17   H     H_    0.268892 0.692778 0.702370 -0.132368
C9    C     C_3   0.163960 0.786377 0.813554 -0.048406
H18   H     H_    0.212187 0.844662 0.806924 0.144934
H19   H     H_    0.250240 0.759292 0.847357 0.126960
P4    P     P_3+3 0.606720 0.586180 0.679160 0.772124
O12   O     O_2   0.787080 0.560670 0.685800 -0.216061
O13   O     O_3   0.541120 0.553770 0.595290 -0.409068
O14   O     O_3   0.080800 0.396070 0.612520 -0.365770
O15   O     O_3   0.649786 0.695570 0.692891 -0.482105
P5    P     P_3+3 0.696187 0.234562 0.549100 0.483921
O16   O     O_3   0.164600 0.390590 0.443970 -0.338886
O17   O     O_3   0.682580 0.347920 0.567870 -0.367789
O18   O     O_2   0.847924 0.190895 0.495780 -0.325452
O19   O     O_3   0.746960 0.217122 0.633587 -0.645045
Ba2   Ba    Ba6+2 0.856270 0.460520 0.527840 0.386148
P6    P     P_3+3 0.099236 0.592647 0.291611 0.466100
C10   C     C_3   0.042212 0.762586 0.350787 0.588248
H20   H     H_    0.913909 0.750601 0.358055 -0.956658
H21   H     H_    0.983421 0.905256 0.392790 0.218910
O20   O     O_3   0.025080 0.609480 0.556050 -0.284327
C11   C     C_3   0.055648 0.316878 0.282073 0.507129
H22   H     H_    0.924314 0.330257 0.300021 2.240318
H23   H     H_    0.117023 0.378098 0.310351 -0.373667
C12   C     C_3   0.071435 0.293743 0.195365 -0.189943
H24   H     H_    0.024980 0.352673 0.182212 0.048057
H25   H     H_    0.203001 0.277366 0.177456 0.102552
P7    P     P_3+3 0.130555 0.278484 0.400654 0.469187
O21   O     O_2   0.948320 0.280590 0.426090 -0.336891
O22   O     O_3   0.130278 0.246297 0.300604 -0.507655
H26   H     H_    0.580837 0.680389 0.181501 0.111166
C13   C     C_3   0.660537 0.283735 0.695660 1.223535
H27   H     H_    0.699991 0.349767 0.703930 0.015038
H28   H     H_    0.526691 0.284606 0.686704 -0.114094
C14   C     C_3   0.696406 0.265409 0.768427 -1.867948
H29   H     H_    0.827329 0.271697 0.782753 0.490090
H30   H     H_    0.619783 0.313458 0.817002 0.370905
H31   H     H_    0.668837 0.197380 0.760416 0.454892
P8    P     P_3+3 0.101209 0.397584 0.705683 0.398606
C15   C     C_3   0.156808 0.227931 0.638710 0.742016
H32   H     H_    0.287246 0.238240 0.634486 -0.081729
O23   O     O_2   0.946559 0.453982 0.750221 -0.346136
O24   O     O_3   0.080968 0.291697 0.705664 -0.570429
H33   H     H_    0.092903 0.231238 0.587251 0.006040
C16   C     C_3   0.146728 0.135344 0.639707 -0.341003
H34   H     H_    0.195028 0.084434 0.584367 0.127432
H35   H     H_    0.016619 0.125309 0.646275 0.249624
C17   C     C_R   0.520861 0.449628 0.038973 0.072594
C18   C     C_R   0.449735 0.402998 0.078880 0.169052
C19   C     C_R   0.308988 0.418501 0.938799 -0.341785
C20   C     C_R   0.457121 0.453292 0.968791 -0.163702
C21   C     C_R   0.252313 0.418413 0.868588 0.155702
C22   C     C_R   0.338998 0.454104 0.825056 -0.161183
C23   C     C_R   0.481739 0.495555 0.855799 -0.006658
C24   C     C_R   0.541716 0.494670 0.927716 0.188225
C25   C     C_R   0.288944 0.448210 0.751061 0.345147
C26   C     C_R   0.381448 0.483614 0.709174 -0.328091
C27   C     C_R   0.509971 0.534507 0.741300 -0.009744
C28   C     C_R   0.565269 0.537369 0.814539 0.009650
C29   C     C_R   0.663662 0.491386 0.069464 0.254998
C30   C     C_R   0.721506 0.492956 0.142245 -0.028282
C31   C     C_R   0.637428 0.452610 0.184266 0.053238
C32   C     C_R   0.507998 0.403643 0.149070 -0.447355
H36   H     H_    0.348871 0.474073 0.650859 0.197707
H37   H     H_    0.139462 0.389352 0.848888 0.094125
H38   H     H_    0.448295 0.365516 0.175395 0.249328
C33   C     C_R   0.703356 0.578873 0.847271 -0.056177
C34   C     C_R   0.762308 0.578090 0.916497 -0.212837
C35   C     C_R   0.686588 0.534566 0.957554 -0.003058
C36   C     C_R   0.749432 0.531582 0.027879 -0.063213
C37   C     C_R   0.897901 0.566157 0.057646 -0.155314
C38   C     C_R   0.864299 0.534367 0.172725 -0.245378
C39   C     C_R   0.953195 0.567727 0.128241 -0.015526
C40   C     C_R   0.914355 0.540967 0.246780 0.150031
C41   C     C_R   0.821658 0.507821 0.289992 -0.163940
C42   C     C_R   0.686417 0.462163 0.259781 0.211457
H39   H     H_    0.770893 0.611885 0.819426 0.216210
H40   H     H_    0.067198 0.595736 0.147190 0.162717
H41   H     H_    0.859499 0.514456 0.347137 0.126075
H42   H     H_    0.231953 0.391224 0.968647 0.181653
H43   H     H_    0.349391 0.363706 0.056840 -0.005254
H44   H     H_    0.868106 0.613474 0.936268 0.206596
H45   H     H_    0.976797 0.592182 0.027595 0.115652
C43   C     C_2   0.386046 0.238482 0.491339 -0.698057
C44   C     C_R   0.802872 0.747580 0.513612 -0.537562
C45   C     C_2   0.242596 0.113820 0.408059 0.186448
C46   C     C_2   0.254966 0.202222 0.436544 0.200981
C47   C     C_2   0.511344 0.184703 0.502281 0.420578
C48   C     C_3   0.514731 0.085200 0.460927 -0.381629
C49   C     C_3   0.342268 0.056452 0.442650 -0.046470
C50   C     C_2   0.603298 0.032892 0.502994 0.324245
C51   C     C_2   0.641651 0.945797 0.466460 -0.517407
C52   C     C_R   0.874526 0.920750 0.543547 0.138082
C53   C     C_R   0.734755 0.890506 0.502491 0.235933
C54   C     C_R   0.976513 0.865322 0.570090 -0.407671
C55   C     C_R   0.943461 0.777650 0.553204 0.492340
C56   C     C_R   0.695669 0.804275 0.489867 -0.008749
H46   H     H_    0.081845 0.890653 0.603170 0.246154
H47   H     H_    0.388545 0.309869 0.516666 0.268746
H48   H     H_    0.773364 0.681304 0.504378 0.294745
H49   H     H_    0.631832 0.064519 0.563081 0.081940
H50   H     H_    0.605418 0.914385 0.407467 0.253830
N1    N     N_R   0.091368 0.635868 0.738479 0.177386
O25   O     O_R   0.088326 0.567457 0.675512 -0.311159
O26   O     O_R   0.072455 0.627200 0.804056 -0.367631
O27   O     O_3   0.007976 0.812349 0.850536 -0.505438
C57   C     C_3   0.022147 0.876545 0.924665 -0.340759
H51   H     H_    0.069056 0.937145 0.922118 0.204357
H52   H     H_    0.101669 0.849223 0.960750 0.252560
H53   H     H_    0.898613 0.896253 0.952699 0.215718
N2    N     N_R   0.980680 0.219307 0.150767 0.224817
O28   O     O_R   0.981432 0.193975 0.076381 -0.464928
O29   O     O_R   0.899144 0.177810 0.183625 -0.291841
N3    N     N_R   0.241250 0.123642 0.702156 0.267181
O30   O     O_R   0.167874 0.111528 0.758023 -0.330700
O31   O     O_R   0.400328 0.118961 0.699494 -0.400596
N4    N     N_R   0.145020 0.071838 0.343011 0.270597
O32   O     O_R   0.990700 0.098605 0.342110 -0.336997
O33   O     O_R   0.204963 0.998472 0.289419 -0.408072
O34   O     O_3   0.641072 0.845935 0.753508 -0.520796
C58   C     C_3   0.573779 0.874507 0.695918 -0.330701
H54   H     H_    0.648398 0.924852 0.689945 0.222715
H55   H     H_    0.446455 0.906084 0.712435 0.166009
H56   H     H_    0.575018 0.819146 0.639198 0.260547

loop_
_geom_bond_atom_site_label_1
_geom_bond_atom_site_label_2
_geom_bond_distance
_ccdc_geom_bond_type
O5    C6    1.396380 S    
C12   H25   1.111404 S    
C16   N3    1.458060 S    
C47   C48   1.516096 S    
P6    C40   1.848463 S    
N4    O33   1.300421 A    
C26   C27   1.397173 A    
C14   H30   1.108292 S    
C14   H29   1.109682 S    
P7    O22   1.752113 S    
C2    H4    1.110606 S    
O6    P6    1.750363 S    
O7    Ba1   2.878203 S    
C51   H50   1.085558 S    
H1    C10   1.110653 S    
C50   C51   1.336023 D    
C57   H51   1.113000 S    
C8    C9    1.540821 S    
C10   H20   1.108586 S    
P5    C47   1.848388 S    
C44   H48   1.081807 S    
O16   Ba2   2.894246 S    
P3    O11   1.749430 S    
C11   C12   1.531881 S    
C23   C24   1.435425 A    
C7    H15   1.102742 S    
O11   C2    1.405664 S    
N2    O29   1.301651 A    
C58   H54   1.109638 S    
O2    Ba2   2.807511 S    
C5    H10   1.106634 S    
C34   C35   1.409683 A    
P8    C25   1.865299 S    
P1    Ba1   3.384834 S    
C29   C36   1.420270 A    
C36   C37   1.414373 A    
C11   H23   1.110661 S    
P1    O1    1.513638 D    
O10   C8    1.395941 S    
Ba1   O20   2.895006 S    
C38   C39   1.397860 A    
C12   N2    1.463287 S    
C37   C39   1.387038 A    
C18   C32   1.392406 A    
P2    O20   1.580125 S    
C15   C16   1.528312 S    
C16   H34   1.109853 S    
P5    O17   1.742630 S    
Ba1   O13   2.806966 S    
P2    O10   1.758359 S    
C54   H46   1.082064 S    
C35   C36   1.426820 A    
C58   H55   1.112065 S    
C13   H27   1.110764 S    
C1    H2    1.109358 S    
C3    H26   1.109494 S    
C26   H36   1.080720 S    
C45   C49   1.501080 S    
C28   C33   1.395170 A    
P7    O21   1.568360 D    
P2    C55   1.832100 S    
C5    H11   1.111064 S    
C9    H19   1.110941 S    
O6    C10   1.403703 S    
O19   C13   1.404159 S    
C40   C41   1.395967 A    
C57   H52   1.113013 S    
P4    O13   1.570213 S    
C23   C28   1.424913 A    
Ba2   O20   2.793066 S    
N4    O32   1.300301 A    
C44   C55   1.394555 A    
P1    O5    1.749034 S    
C6    C7    1.521193 S    
C8    N1    1.448711 S    
C7    H16   1.109539 S    
C31   C42   1.424319 A    
C9    O27   1.412795 S    
P3    C56   1.840335 S    
C8    H17   1.100646 S    
C17   C18   1.414194 A    
Ba2   O21   2.878392 S    
C4    H8    1.084441 S    
C30   C38   1.417941 A    
C44   C56   1.401462 A    
C11   H22   1.109222 S    
P1    O2    1.570213 S    
C7    H14   1.110532 S    
C6    H13   1.105403 S    
C43   C47   1.349221 D    
C51   C53   1.469210 S    
C48   C50   1.497653 S    
C18   H43   1.076895 S    
P4    C27   1.892646 S    
C1    H3    1.110608 S    
C15   H33   1.109552 S    
C30   C31   1.420450 A    
C50   H49   1.085800 S    
P8    O24   1.752043 S    
P5    O18   1.544704 D    
C27   C28   1.427678 A    
O13   Ba2   2.912477 S    
C13   C14   1.521674 S    
C58   H56   1.111563 S    
C1    C10   1.519708 S    
C19   C20   1.414099 A    
O2    Ba1   2.911717 S    
O16   P7    1.755024 S    
C4    O15   1.410600 S    
C39   H40   1.080018 S    
O14   Ba2   2.794934 S    
C41   H41   1.081895 S    
C16   H35   1.111014 S    
C19   C21   1.391348 A    
O12   Ba2   2.836986 S    
C29   C30   1.432406 A    
C32   H38   1.079036 S    
P3    O8    1.734231 S    
P2    Ba1   3.415501 S    
O34   C58   1.413509 S    
C14   H31   1.109670 S    
C3    H7    1.110720 S    
C45   N4    1.437306 S    
P1    C42   1.864811 S    
O14   P8    1.745253 S    
Ba1   O16   2.793590 S    
C19   H42   1.076871 S    
C48   C49   1.529889 S    
C22   C23   1.418910 A    
C57   H53   1.109473 S    
P4    O12   1.513949 D    
C41   C42   1.393993 A    
P8    O23   1.543298 D    
C1    H21   1.109033 S    
C2    H5    1.109686 S    
C15   H32   1.107955 S    
O4    P6    1.543105 D    
C43   H47   1.085404 S    
N3    O31   1.300543 A    
O27   C57   1.409592 S    
C52   C54   1.393294 A    
C17   C20   1.430681 A    
O8    Ba1   2.744321 S    
C4    C5    1.520521 S    
C33   C34   1.384692 A    
P7    C46   1.843566 S    
C33   H39   1.069706 S    
O17   Ba2   2.744902 S    
C6    H12   1.104720 S    
C43   C46   1.487538 S    
N1    O26   1.302156 A    
P2    O7    1.491007 D    
O3    P6    1.740728 S    
P4    O15   1.777537 S    
N2    O28   1.300523 A    
C24   C35   1.420299 A    
C22   C25   1.414520 A    
C15   O24   1.404132 S    
C37   H45   1.075831 S    
C21   C22   1.399916 A    
C54   C55   1.399908 A    
C53   C56   1.406966 A    
P5    O19   1.749955 S    
C31   C32   1.400863 A    
C34   H44   1.075727 S    
Ba1   Ba2   4.492056 S    
C20   C24   1.421954 A    
C25   C26   1.401497 A    
C17   C29   1.420374 A    
C38   C40   1.412559 A    
C21   H37   1.080572 S    
O3    Ba1   2.795538 S    
C12   H24   1.110143 S    
P4    Ba2   3.385337 S    
C9    H18   1.113401 S    
N3    O30   1.300797 A    
C11   O22   1.405446 S    
C2    C3    1.520337 S    
P3    O9    1.546759 D    
C4    O34   1.417437 S    
C3    H6    1.110313 S    
O1    Ba1   2.836499 S    
C13   H28   1.108628 S    
N1    O25   1.292725 A    
C52   C53   1.400527 A    
C45   C46   1.354242 D    
C5    H9    1.102284 S    
