data_mof_unit_2490.cif
_audit_creation_date              2012-12-11T15:10:40-0500
_audit_creation_method            fapswitch 2.2
_symmetry_space_group_name_H-M    P1
_symmetry_Int_Tables_number       1
_space_group_crystal_system       triclinic
_cell_length_a                    21.072322
_cell_length_b                    7.237977
_cell_length_c                    18.265392
_cell_angle_alpha                 90.020135
_cell_angle_beta                  93.650606
_cell_angle_gamma                 90.022552
_cell_volume                      2780.2022755

loop_
_atom_site_label
_atom_site_type_symbol
_atom_type_description
_atom_site_fract_x
_atom_site_fract_y
_atom_site_fract_z
_atom_type_partial_charge
O1    O     O_R   0.448880 0.506250 0.415280 -0.531433
O2    O     O_R   0.551120 0.006250 0.584720 -0.531262
O3    O     O_R   0.434830 0.174000 0.557310 -0.521260
O4    O     O_R   0.565170 0.674000 0.442690 -0.521226
C1    C     C_R   0.416981 0.344570 0.579650 0.697356
C2    C     C_R   0.583017 0.844579 0.420350 0.697266
O5    O     O_R   0.441680 0.176440 0.414130 -0.527782
O6    O     O_R   0.558320 0.676440 0.585870 -0.527866
O7    O     O_R   0.558020 0.007570 0.440520 -0.519127
O8    O     O_R   0.441980 0.507570 0.559480 -0.519310
C3    C     C_R   0.428010 0.344550 0.388152 0.711452
C4    C     C_R   0.571967 0.844665 0.611857 0.711578
O9    O     O_3   0.538160 0.339670 0.508820 -0.365032
O10   O     O_3   0.461840 0.839670 0.491180 -0.365260
V1    V     V_3+5 0.492920 0.064260 0.498360 1.417293
V2    V     V_3+5 0.507080 0.564260 0.501640 1.417171
C5    C     C_R   0.877937 0.970983 0.686889 -0.110010
C6    C     C_R   0.122446 0.478018 0.312877 -0.110411
H1    H     H_    0.964901 0.009017 0.752524 0.119862
H2    H     H_    0.035561 0.516124 0.247147 0.120016
H3    H     H_    0.901293 0.009981 0.638329 0.177587
H4    H     H_    0.099346 0.520305 0.361187 0.177568
C7    C     C_R   0.887504 0.940609 0.818931 -0.044475
C8    C     C_R   0.112502 0.441337 0.181092 -0.044688
C9    C     C_R   0.582591 0.810583 0.748275 0.101672
C10   C     C_R   0.417038 0.305997 0.251953 0.101858
C11   C     C_R   0.620789 0.763441 0.812112 0.199317
C12   C     C_R   0.378569 0.256664 0.188576 0.199242
C13   C     C_R   0.687859 0.756213 0.809617 0.122329
C14   C     C_R   0.311499 0.251360 0.191311 0.122071
C15   C     C_R   0.717421 0.837866 0.749418 0.023201
C16   C     C_R   0.282332 0.336870 0.250969 0.023151
C17   C     C_R   0.679012 0.868198 0.683400 -0.007120
C18   C     C_R   0.320970 0.369411 0.316664 -0.007133
C19   C     C_R   0.783979 0.883954 0.751382 0.079662
C20   C     C_R   0.215928 0.384682 0.248827 0.079516
C21   C     C_R   0.812603 0.925017 0.684527 0.106241
C22   C     C_R   0.187594 0.430025 0.315434 0.106406
C23   C     C_R   0.774561 0.928324 0.617613 -0.030511
C24   C     C_R   0.225773 0.435546 0.382229 -0.030577
C25   C     C_R   0.708638 0.910661 0.618749 -0.234412
C26   C     C_R   0.291621 0.415855 0.381072 -0.235306
C27   C     C_R   0.822127 0.902466 0.818327 -0.219301
C28   C     C_R   0.177713 0.400910 0.181840 -0.219431
C29   C     C_R   0.914838 0.974900 0.752884 -0.177632
C30   C     C_R   0.085452 0.479989 0.246937 -0.177680
C31   C     C_R   0.611764 0.847937 0.682217 -0.117731
C32   C     C_R   0.388138 0.347227 0.317832 -0.118088
H5    H     H_    0.801488 0.894813 0.870757 0.121636
H6    H     H_    0.198227 0.390049 0.129431 0.121743
H7    H     H_    0.680472 0.924922 0.567324 0.097445
H8    H     H_    0.319934 0.431844 0.432318 0.098384
C33   C     C_1   0.864594 0.938976 0.132201 -0.203069
C34   C     C_1   0.135408 0.439001 0.867797 -0.203054
C35   C     C_1   0.821785 0.924950 0.176019 0.006320
C36   C     C_1   0.178216 0.424972 0.823980 0.006378
C37   C     C_1   0.771265 0.905859 0.228201 0.009046
C38   C     C_1   0.228735 0.405868 0.771799 0.009142
C39   C     C_1   0.728720 0.889233 0.272222 0.010087
C40   C     C_1   0.271281 0.389230 0.727779 0.010276
C41   C     C_1   0.678168 0.870080 0.324348 0.003934
C42   C     C_1   0.321831 0.370062 0.675654 0.004214
C43   C     C_1   0.635307 0.855972 0.368083 -0.207458
C44   C     C_1   0.364691 0.355949 0.631918 -0.207230
O11   O     O_R   0.058070 0.289240 0.940580 -0.519745
O12   O     O_R   0.941930 0.789240 0.059420 -0.519732
O13   O     O_R   0.058330 0.616740 0.085880 -0.532523
O14   O     O_R   0.941670 0.116740 0.914120 -0.532438
C45   C     C_R   0.072174 0.448765 0.111828 0.687115
C46   C     C_R   0.927829 0.948647 0.888178 0.687173
O15   O     O_R   0.065180 0.619040 0.942700 -0.521679
O16   O     O_R   0.934820 0.119040 0.057300 -0.521675
O17   O     O_R   0.948870 0.787780 0.915270 -0.527793
O18   O     O_R   0.051130 0.287780 0.084730 -0.527830
C47   C     C_R   0.083182 0.450343 0.920180 0.706346
C48   C     C_R   0.916819 0.950334 0.079819 0.706220
O19   O     O_3   0.961870 0.453310 0.991210 -0.365333
O20   O     O_3   0.038130 0.953310 0.008790 -0.365406
V3    V     V_3+5 0.007070 0.728770 0.001630 1.420474
V4    V     V_3+5 0.992930 0.228770 0.998370 1.420506
C49   C     C_2   0.800390 0.952409 0.544410 0.369927
H9    H     H_    0.772046 0.022441 0.501117 0.054851
O21   O     O_2   0.851035 0.884040 0.529943 -0.518754
C50   C     C_2   0.200180 0.464156 0.455303 0.369835
H10   H     H_    0.228854 0.535456 0.498008 0.054731
O22   O     O_2   0.149324 0.398185 0.470386 -0.518634
C51   C     C_3   0.510597 0.810062 0.750594 -0.753865
H11   H     H_    0.485177 0.853441 0.698486 0.195403
H12   H     H_    0.493809 0.669201 0.763658 0.208916
H13   H     H_    0.495985 0.908395 0.792975 0.205359
C52   C     C_3   0.489008 0.303606 0.249452 -0.753303
H14   H     H_    0.514615 0.349449 0.301130 0.195138
H15   H     H_    0.505401 0.161627 0.237553 0.208934
H16   H     H_    0.503793 0.399142 0.206204 0.205217
C53   C     C_3   0.724445 0.626004 0.862008 -0.791089
H17   H     H_    0.770362 0.582392 0.840981 0.220102
H18   H     H_    0.732681 0.690163 0.917002 0.200192
H19   H     H_    0.697192 0.495932 0.867778 0.220007
C54   C     C_3   0.274402 0.119487 0.140023 -0.790702
H20   H     H_    0.228397 0.078298 0.161491 0.220230
H21   H     H_    0.266257 0.180973 0.084562 0.200189
H22   H     H_    0.301227 0.988384 0.135199 0.220020
C55   C     C_3   0.589189 0.712096 0.881720 -0.776011
H23   H     H_    0.557375 0.825375 0.897592 0.206987
H24   H     H_    0.561084 0.583397 0.872784 0.210356
H25   H     H_    0.623394 0.690654 0.929527 0.212730
C56   C     C_3   0.409861 0.200840 0.119293 -0.776112
H26   H     H_    0.441929 0.312465 0.102429 0.206895
H27   H     H_    0.437643 0.071993 0.129175 0.210496
H28   H     H_    0.375497 0.177643 0.071762 0.212734

loop_
_geom_bond_atom_site_label_1
_geom_bond_atom_site_label_2
_ccdc_geom_bond_type
O14   V4    S    
C14   C16   A    
C51   H11   S    
C7    C29   A    
C11   C13   A    
C24   C50   S    
C53   H17   S    
O1    C3    A    
O16   C48   A    
O2    C4    A    
C2    O7    A    
O15   V3    S    
C49   H9    S    
C53   H19   S    
C23   C25   A    
O5    C3    A    
O12   V3    S    
C16   C20   A    
C19   C21   A    
C50   O22   D    
C37   C39   T    
C12   C56   S    
C38   C40   T    
C9    C51   S    
C7    C27   A    
C40   C42   S    
C41   C43   T    
C42   C44   T    
C18   C26   A    
C56   H26   S    
C15   C17   A    
C19   C27   A    
C9    C31   A    
C10   C32   A    
O5    V1    S    
O6    V2    S    
O11   V4    S    
O18   V4    S    
C13   C15   A    
C56   H27   S    
C7    C46   S    
C3    C32   S    
C4    C31   S    
C6    C30   A    
C49   O21   D    
C8    C45   S    
C33   C35   T    
C21   C23   A    
C34   C36   T    
C39   C41   S    
O13   V3    S    
C50   H10   S    
C23   C49   S    
O4    C2    A    
C52   H14   S    
C13   C53   S    
O20   V3    S    
C27   H5    S    
C10   C52   S    
C14   C54   S    
C5    H3    S    
C1    C44   S    
O13   C45   A    
C16   C18   A    
C2    C43   S    
O4    V2    S    
C52   H15   S    
C54   H20   S    
O6    C4    A    
O12   C48   A    
C46   O17   A    
H1    C29   S    
O17   V3    S    
C45   O18   A    
C55   H24   S    
O1    V2    S    
C5    C21   A    
O2    V1    S    
C54   H21   S    
C35   C37   S    
C17   C31   A    
C56   H28   S    
C15   C19   A    
C20   C28   A    
C33   C48   S    
C18   C32   A    
C20   C22   A    
O3    V1    S    
O19   V4    S    
C28   H6    S    
C6    H4    S    
C5    C29   A    
C24   C26   A    
O3    C1    A    
C53   H18   S    
O9    V2    S    
C9    C11   A    
C10   C12   A    
O11   C47   A    
C8    C30   A    
C51   H12   S    
C6    C22   A    
C17   C25   A    
C12   C14   A    
O16   V4    S    
O8    V2    S    
C52   H16   S    
O15   C47   A    
C22   C24   A    
C8    C28   A    
C11   C55   S    
C36   C38   S    
C55   H25   S    
O7    V1    S    
C34   C47   S    
C1    O8    A    
C54   H22   S    
O14   C46   A    
C51   H13   S    
C55   H23   S    
O10   V1    S    
C25   H7    S    
H2    C30   S    
C26   H8    S    
