data_mof_unit_2277.cif
_audit_creation_date              2012-12-10T17:36:21-0500
_audit_creation_method            fapswitch 2.2
_symmetry_space_group_name_H-M    P1
_symmetry_Int_Tables_number       1
_space_group_crystal_system       triclinic
_cell_length_a                    12.335286
_cell_length_b                    13.098281
_cell_length_c                    15.917452
_cell_angle_alpha                 78.71719
_cell_angle_beta                  100.890531
_cell_angle_gamma                 116.420877
_cell_volume                      2243.41394964

loop_
_atom_site_label
_atom_site_type_symbol
_atom_type_description
_atom_site_fract_x
_atom_site_fract_y
_atom_site_fract_z
_atom_type_partial_charge
C1    C     C_R   0.855054 0.286181 0.508708 0.782857
C2    C     C_3   0.078772 0.436711 0.070252 0.377268
C3    C     C_3   0.998823 0.499186 0.083004 0.026536
C4    C     C_3   0.057296 0.627372 0.036465 -0.304128
C5    C     C_3   0.057433 0.628201 0.937367 -0.291453
C6    C     C_1   0.002029 0.500146 0.176123 0.003051
C7    C     C_1   0.996415 0.501699 0.822855 -0.005472
C8    C     C_1   0.997705 0.501336 0.747901 -0.162796
C9    C     C_R   0.273012 0.031439 0.412708 0.495700
C10   C     C_R   0.228128 0.835989 0.478697 -0.117758
C11   C     C_R   0.813592 0.089782 0.579410 -0.190596
C12   C     C_R   0.999394 0.500328 0.659181 0.818258
C13   C     C_R   0.731173 0.980837 0.609127 -0.139316
C14   C     C_R   0.607560 0.944352 0.580893 -0.121278
C15   C     C_R   0.564371 0.013409 0.516430 0.103551
C16   C     C_R   0.650215 0.120446 0.480876 -0.027564
C17   C     C_R   0.438655 0.980202 0.486859 -0.053815
C18   C     C_R   0.399446 0.059444 0.430871 -0.059735
C19   C     C_R   0.486435 0.159910 0.389738 0.386795
C20   C     C_R   0.610113 0.181120 0.407903 -0.166277
C21   C     C_R   0.351214 0.868577 0.508487 -0.205216
C22   C     C_R   0.188403 0.918532 0.434505 -0.303828
C23   C     C_R   0.145073 0.713662 0.489267 0.814524
C24   C     C_R   0.773551 0.162574 0.518718 -0.081463
C25   C     C_R   0.348674 0.331977 0.636653 -0.301134
C26   C     C_R   0.765080 0.649585 0.387779 0.019536
C27   C     C_R   0.677608 0.692434 0.368658 -0.331597
C28   C     C_R   0.572217 0.641162 0.411060 0.437754
C29   C     C_R   0.555975 0.544113 0.475303 -0.108455
C30   C     C_R   0.653822 0.508888 0.496286 0.197656
C31   C     C_R   0.449576 0.481405 0.521190 -0.021280
C32   C     C_R   0.448840 0.393255 0.589588 0.156718
C33   C     C_R   0.547490 0.365509 0.610764 -0.274059
C34   C     C_R   0.001690 0.501375 0.340594 0.831915
C35   C     C_R   0.646872 0.421322 0.564913 -0.156040
C36   C     C_R   0.341423 0.498473 0.501653 0.040562
C37   C     C_R   0.247988 0.356648 0.615805 0.064505
C38   C     C_3   0.081376 0.444707 0.970324 -0.259185
C39   C     C_3   0.862061 0.444751 0.941012 0.234101
C40   C     C_3   0.861479 0.434528 0.041020 -0.151483
C41   C     C_1   0.003140 0.501075 0.251463 -0.133145
C42   C     C_3   0.996537 0.500828 0.915231 0.012127
Cu1   Cu    Cu3+1 0.098280 0.475420 0.519630 0.926579
Cu2   Cu    Cu3+1 0.901720 0.524580 0.480370 0.939588
H1    H     H_    0.175476 0.504307 0.954882 0.125552
H2    H     H_    0.092342 0.895103 0.414055 0.169002
H3    H     H_    0.377809 0.802739 0.543594 0.176591
H4    H     H_    0.907648 0.119628 0.608139 0.150935
H5    H     H_    0.548398 0.863036 0.612663 0.128121
H6    H     H_    0.762388 0.926727 0.658158 0.156061
H7    H     H_    0.170432 0.310246 0.651996 0.134686
H8    H     H_    0.547564 0.298654 0.663167 0.158873
H9    H     H_    0.348267 0.265237 0.689187 0.149331
H10   H     H_    0.327699 0.556365 0.448127 0.188506
H11   H     H_    0.845929 0.691419 0.354790 0.158603
H12   H     H_    0.694800 0.769251 0.322833 0.160496
H13   H     H_    0.717453 0.393538 0.586756 0.209346
H14   H     H_    0.829606 0.512169 0.912468 0.157254
H15   H     H_    0.154337 0.668412 0.924256 0.151548
H16   H     H_    0.154189 0.669193 0.064002 0.152681
N1    N     N_R   0.246300 0.438200 0.549400 -0.201308
N2    N     N_R   0.754300 0.561180 0.451130 -0.206822
O1    O     O_R   0.972520 0.318130 0.524690 -0.592835
O2    O     O_R   0.806530 0.359650 0.491530 -0.604698
O3    O     O_R   0.083030 0.479240 0.637150 -0.571608
O4    O     O_R   0.917040 0.520750 0.603990 -0.582397
O5    O     O_R   0.193470 0.640350 0.508470 -0.585869
O6    O     O_R   0.027480 0.681870 0.475310 -0.584567
O7    O     O_R   0.082960 0.479250 0.396010 -0.597561
O8    O     O_R   0.916970 0.520760 0.362850 -0.567821
O9    O     O_3   0.023798 0.319236 0.108609 -0.598002
C43   C     C_3   0.104269 0.266047 0.139751 0.086191
H17   H     H_    0.151475 0.292452 0.203643 0.166889
H18   H     H_    0.173491 0.288426 0.095436 0.157756
C44   C     C_3   0.031001 0.136330 0.150999 -0.704690
H19   H     H_    0.983339 0.106841 0.087801 0.249814
H20   H     H_    0.092827 0.093847 0.177511 0.231585
H21   H     H_    0.962412 0.111397 0.196250 0.244867
C45   C     C_1   0.206536 0.499574 0.111136 0.112649
N3    N     N_1   0.305325 0.548803 0.141767 -0.339976
C46   C     C_1   0.005140 0.701685 0.055503 0.300475
N4    N     N_1   0.965223 0.760228 0.070528 -0.260920
O10   O     O_3   0.448632 0.222244 0.319348 -0.533699
C47   C     C_3   0.485635 0.335119 0.337595 0.086201
H22   H     H_    0.584281 0.377021 0.360869 0.147666
H23   H     H_    0.432453 0.334281 0.387010 0.147323
C48   C     C_3   0.463134 0.407937 0.255570 -0.717393
H24   H     H_    0.365264 0.370118 0.230421 0.245835
H25   H     H_    0.490175 0.496517 0.269060 0.190592
H26   H     H_    0.517664 0.411657 0.206009 0.266003
O11   O     O_3   0.231306 0.112479 0.370861 -0.549432
C49   C     C_3   0.194074 0.150071 0.433159 0.027687
H27   H     H_    0.272216 0.190924 0.482086 0.139542
H28   H     H_    0.119408 0.077404 0.466443 0.145750
C50   C     C_3   0.146071 0.238397 0.389480 -0.747596
H29   H     H_    0.115326 0.266478 0.438282 0.233780
H30   H     H_    0.218778 0.314596 0.357800 0.230781
H31   H     H_    0.067222 0.199878 0.340839 0.247584
C51   C     C_1   0.068167 0.338160 0.942471 0.244377
N5    N     N_1   0.059789 0.255435 0.920564 -0.307971
C52   C     C_1   0.689396 0.248039 0.341904 0.330421
N6    N     N_1   0.751179 0.300244 0.288090 -0.283894
O12   O     O_3   0.498743 0.698783 0.400072 -0.591397
C53   C     C_3   0.438139 0.695956 0.315084 0.034930
H32   H     H_    0.382846 0.605575 0.301549 0.155454
H33   H     H_    0.503207 0.742838 0.266277 0.167804
C54   C     C_3   0.352500 0.753749 0.305422 -0.740370
H34   H     H_    0.404656 0.843996 0.319486 0.260160
H35   H     H_    0.305963 0.753451 0.238482 0.205442
H36   H     H_    0.282358 0.706883 0.350468 0.238820
O13   O     O_3   0.768869 0.350645 0.899781 -0.586513
C55   C     C_3   0.796823 0.257762 0.898951 0.117273
H37   H     H_    0.842560 0.234825 0.961582 0.182033
H38   H     H_    0.852582 0.277141 0.845985 0.164725
C56   C     C_3   0.678829 0.152835 0.880201 -0.778720
H39   H     H_    0.630286 0.170968 0.816918 0.241897
H40   H     H_    0.699199 0.078899 0.878208 0.208966
H41   H     H_    0.619080 0.129909 0.931471 0.259633
C57   C     C_1   0.801999 0.313720 0.080371 0.419373
N7    N     N_1   0.754818 0.219303 0.111409 -0.263827
C58   C     C_1   0.782842 0.485528 0.057711 0.230278
N8    N     N_1   0.720794 0.524547 0.070805 -0.252214
C59   C     C_1   0.004476 0.702799 0.879976 0.276901
N9    N     N_1   0.963258 0.760826 0.835172 -0.275453

loop_
_geom_bond_atom_site_label_1
_geom_bond_atom_site_label_2
_ccdc_geom_bond_type
C48   H24   S    
C52   N6    T    
C50   H29   S    
Cu2   O4    S    
C19   C20   A    
C47   C48   S    
Cu1   Cu2   S    
C3    C6    S    
C26   H11   S    
C9    O11   S    
C55   H38   S    
C46   N4    T    
C50   H31   S    
Cu1   O1    S    
C7    C8    T    
C10   C22   A    
C33   H8    S    
C40   C58   S    
C26   C27   A    
C30   C35   A    
C28   C29   A    
C47   H23   S    
C38   C42   S    
C37   H7    S    
C9    C22   A    
C14   H5    S    
C15   C16   A    
C11   C24   A    
C18   C19   A    
C7    C42   S    
C23   O5    A    
C55   H37   S    
C38   H1    S    
C2    C45   S    
C25   C37   A    
C4    C46   S    
C31   C32   A    
C56   H40   S    
C6    C41   T    
C54   H34   S    
Cu2   O8    S    
C34   O8    A    
C16   C20   A    
C25   C32   A    
C39   O13   S    
C16   C24   A    
C13   C14   A    
C54   H35   S    
C11   H4    S    
C34   C41   S    
C43   C44   S    
C19   O10   S    
C1    O1    A    
C53   H33   S    
C53   H32   S    
C39   C42   S    
C10   C21   A    
C5    H15   S    
Cu1   O3    S    
C59   N9    T    
C47   H22   S    
C43   H18   S    
C39   C40   S    
C27   H12   S    
C43   H17   S    
C20   C52   S    
Cu2   N2    S    
C39   H14   S    
C12   O4    A    
C49   C50   S    
Cu2   O2    S    
C3    C4    S    
C13   H6    S    
C23   O6    A    
C44   H19   S    
C29   C30   A    
C2    C38   S    
O10   C47   S    
C8    C12   S    
C56   H41   S    
C4    H16   S    
C49   H28   S    
C17   C18   A    
C44   H20   S    
C34   O7    A    
C58   N8    T    
C22   H2    S    
C3    C40   S    
C30   N2    A    
C54   H36   S    
Cu2   O6    S    
C2    O9    S    
C1    O2    A    
O11   C49   S    
Cu1   N1    S    
C5    C42   S    
C15   C17   A    
O13   C55   S    
C14   C15   A    
C25   H9    S    
C38   C51   S    
C37   N1    A    
C57   N7    T    
C50   H30   S    
C10   C23   S    
C12   O3    A    
C5    C59   S    
C51   N5    T    
C35   H13   S    
C32   C33   A    
C48   H25   S    
C2    C3    S    
C26   N2    A    
O9    C43   S    
C29   C31   A    
C11   C13   A    
C28   O12   S    
C56   H39   S    
C49   H27   S    
C33   C35   A    
C53   C54   S    
C44   H21   S    
C17   C21   A    
C36   H10   S    
C45   N3    T    
C9    C18   A    
C4    C5    S    
C40   C57   S    
C1    C24   S    
Cu1   O5    S    
C48   H26   S    
O12   C53   S    
C31   C36   A    
C21   H3    S    
Cu1   O7    S    
C55   C56   S    
C36   N1    A    
C27   C28   A    
