data_mof_unit_923.cif
_audit_creation_date              2012-12-10T17:05:40-0500
_audit_creation_method            fapswitch 2.2
_symmetry_space_group_name_H-M    P1
_symmetry_Int_Tables_number       1
_space_group_crystal_system       triclinic
_cell_length_a                    15.884997
_cell_length_b                    10.99108
_cell_length_c                    9.817196
_cell_angle_alpha                 110.680874
_cell_angle_beta                  98.045273
_cell_angle_gamma                 90.847216
_cell_volume                      1583.96662416

loop_
_atom_site_label
_atom_site_type_symbol
_atom_type_description
_atom_site_fract_x
_atom_site_fract_y
_atom_site_fract_z
_atom_type_partial_charge
C1    C     C_R   0.491283 0.254056 0.441632 0.891596
C2    C     C_3   0.957062 0.404167 0.577086 0.014298
C3    C     C_3   0.917155 0.497019 0.499901 0.216672
C4    C     C_3   0.957470 0.637522 0.589816 -0.424608
C5    C     C_3   0.055502 0.648741 0.583402 0.341147
C6    C     C_1   0.824575 0.497684 0.496589 -0.106741
C7    C     C_1   0.175655 0.502607 0.505021 -0.105986
C8    C     C_1   0.251056 0.501411 0.504296 -0.180280
C9    C     C_2   0.483596 0.114501 0.411575 -0.376068
C10   C     C_2   0.464320 0.068132 0.513578 0.449679
C11   C     C_2   0.498509 0.884778 0.590740 -0.358468
C12   C     C_R   0.340349 0.500181 0.501412 0.828361
C13   C     C_2   0.469391 0.928424 0.483268 -0.280925
C14   C     C_2   0.507175 0.511069 0.081074 -0.076675
C15   C     C_2   0.492077 0.490143 0.919270 -0.043772
C16   C     C_R   0.503945 0.745894 0.558727 0.863086
C17   C     C_R   0.659664 0.499786 0.498601 0.821789
C18   C     C_3   0.054936 0.406071 0.574737 -0.384438
C19   C     C_3   0.036206 0.447783 0.342582 -0.451712
C20   C     C_3   0.938670 0.455265 0.340704 -0.393953
C21   C     C_1   0.749025 0.498605 0.496013 -0.180660
C22   C     C_3   0.083411 0.504315 0.504730 0.250787
Cu1   Cu    Cu3+1 0.514650 0.521810 0.644910 0.962642
Cu2   Cu    Cu3+1 0.485350 0.478190 0.355090 0.939747
H1    H     H_    0.089741 0.422392 0.685455 0.163323
H2    H     H_    0.946462 0.443963 0.694107 0.145812
H3    H     H_    0.922704 0.706709 0.546628 0.170797
H4    H     H_    0.453906 0.861809 0.369547 0.170074
H5    H     H_    0.516973 0.951406 0.703693 0.164418
H6    H     H_    0.496062 0.048469 0.305219 0.099996
H7    H     H_    0.442127 0.418756 0.847382 0.190989
H8    H     H_    0.556396 0.583651 0.153301 0.158896
H9    H     H_    0.584157 0.621008 0.933249 0.188492
H10   H     H_    0.073069 0.307540 0.508840 0.172666
H11   H     H_    0.416978 0.377128 0.066269 0.196889
H12   H     H_    0.058760 0.498042 0.272780 0.165058
H13   H     H_    0.050255 0.344137 0.289285 0.178081
H14   H     H_    0.905590 0.359089 0.270444 0.170022
H15   H     H_    0.915180 0.526390 0.289453 0.169256
H16   H     H_    0.945514 0.665908 0.705561 0.155229
N1    N     N_2   0.463320 0.445430 0.137380 -0.282629
N2    N     N_2   0.536720 0.554500 0.862620 -0.289612
O1    O     O_R   0.507820 0.332330 0.577400 -0.513536
O2    O     O_R   0.483070 0.295500 0.332660 -0.588861
O3    O     O_R   0.391820 0.518430 0.622420 -0.574244
O4    O     O_R   0.367070 0.481600 0.377680 -0.573882
O5    O     O_R   0.516930 0.704500 0.667340 -0.579380
O6    O     O_R   0.492180 0.667670 0.422600 -0.576744
O7    O     O_R   0.632930 0.518400 0.622320 -0.572125
O8    O     O_R   0.608180 0.481570 0.377580 -0.574013
C23   C     C_3   0.915188 0.262729 0.509551 -0.383166
C24   C     C_3   0.941451 0.183289 0.606979 -0.884550
H17   H     H_    0.011250 0.173346 0.619465 0.256667
H18   H     H_    0.922851 0.230609 0.717656 0.252194
H19   H     H_    0.908695 0.084195 0.555787 0.247898
H20   H     H_    0.844689 0.263729 0.496562 0.213417
H21   H     H_    0.932457 0.211780 0.398481 0.207334
O9    O     O_3   0.441792 0.151017 0.644461 -0.725849
H22   H     H_    0.417144 0.097975 0.694337 0.316881
C25   C     C_3   0.107644 0.723824 0.741578 -0.349689
C26   C     C_3   0.114028 0.659779 0.857477 -0.907161
H23   H     H_    0.052277 0.611884 0.857851 0.245043
H24   H     H_    0.165320 0.590994 0.841984 0.255972
H25   H     H_    0.132956 0.735889 0.968452 0.244368
H26   H     H_    0.173798 0.749564 0.730980 0.206059
H27   H     H_    0.078347 0.817331 0.791420 0.212216
C27   C     C_3   0.070221 0.733546 0.486489 -0.415372
C28   C     C_3   0.060535 0.880665 0.556877 -0.909745
H28   H     H_    0.001217 0.900472 0.606255 0.253771
H29   H     H_    0.116195 0.928975 0.642423 0.250029
H30   H     H_    0.058011 0.925305 0.471125 0.253346
H31   H     H_    0.135049 0.721727 0.455316 0.203614
H32   H     H_    0.024311 0.699729 0.382393 0.206231

loop_
_geom_bond_atom_site_label_1
_geom_bond_atom_site_label_2
_ccdc_geom_bond_type
C17   O8    A    
C26   H25   S    
C28   H28   S    
Cu1   Cu2   S    
C13   H4    S    
C15   H7    S    
C27   H32   S    
C2    C18   S    
C7    C22   S    
C20   H14   S    
C9    C10   D    
C1    O2    A    
C19   C20   S    
C24   H19   S    
C5    C27   S    
C8    C12   S    
C3    C6    S    
Cu2   O4    S    
C16   O6    A    
C2    C3    S    
C20   H15   S    
C25   H27   S    
C7    C8    T    
C2    H2    S    
C18   H1    S    
C6    C21   T    
Cu2   N1    S    
C11   C13   D    
C23   C24   S    
Cu1   N2    S    
C9    H6    S    
C18   H10   S    
C14   N1    D    
C23   H21   S    
H9    N2    S    
C16   O5    A    
C12   O4    A    
C10   O9    S    
C24   H18   S    
C25   H26   S    
C23   H20   S    
C12   O3    A    
C19   H12   S    
C28   H30   S    
Cu2   O8    S    
C26   H23   S    
Cu2   O2    S    
Cu1   O7    S    
Cu1   O5    S    
C2    C23   S    
C3    C4    S    
Cu2   O6    S    
C4    H16   S    
C3    C20   S    
C19   C22   S    
C1    C9    S    
C24   H17   S    
C11   H5    S    
Cu1   O3    S    
C28   H29   S    
C27   H31   S    
C11   C16   S    
C17   O7    A    
C26   H24   S    
H11   N1    S    
C14   C15   S    
C4    C5    S    
C4    H3    S    
C19   H13   S    
C5    C25   S    
O9    H22   S    
C18   C22   S    
Cu1   O1    S    
C1    O1    A    
C17   C21   S    
C5    C22   S    
C27   C28   S    
C15   N2    D    
C14   H8    S    
C25   C26   S    
C10   C13   S    
