data_mof_unit_2890.cif
_audit_creation_date              2012-10-26T20:06:29-0400
_audit_creation_method            fapswitch 2.2
_symmetry_space_group_name_H-M    P1
_symmetry_Int_Tables_number       1
_space_group_crystal_system       triclinic
_cell_length_a                    10.819827
_cell_length_b                    9.617671
_cell_length_c                    14.319717
_cell_angle_alpha                 90.011342
_cell_angle_beta                  92.073124
_cell_angle_gamma                 89.902273
_cell_volume                      1489.15423903

loop_
_atom_site_label
_atom_site_type_symbol
_atom_type_description
_atom_site_fract_x
_atom_site_fract_y
_atom_site_fract_z
_atom_type_partial_charge
C1    C     C_R   0.262728 0.500201 0.498328 0.565216
C2    C     C_1   0.499933 0.499982 0.957254 0.011778
C3    C     C_R   0.059957 0.442537 0.422527 0.023582
C4    C     C_R   0.940043 0.557464 0.577473 0.023581
C5    C     C_R   0.930232 0.439270 0.424631 -0.036694
C6    C     C_R   0.069768 0.560729 0.575370 -0.036695
C7    C     C_R   0.871542 0.498783 0.501432 -0.012930
C8    C     C_R   0.128458 0.501217 0.498568 -0.012929
C9    C     C_R   0.411339 0.074841 0.449800 0.359677
C10   C     C_R   0.588661 0.925159 0.550200 0.359678
C11   C     C_R   0.590549 0.073937 0.548541 0.342597
C12   C     C_R   0.737272 0.499799 0.501672 0.565210
C13   C     C_R   0.409451 0.926063 0.451459 0.342594
C14   C     C_2   0.123123 0.395846 0.337608 0.278701
C15   C     C_2   0.876876 0.604158 0.662390 0.278718
C16   C     C_2   0.853553 0.383565 0.344421 0.248930
C17   C     C_2   0.146447 0.616430 0.655581 0.248939
C18   C     C_3   0.344412 0.149781 0.304331 -0.073262
C19   C     C_3   0.655583 0.850217 0.695670 -0.073271
C20   C     C_3   0.682799 0.176600 0.678884 -0.041319
C21   C     C_3   0.317203 0.823399 0.321115 -0.041321
C22   C     C_R   0.500248 0.500014 0.331275 0.529468
C23   C     C_R   0.499752 0.499986 0.668725 0.529461
C24   C     C_1   0.500341 0.500086 0.228918 -0.037370
C25   C     C_1   0.499659 0.499914 0.771082 -0.037370
C26   C     C_1   0.500231 0.500062 0.143448 -0.030717
C27   C     C_1   0.499770 0.499938 0.856552 -0.030714
C28   C     C_1   0.500068 0.500018 0.042746 0.011777
Cu1   Cu    Cu3+1 0.500000 0.640660 0.500000 1.048448
Cu2   Cu    Cu3+1 0.500000 0.359340 0.500000 1.048455
H1    H     H_    0.100637 0.296901 0.305285 0.177249
H2    H     H_    0.732829 0.899409 0.736058 0.112850
H3    H     H_    0.758111 0.126113 0.720866 0.123168
H4    H     H_    0.591817 0.150350 0.708614 0.073260
H5    H     H_    0.698781 0.289350 0.687659 0.202784
H6    H     H_    0.301217 0.710649 0.312341 0.202785
H7    H     H_    0.408186 0.849645 0.291387 0.073264
H8    H     H_    0.241894 0.873889 0.279132 0.123163
H9    H     H_    0.899349 0.703113 0.694704 0.177253
H10   H     H_    0.770155 0.437954 0.321025 0.100323
H11   H     H_    0.229853 0.562047 0.678969 0.100323
H12   H     H_    0.267160 0.100597 0.263945 0.112854
H13   H     H_    0.433690 0.101040 0.285087 0.076023
H14   H     H_    0.345482 0.258614 0.279954 0.181546
H15   H     H_    0.654520 0.741384 0.720047 0.181543
H16   H     H_    0.566300 0.898951 0.714911 0.076032
N1    N     N_R   0.500000 0.852070 0.500000 -0.267077
N2    N     N_R   0.500000 0.147930 0.500000 -0.267078
O1    O     O_R   0.319640 0.618740 0.499990 -0.442598
O2    O     O_2   0.800420 0.530182 0.698293 -0.565955
O3    O     O_2   0.879145 0.273880 0.306838 -0.505690
O4    O     O_2   0.120847 0.726105 0.693175 -0.505694
O5    O     O_3   0.319135 0.146466 0.400726 -0.512420
O6    O     O_3   0.680864 0.853535 0.599275 -0.512428
O7    O     O_3   0.694769 0.141773 0.583799 -0.503766
O8    O     O_3   0.305232 0.858227 0.416200 -0.503769
O9    O     O_R   0.680360 0.381260 0.500010 -0.442592
O10   O     O_R   0.680360 0.618740 0.500010 -0.449459
O11   O     O_R   0.319640 0.381260 0.499990 -0.449452
O12   O     O_R   0.500000 0.618810 0.376050 -0.500815
O13   O     O_R   0.500000 0.381190 0.623950 -0.500817
O14   O     O_R   0.500000 0.618810 0.623950 -0.475538
O15   O     O_R   0.500000 0.381190 0.376050 -0.475534
O16   O     O_2   0.199589 0.469814 0.301712 -0.565960

loop_
_geom_bond_atom_site_label_1
_geom_bond_atom_site_label_2
_ccdc_geom_bond_type
C21   O8    S    
C2    C28   T    
C19   H15   S    
C9    O5    S    
C2    C27   S    
C16   O3    D    
C18   H14   S    
C25   C27   T    
C1    C8    S    
C26   C28   S    
Cu1   O12   S    
C14   H1    S    
C13   O8    S    
C12   O10   A    
Cu2   O11   S    
C4    C15   S    
C23   C25   S    
C19   H16   S    
C14   O16   D    
C21   H6    S    
Cu1   O1    S    
Cu2   O15   S    
C15   H9    S    
C11   N2    A    
Cu1   Cu2   S    
C3    C14   S    
Cu1   N1    S    
C4    C7    A    
C12   O9    A    
C19   O6    S    
Cu2   N2    S    
C13   N1    A    
C16   H10   S    
C17   H11   S    
C1    O11   A    
C22   O12   A    
C7    C12   S    
C10   O6    S    
C22   C24   S    
C15   O2    D    
C20   O7    S    
C10   C11   A    
C20   H3    S    
C20   H4    S    
Cu2   O9    S    
C9    N2    A    
C23   O13   A    
C11   O7    S    
Cu1   O10   S    
C17   O4    D    
C21   H7    S    
C4    C6    A    
C3    C8    A    
Cu2   O13   S    
C10   N1    A    
C5    C7    A    
C6    C17   S    
C9    C13   A    
Cu1   O14   S    
C5    C16   S    
C6    C8    A    
C18   O5    S    
C22   O15   A    
C18   H13   S    
C20   H5    S    
C1    O1    A    
C19   H2    S    
C23   O14   A    
C21   H8    S    
C18   H12   S    
C24   C26   T    
C3    C5    A    
