data_mof_unit_2993.cif
_audit_creation_date              2012-12-10T19:24:11-0500
_audit_creation_method            fapswitch 2.2
_symmetry_space_group_name_H-M    P1
_symmetry_Int_Tables_number       1
_space_group_crystal_system       triclinic
_cell_length_a                    10.557036
_cell_length_b                    10.609573
_cell_length_c                    9.89043
_cell_angle_alpha                 89.102258
_cell_angle_beta                  88.879159
_cell_angle_gamma                 87.761693
_cell_volume                      1106.60381685

loop_
_atom_site_label
_atom_site_type_symbol
_atom_type_description
_atom_site_fract_x
_atom_site_fract_y
_atom_site_fract_z
_atom_type_partial_charge
C1    C     C_R   0.502706 0.258315 0.500355 1.034034
C2    C     C_R   0.497260 0.741686 0.499659 1.030912
C3    C     C_3   0.409852 0.962803 0.588636 -0.141422
C4    C     C_3   0.590070 0.037195 0.411444 -0.139013
C5    C     C_3   0.447251 0.401403 0.051151 -0.014785
C6    C     C_3   0.552591 0.598653 0.948865 -0.027634
C7    C     C_3   0.561115 0.402606 0.953051 -0.133292
C8    C     C_3   0.438753 0.597327 0.046995 -0.133279
C9    C     C_3   0.386003 0.498934 0.954448 -0.006787
C10   C     C_3   0.613901 0.501030 0.045493 0.017130
C11   C     C_R   0.258583 0.498813 0.500753 1.018246
C12   C     C_R   0.741508 0.501348 0.499285 1.025054
C13   C     C_3   0.042164 0.408659 0.586416 -0.162559
C14   C     C_3   0.958495 0.591506 0.413888 -0.154360
C15   C     C_3   0.961995 0.387711 0.460423 -0.201202
C16   C     C_3   0.038460 0.612264 0.539842 -0.135880
C17   C     C_3   0.875914 0.502499 0.498755 -0.165008
C18   C     C_3   0.124349 0.497755 0.501502 -0.118573
C19   C     C_3   0.955935 0.523291 0.623885 0.389399
C20   C     C_3   0.044496 0.476881 0.376459 0.393452
C21   C     C_3   0.526065 0.037973 0.622207 0.392428
C22   C     C_3   0.473852 0.962018 0.377899 0.389960
C23   C     C_3   0.614097 0.951194 0.536334 -0.198031
C24   C     C_3   0.385830 0.048808 0.463754 -0.195624
C25   C     C_3   0.497657 0.876046 0.501048 -0.102311
C26   C     C_3   0.502271 0.123955 0.499039 -0.103187
N1    N     N_3   0.499910 0.500030 0.863290 -0.142254
N2    N     N_3   0.500090 0.499970 0.136710 -0.139988
O1    O     O_R   0.500010 0.313960 0.616610 -0.551536
O2    O     O_R   0.499990 0.686040 0.383390 -0.559723
O3    O     O_R   0.500060 0.313950 0.383350 -0.632828
O4    O     O_R   0.499940 0.686050 0.616650 -0.631142
O5    O     O_R   0.313930 0.499970 0.616610 -0.655556
O6    O     O_R   0.686070 0.500030 0.383390 -0.646792
O7    O     O_R   0.313980 0.499960 0.383350 -0.524152
O8    O     O_R   0.686020 0.500040 0.616650 -0.553357
Zn1   Zn    Zn3+2 0.499970 0.500010 0.655740 1.057404
Zn2   Zn    Zn3+2 0.500030 0.499990 0.344260 1.068757
C27   C     C_2   0.919691 0.262186 0.417314 0.467771
H1    H     H_    0.941237 0.229340 0.315875 0.112840
O9    O     O_2   0.860858 0.196421 0.496703 -0.607351
C28   C     C_2   0.080726 0.737675 0.583319 0.472383
H2    H     H_    0.059928 0.769804 0.685183 0.139492
O10   O     O_2   0.138821 0.804029 0.503871 -0.619113
C29   C     C_2   0.083037 0.304478 0.682208 0.551119
H3    H     H_    0.012073 0.255299 0.741025 0.098869
O11   O     O_2   0.194831 0.273585 0.693839 -0.554273
C30   C     C_2   0.918242 0.695276 0.317441 0.566942
H4    H     H_    0.989473 0.743235 0.257765 0.122063
O12   O     O_2   0.806634 0.727066 0.306103 -0.558397
O13   O     O_3   0.909106 0.552187 0.753518 -0.648508
H5    H     H_    0.883915 0.471072 0.794667 0.371447
O14   O     O_3   0.094627 0.451933 0.247252 -0.634070
H6    H     H_    0.020754 0.435670 0.190790 0.352434
C31   C     C_2   0.741394 0.902198 0.582357 0.465225
H7    H     H_    0.814583 0.967660 0.603056 0.128071
O15   O     O_2   0.763207 0.789344 0.597952 -0.549672
C32   C     C_2   0.258565 0.097823 0.417644 0.462325
H8    H     H_    0.185314 0.032384 0.397095 0.128284
O16   O     O_2   0.236854 0.210665 0.401776 -0.554052
O17   O     O_3   0.552608 0.079939 0.751138 -0.744372
H9    H     H_    0.571013 0.002932 0.806219 0.322004
O18   O     O_3   0.447165 0.919922 0.249077 -0.752075
H10   H     H_    0.429621 0.996921 0.193697 0.322280
C33   C     C_2   0.312969 0.932004 0.695669 0.456142
H11   H     H_    0.248340 0.005950 0.733112 0.118538
O19   O     O_2   0.307515 0.825584 0.743080 -0.642048
C34   C     C_2   0.686952 0.068057 0.304422 0.454452
H12   H     H_    0.751294 0.994044 0.266604 0.118723
O20   O     O_2   0.692747 0.174621 0.257469 -0.642705
C35   C     C_2   0.636932 0.290657 0.902143 0.516193
H13   H     H_    0.632274 0.201302 0.956337 0.070968
O21   O     O_2   0.709834 0.300724 0.805841 -0.531887
C36   C     C_2   0.361481 0.708051 0.098494 0.541631
H14   H     H_    0.369385 0.799097 0.048470 0.062954
O22   O     O_2   0.283342 0.694924 0.189550 -0.491555
C37   C     C_2   0.394872 0.283324 0.110852 0.554305
H15   H     H_    0.458085 0.214747 0.159334 0.040596
O23   O     O_2   0.282658 0.262061 0.103103 -0.475485
C38   C     C_2   0.604590 0.716883 0.889125 0.547871
H16   H     H_    0.541042 0.785512 0.841200 0.042260
O24   O     O_2   0.716870 0.738168 0.896114 -0.461763
C39   C     C_2   0.253756 0.512540 0.902137 0.586269
H17   H     H_    0.227146 0.593208 0.838848 0.067669
O25   O     O_2   0.174353 0.436595 0.933737 -0.499347
C40   C     C_2   0.746092 0.488137 0.097602 0.508408
H18   H     H_    0.773333 0.407367 0.160455 0.053941
O26   O     O_2   0.824700 0.565014 0.066425 -0.504293

loop_
_geom_bond_atom_site_label_1
_geom_bond_atom_site_label_2
_ccdc_geom_bond_type
C7    C10   S    
C21   C26   S    
C11   C18   S    
C31   H7    S    
C27   O9    D    
C29   H3    S    
C36   O22   D    
C13   C18   S    
C22   C24   S    
O8    Zn1   S    
C24   C26   S    
C7    C35   S    
C40   O26   D    
C32   O16   D    
C1    O3    A    
C7    N1    S    
O2    Zn2   S    
C2    O4    A    
C29   O11   D    
C22   O18   S    
C34   H12   S    
C39   H17   S    
C8    C9    S    
C33   O19   D    
C22   C25   S    
C12   C17   S    
C12   O8    A    
C21   O17   S    
C37   H15   S    
C30   O12   D    
C14   C17   S    
C3    C24   S    
C3    C33   S    
C28   O10   D    
C1    O1    A    
C37   O23   D    
C21   C23   S    
C15   C20   S    
C36   H14   S    
C13   C19   S    
O13   H5    S    
C14   C20   S    
C3    C25   S    
O7    Zn2   S    
C38   O24   D    
C27   H1    S    
C35   O21   D    
C4    C23   S    
C40   H18   S    
C38   H16   S    
C6    C8    S    
C32   H8    S    
O14   H6    S    
C4    C34   S    
O5    Zn1   S    
C5    C9    S    
C5    N2    S    
C4    C22   S    
C6    C38   S    
C6    N1    S    
N2    Zn2   S    
C8    C36   S    
C16   C18   S    
O4    Zn1   S    
C15   C27   S    
C9    C39   S    
C24   C32   S    
C30   H4    S    
C39   O25   D    
C13   C15   S    
C1    C26   S    
C8    N2    S    
C14   C16   S    
C3    C21   S    
C28   H2    S    
C12   O6    A    
C16   C28   S    
C9    N1    S    
C5    C7    S    
C10   N2    S    
C15   C17   S    
C10   C40   S    
O6    Zn2   S    
C20   O14   S    
C6    C10   S    
C4    C26   S    
C23   C31   S    
C11   O5    A    
O3    Zn2   S    
C2    O2    A    
C31   O15   D    
C35   H13   S    
C13   C29   S    
N1    Zn1   S    
C16   C19   S    
C11   O7    A    
C17   C19   S    
C2    C25   S    
C18   C20   S    
C23   C25   S    
O17   H9    S    
O18   H10   S    
C19   O13   S    
C34   O20   D    
C33   H11   S    
O1    Zn1   S    
C14   C30   S    
C5    C37   S    
