data_mof_unit_2594.cif
_audit_creation_date              2012-12-10T17:25:20-0500
_audit_creation_method            fapswitch 2.2
_symmetry_space_group_name_H-M    P1
_symmetry_Int_Tables_number       1
_space_group_crystal_system       triclinic
_cell_length_a                    27.814123
_cell_length_b                    10.771104
_cell_length_c                    9.60241
_cell_angle_alpha                 90.024391
_cell_angle_beta                  90.247153
_cell_angle_gamma                 92.560656
_cell_volume                      2873.87480605

loop_
_atom_site_label
_atom_site_type_symbol
_atom_type_description
_atom_site_fract_x
_atom_site_fract_y
_atom_site_fract_z
_atom_type_partial_charge
C1    C     C_R   0.498348 0.262603 0.499973 0.800489
C2    C     C_R   0.275756 0.452938 0.397100 -0.127654
C3    C     C_R   0.253551 0.504862 0.512512 0.280966
C4    C     C_R   0.101761 0.507042 0.521851 -0.044010
C5    C     C_R   0.125267 0.393987 0.524988 -0.023384
C6    C     C_R   0.098040 0.282008 0.529004 -0.141528
C7    C     C_R   0.129513 0.619588 0.518935 -0.024908
C8    C     C_R   0.354453 0.499378 0.500732 -0.121281
C9    C     C_R   0.645449 0.504016 0.501374 -0.037335
C10   C     C_R   0.972261 0.393475 0.509468 0.043157
C11   C     C_R   0.976394 0.622662 0.525982 0.043775
C12   C     C_R   0.407495 0.498397 0.499717 0.823627
C13   C     C_R   0.949084 0.508253 0.516134 0.067796
C14   C     C_R   0.943386 0.282886 0.492138 -0.203971
C15   C     C_R   0.893525 0.284636 0.486725 -0.143715
C16   C     C_R   0.870371 0.396486 0.497997 -0.021835
C17   C     C_R   0.897967 0.508615 0.512704 -0.044068
C18   C     C_R   0.874309 0.621089 0.523888 -0.019824
C19   C     C_R   0.823794 0.619266 0.520737 0.533662
C20   C     C_R   0.819961 0.398926 0.494380 0.535690
C21   C     C_R   0.721276 0.496338 0.377825 -0.105147
C22   C     C_R   0.671095 0.494213 0.376252 -0.220587
C23   C     C_R   0.498573 0.737097 0.500017 0.763558
C24   C     C_R   0.670937 0.517278 0.627716 -0.218768
C25   C     C_R   0.721091 0.520054 0.628832 -0.105594
C26   C     C_R   0.746348 0.509142 0.504069 0.363668
C27   C     C_R   0.023267 0.392894 0.518623 0.043816
C28   C     C_R   0.050632 0.507501 0.521032 0.069055
C29   C     C_R   0.027500 0.622514 0.522062 0.042855
C30   C     C_R   0.048113 0.281192 0.526132 -0.203511
C31   C     C_R   0.106459 0.732066 0.516152 -0.139903
C32   C     C_R   0.951377 0.733615 0.539914 -0.204169
C33   C     C_R   0.901414 0.732568 0.538703 -0.146141
C34   C     C_R   0.592463 0.501051 0.500331 0.776571
C35   C     C_R   0.056553 0.733793 0.517620 -0.202604
C36   C     C_R   0.421250 0.120430 0.643032 -0.170426
C37   C     C_R   0.385304 0.051262 0.712829 -0.102663
C38   C     C_R   0.385416 0.922140 0.713134 -0.111987
C39   C     C_R   0.421486 0.861405 0.643696 -0.168056
C40   C     C_R   0.458756 0.929595 0.573935 0.100061
C41   C     C_R   0.458650 0.060887 0.573693 0.094620
C42   C     C_R   0.495095 0.128438 0.499713 -0.093630
C43   C     C_R   0.529293 0.067486 0.422556 -0.184165
C44   C     C_R   0.529376 0.939442 0.422675 -0.197537
C45   C     C_R   0.175755 0.395490 0.524352 0.545757
C46   C     C_R   0.495263 0.870513 0.499975 -0.082762
C47   C     C_R   0.563767 0.665846 0.144713 -0.145058
C48   C     C_R   0.594956 0.746752 0.072909 -0.207296
C49   C     C_R   0.594993 0.746615 0.929411 -0.200332
C50   C     C_R   0.563811 0.665644 0.856821 -0.144872
C51   C     C_R   0.531277 0.581645 0.925604 0.207220
C52   C     C_R   0.531247 0.581691 0.075163 0.206508
C53   C     C_R   0.470606 0.421490 0.073404 -0.012545
C54   C     C_R   0.470485 0.421801 0.925576 -0.047216
C55   C     C_R   0.179954 0.616958 0.516729 0.546371
C56   C     C_R   0.281718 0.553923 0.622074 -0.089322
C57   C     C_R   0.331698 0.551103 0.616346 -0.280853
C58   C     C_R   0.325810 0.449165 0.390417 0.353363
Cu1   Cu    Cu3+1 0.500000 0.499990 0.640660 0.933559
Cu2   Cu    Cu3+1 0.500000 0.500010 0.359340 0.968935
H1    H     H_    0.264824 0.593677 0.712100 0.161201
H2    H     H_    0.126956 0.819932 0.512290 0.190176
H3    H     H_    0.969256 0.823390 0.554602 0.135859
H4    H     H_    0.652203 0.525654 0.725676 0.162681
H5    H     H_    0.884084 0.820160 0.549446 0.185636
H6    H     H_    0.740389 0.529844 0.726684 0.137812
H7    H     H_    0.041949 0.824534 0.512004 0.136271
H8    H     H_    0.556768 0.119563 0.364457 0.154737
H9    H     H_    0.418733 0.220277 0.641867 0.143455
H10   H     H_    0.356888 0.098044 0.765366 0.159691
H11   H     H_    0.253834 0.414277 0.312772 0.178490
H12   H     H_    0.357083 0.868682 0.765867 0.149688
H13   H     H_    0.419185 0.761060 0.643252 0.149387
H14   H     H_    0.556916 0.893873 0.364662 0.139406
H15   H     H_    0.446763 0.356490 0.128098 0.190974
H16   H     H_    0.566968 0.673374 0.254474 0.192140
H17   H     H_    0.619373 0.809896 0.129379 0.156754
H18   H     H_    0.619456 0.809607 0.873574 0.161560
H19   H     H_    0.567012 0.672921 0.747090 0.197829
H20   H     H_    0.446283 0.357606 0.870083 0.145367
H21   H     H_    0.115241 0.193806 0.533909 0.186625
H22   H     H_    0.652449 0.484236 0.277357 0.163794
H23   H     H_    0.740731 0.487923 0.281091 0.138124
H24   H     H_    0.873143 0.197301 0.473463 0.188778
H25   H     H_    0.958136 0.192904 0.479316 0.137026
H26   H     H_    0.030093 0.190836 0.532449 0.135272
H27   H     H_    0.352608 0.590182 0.702489 0.175335
N1    N     N_R   0.201998 0.505907 0.518898 -0.458962
N2    N     N_R   0.797841 0.509227 0.505974 -0.470201
N3    N     N_R   0.500460 0.501210 0.147910 -0.207194
N4    N     N_R   0.500480 0.501290 0.852040 -0.204398
O1    O     O_R   0.500000 0.319640 0.618810 -0.581688
O2    O     O_2   0.793209 0.291951 0.480340 -0.531609
O3    O     O_2   0.206742 0.724422 0.510679 -0.528049
O4    O     O_2   0.800767 0.726483 0.531707 -0.534901
O5    O     O_R   0.500000 0.319660 0.381240 -0.568988
O6    O     O_R   0.430260 0.500010 0.618770 -0.600976
O7    O     O_R   0.430270 0.500030 0.381200 -0.520807
O8    O     O_R   0.500000 0.680340 0.618760 -0.603301
O9    O     O_R   0.500000 0.680360 0.381190 -0.587783
O10   O     O_R   0.569730 0.499970 0.618800 -0.596684
O11   O     O_R   0.569740 0.499990 0.381230 -0.604301
O12   O     O_2   0.198485 0.287439 0.529528 -0.525077
Cl1   Cl    Cl    0.350105 0.374337 0.245402 -0.635570

loop_
_geom_bond_atom_site_label_1
_geom_bond_atom_site_label_2
_ccdc_geom_bond_type
C10   C27   A    
C23   O8    A    
C21   C26   A    
Cu1   O8    S    
C41   C42   A    
C52   N3    A    
C7    C55   A    
C20   O2    S    
C50   H19   S    
C33   H5    S    
C53   C54   A    
C49   H18   S    
C26   N2    S    
C40   C46   A    
C28   C29   A    
C34   O11   A    
C22   H22   S    
C36   C37   A    
C47   H16   S    
Cu2   O7    S    
C4    C7    A    
C5    C6    A    
C9    C22   A    
C15   C16   A    
C56   C57   A    
C18   C19   A    
C55   N1    A    
C45   O12   S    
C8    C58   A    
C21   H23   S    
C16   C17   A    
C30   H26   S    
C12   O7    A    
C16   C20   A    
C51   N4    A    
C23   O9    A    
Cu1   Cu2   S    
C24   H4    S    
C23   C46   S    
C21   C22   A    
C27   C30   A    
C31   H2    S    
C36   C41   A    
C53   H15   S    
C55   O3    S    
Cu2   O11   S    
C4    C28   A    
C44   C46   A    
C17   C18   A    
C54   H20   S    
C38   H12   S    
C34   O10   A    
C7    C31   A    
C51   C52   A    
Cu1   O10   S    
C45   N1    A    
C24   C25   A    
C32   H3    S    
C10   C14   A    
C39   C40   A    
C43   H8    S    
C25   C26   A    
C5    C45   A    
C57   H27   S    
C48   H17   S    
C43   C44   A    
C37   C38   A    
C19   N2    A    
C8    C57   A    
C3    C56   A    
C47   C48   A    
C35   H7    S    
C8    C12   S    
C50   C51   A    
Cu1   N4    S    
C44   H14   S    
C12   O6    A    
C15   H24   S    
Cu2   O5    S    
C40   C41   A    
C6    C30   A    
C11   C32   A    
C1    O1    A    
C9    C34   S    
Cu1   O6    S    
C31   C35   A    
C58   Cl1   S    
C42   C43   A    
C2    H11   S    
C53   N3    A    
C19   O4    S    
C36   H9    S    
C48   C49   A    
C3    N1    S    
C14   C15   A    
C25   H6    S    
C14   H25   S    
C4    C5    A    
Cu2   O9    S    
C10   C13   A    
C2    C58   A    
C9    C24   A    
C47   C52   A    
Cu2   N3    S    
C20   N2    A    
C29   C35   A    
C13   C17   A    
C32   C33   A    
C2    C3    A    
C54   N4    A    
C11   C13   A    
C38   C39   A    
C1    O5    A    
Cu1   O1    S    
C39   H13   S    
C18   C33   A    
C1    C42   S    
C11   C29   A    
C49   C50   A    
C27   C28   A    
C6    H21   S    
C56   H1    S    
C37   H10   S    
