data_mof_unit_997.cif
_audit_creation_date              2012-12-10T16:49:29-0500
_audit_creation_method            fapswitch 2.2
_symmetry_space_group_name_H-M    P1
_symmetry_Int_Tables_number       1
_space_group_crystal_system       triclinic
_cell_length_a                    19.335368
_cell_length_b                    8.690623
_cell_length_c                    7.443546
_cell_angle_alpha                 102.913588
_cell_angle_beta                  94.512397
_cell_angle_gamma                 92.363278
_cell_volume                      1213.14440385

loop_
_atom_site_label
_atom_site_type_symbol
_atom_type_description
_atom_site_fract_x
_atom_site_fract_y
_atom_site_fract_z
_atom_type_partial_charge
C1    C     C_R   0.497912 0.199700 0.453279 0.890524
C2    C     C_R   0.502088 0.800300 0.546721 0.890524
C3    C     C_2   0.496914 0.031876 0.426924 -0.370170
C4    C     C_2   0.503086 0.968124 0.573076 -0.370170
C5    C     C_R   0.367502 0.500038 0.501834 0.783548
C6    C     C_R   0.632498 0.499962 0.498166 0.783547
C7    C     C_R   0.260294 0.510841 0.669770 -0.189536
C8    C     C_R   0.739706 0.489159 0.330230 -0.189536
C9    C     C_R   0.188164 0.510864 0.669534 -0.153618
C10   C     C_R   0.811836 0.489136 0.330466 -0.153618
C11   C     C_R   0.146315 0.500938 0.503599 0.060165
C12   C     C_R   0.853685 0.499062 0.496401 0.060165
C13   C     C_R   0.177865 0.491179 0.338314 -0.156095
C14   C     C_R   0.822135 0.508821 0.661686 -0.156095
C15   C     C_R   0.249739 0.491052 0.338560 -0.182381
C16   C     C_R   0.750261 0.508948 0.661440 -0.182382
C17   C     C_R   0.291618 0.500755 0.504104 -0.026325
C18   C     C_R   0.708382 0.499245 0.495896 -0.026325
C19   C     C_R   0.929842 0.499468 0.498021 0.411488
C20   C     C_R   0.070158 0.500532 0.501979 0.411488
Cu1   Cu    Cu3+1 0.507710 0.517380 0.684380 0.950006
Cu2   Cu    Cu3+1 0.492290 0.482620 0.315620 0.950006
H1    H     H_    0.291394 0.518375 0.799334 0.148863
H2    H     H_    0.708606 0.481625 0.200666 0.148863
H3    H     H_    0.165315 0.518505 0.799250 0.149783
H4    H     H_    0.834685 0.481494 0.200750 0.149783
H5    H     H_    0.491093 0.960406 0.286002 0.179839
H6    H     H_    0.508907 0.039594 0.713998 0.179839
H7    H     H_    0.445072 0.379400 0.948622 0.223554
H8    H     H_    0.554927 0.620600 0.051378 0.223554
N1    N     N_R   0.029924 0.490579 0.341433 -0.231091
N2    N     N_R   0.970076 0.509421 0.658567 -0.231091
N3    N     N_R   0.961111 0.490063 0.339433 -0.234059
N4    N     N_R   0.038889 0.509936 0.660567 -0.234059
N5    N     N_2   0.480680 0.456420 0.038530 -0.218573
N6    N     N_2   0.519320 0.543580 0.961470 -0.218573
O1    O     O_R   0.505010 0.286130 0.619770 -0.581920
O2    O     O_R   0.494990 0.713870 0.380230 -0.581920
O3    O     O_R   0.491990 0.256780 0.308370 -0.583461
O4    O     O_R   0.508010 0.743220 0.691630 -0.583461
O5    O     O_R   0.406650 0.514660 0.655750 -0.590831
O6    O     O_R   0.593350 0.485340 0.344250 -0.590831
O7    O     O_R   0.393640 0.485310 0.344340 -0.585938
O8    O     O_R   0.606360 0.514690 0.655660 -0.585938
H9    H     H_    0.147141 0.483511 0.208192 0.155448
H10   H     H_    0.852859 0.516488 0.791808 0.155448
H11   H     H_    0.272386 0.483415 0.208533 0.150781
H12   H     H_    0.727614 0.516585 0.791467 0.150781

loop_
_geom_bond_atom_site_label_1
_geom_bond_atom_site_label_2
_ccdc_geom_bond_type
C2    C4    S    
N1    N3    A    
C15   C17   A    
C15   H11   S    
Cu1   O8    S    
C11   C13   A    
C2    O2    A    
C1    O3    A    
N5    N6    D    
H8    N6    S    
C20   N4    A    
C16   H12   S    
C3    H5    S    
C5    O7    A    
C9    H3    S    
C14   H10   S    
Cu1   N6    S    
C6    O8    A    
Cu1   Cu2   S    
C13   H9    S    
Cu2   N5    S    
C9    C11   A    
C10   H4    S    
Cu2   O6    S    
Cu1   O4    S    
C10   C12   A    
C7    H1    S    
C19   N2    A    
C12   C19   S    
C8    C10   A    
C4    H6    S    
C12   C14   A    
C14   C16   A    
C13   C15   A    
C19   N3    A    
C6    C18   S    
Cu1   O5    S    
C11   C20   S    
C5    C17   S    
Cu2   O3    S    
C3    C4    D    
Cu2   O2    S    
C2    O4    A    
Cu1   O1    S    
C16   C18   A    
C6    O6    A    
C1    C3    S    
C7    C9    A    
H7    N5    S    
C5    O5    A    
C8    H2    S    
C8    C18   A    
Cu2   O7    S    
C1    O1    A    
C7    C17   A    
C20   N1    A    
N2    N4    A    
