data_mof_unit_1751.cif
_audit_creation_date              2012-10-26T19:09:53-0400
_audit_creation_method            fapswitch 2.2
_symmetry_space_group_name_H-M    P1
_symmetry_Int_Tables_number       1
_space_group_crystal_system       triclinic
_cell_length_a                    15.187369
_cell_length_b                    15.28468
_cell_length_c                    9.405064
_cell_angle_alpha                 89.999215
_cell_angle_beta                  90.200277
_cell_angle_gamma                 90.104844
_cell_volume                      2183.21884077

loop_
_atom_site_label
_atom_site_type_symbol
_atom_type_description
_atom_site_fract_x
_atom_site_fract_y
_atom_site_fract_z
_atom_type_partial_charge
C1    C     C_R   0.118392 0.378120 0.500025 0.552124
C2    C     C_R   0.877083 0.616722 0.499558 0.544795
C3    C     C_R   0.378483 0.881546 0.499818 0.545959
C4    C     C_R   0.378209 0.118297 0.499864 0.544519
C5    C     C_3   0.847578 0.228445 0.433934 -0.216158
C6    C     C_3   0.729788 0.344365 0.411212 -0.218642
C7    C     C_3   0.846782 0.769470 0.555567 -0.215856
C8    C     C_3   0.773125 0.700575 0.345139 -0.214818
C9    C     C_3   0.240907 0.832505 0.618449 -0.216843
C10   C     C_3   0.351356 0.723217 0.527174 -0.216581
C11   C     C_3   0.344059 0.270606 0.568287 -0.216984
C12   C     C_R   0.118458 0.621830 0.500034 0.554562
C13   C     C_3   0.277722 0.206091 0.345149 -0.216397
C14   C     C_3   0.171287 0.758517 0.624814 -0.111806
C15   C     C_3   0.280302 0.650133 0.522468 -0.113397
C16   C     C_3   0.277722 0.346058 0.549637 -0.116129
C17   C     C_3   0.198875 0.269671 0.345458 -0.105487
C18   C     C_3   0.776742 0.155425 0.434665 -0.116843
C19   C     C_3   0.661064 0.269666 0.398543 -0.113421
C20   C     C_3   0.777583 0.843065 0.552525 -0.110531
C21   C     C_3   0.697226 0.767598 0.346167 -0.105056
C22   C     C_3   0.778682 0.293517 0.653280 -0.235547
C23   C     C_R   0.618504 0.877859 0.500281 0.548548
C24   C     C_3   0.728374 0.656160 0.593893 -0.235887
C25   C     C_3   0.259628 0.811670 0.354748 -0.235164
C26   C     C_3   0.227080 0.155524 0.587381 -0.238325
C27   C     C_3   0.810042 0.313211 0.499614 0.038654
C28   C     C_3   0.807144 0.683985 0.498428 0.036369
C29   C     C_3   0.308889 0.813582 0.499869 0.036850
C30   C     C_3   0.308091 0.185941 0.499703 0.034573
C31   C     C_3   0.186825 0.691812 0.499856 0.086386
C32   C     C_3   0.186300 0.307898 0.499951 0.084032
C33   C     C_3   0.688211 0.191278 0.497797 0.085544
C34   C     C_R   0.619194 0.121379 0.499649 0.555679
C35   C     C_3   0.685729 0.806271 0.500869 0.082188
C36   C     C_3   0.185917 0.742786 0.356378 -0.220541
C37   C     C_3   0.159720 0.231139 0.600190 -0.220066
C38   C     C_3   0.704605 0.225675 0.651609 -0.221676
C39   C     C_3   0.658570 0.729826 0.600658 -0.219123
C40   C     C_3   0.983952 0.588560 0.083711 -0.103000
C41   C     C_3   0.984022 0.588585 0.916100 -0.105044
C42   C     C_3   0.932917 0.440671 0.083361 -0.101945
C43   C     C_3   0.932898 0.440695 0.916026 -0.101368
C44   C     C_3   0.478511 0.087317 0.083689 -0.103964
C45   C     C_3   0.087238 0.471175 0.084250 -0.105132
C46   C     C_3   0.478404 0.087295 0.916098 -0.103055
C47   C     C_3   0.436774 0.936559 0.083365 -0.102589
C48   C     C_3   0.436813 0.936523 0.916029 -0.101892
C49   C     C_3   0.077890 0.797378 0.631229 -0.439469
C50   C     C_3   0.304709 0.580355 0.410842 -0.435498
C51   C     C_3   0.277116 0.403359 0.684580 -0.427881
C52   C     C_3   0.116179 0.223755 0.283326 -0.430855
C53   C     C_3   0.811231 0.073764 0.509562 -0.438911
C54   C     C_3   0.567690 0.304151 0.421088 -0.441262
C55   C     C_3   0.778140 0.889616 0.698845 -0.432825
C56   C     C_3   0.087209 0.471164 0.916666 -0.104389
C57   C     C_3   0.613096 0.724780 0.282892 -0.430907
C58   C     C_3   0.588882 0.976485 0.084333 -0.103610
C59   C     C_3   0.588905 0.976673 0.916723 -0.105794
C60   C     C_R   0.879124 0.381144 0.500010 0.546390
Cu1   Cu    Cu3+1 0.000100 0.500000 0.642410 0.851527
Cu2   Cu    Cu3+1 0.000100 0.500000 0.357590 0.851523
Cu3   Cu    Cu3+1 0.500100 0.000000 0.642410 0.855164
Cu4   Cu    Cu3+1 0.500100 1.000000 0.357590 0.851804
H1    H     H_    0.907738 0.208466 0.493787 0.110844
H2    H     H_    0.750656 0.364356 0.302572 0.101590
H3    H     H_    0.904200 0.789126 0.489457 0.087212
H4    H     H_    0.827538 0.726412 0.277892 0.096395
H5    H     H_    0.274150 0.837044 0.723879 0.102327
H6    H     H_    0.384119 0.722949 0.633289 0.093756
H7    H     H_    0.406378 0.290426 0.518691 0.090527
H8    H     H_    0.333174 0.236267 0.285236 0.093196
H9    H     H_    0.181073 0.722896 0.727077 0.122479
H10   H     H_    0.280669 0.616532 0.627517 0.110003
H11   H     H_    0.302744 0.388657 0.462734 0.110441
H12   H     H_    0.701022 0.403347 0.462763 0.111226
H13   H     H_    0.215453 0.324425 0.272004 0.118913
H14   H     H_    0.764530 0.135560 0.322225 0.117599
H15   H     H_    0.662297 0.246133 0.286338 0.120517
H16   H     H_    0.800228 0.890607 0.471419 0.107991
H17   H     H_    0.716098 0.822024 0.273529 0.119627
H18   H     H_    0.834522 0.268216 0.718329 0.111846
H19   H     H_    0.754600 0.354419 0.705107 0.107506
H20   H     H_    0.751642 0.641300 0.703590 0.113254
H21   H     H_    0.697761 0.595474 0.550718 0.097259
H22   H     H_    0.230980 0.877121 0.331317 0.103353
H23   H     H_    0.872018 0.757983 0.665386 0.124838
H24   H     H_    0.306378 0.795770 0.267581 0.113108
H25   H     H_    0.247593 0.134550 0.695846 0.110836
H26   H     H_    0.195673 0.098069 0.535022 0.100187
H27   H     H_    0.121214 0.774876 0.339064 0.102491
H28   H     H_    0.194790 0.697864 0.264622 0.116407
H29   H     H_    0.157321 0.253868 0.712298 0.112711
H30   H     H_    0.092480 0.206879 0.574432 0.097595
H31   H     H_    0.722202 0.171277 0.724818 0.112458
H32   H     H_    0.643629 0.255242 0.695279 0.107104
H33   H     H_    0.651741 0.752896 0.712000 0.113109
H34   H     H_    0.752315 0.637357 0.296357 0.123457
H35   H     H_    0.592770 0.703641 0.570726 0.098411
H36   H     H_    0.034054 0.635781 0.123605 0.107768
H37   H     H_    0.034248 0.635728 0.876918 0.108152
H38   H     H_    0.944164 0.372738 0.121803 0.106275
H39   H     H_    0.944132 0.372752 0.877817 0.108226
H40   H     H_    0.525613 0.137489 0.123674 0.107439
H41   H     H_    0.525362 0.137546 0.876456 0.107142
H42   H     H_    0.452082 0.869512 0.122226 0.104872
H43   H     H_    0.452173 0.869460 0.877432 0.108770
H44   H     H_    0.919057 0.612863 0.120665 0.109540
H45   H     H_    0.209949 0.897360 0.598047 0.113218
H46   H     H_    0.919205 0.613066 0.878302 0.110261
H47   H     H_    0.866759 0.460527 0.122134 0.106060
H48   H     H_    0.866726 0.460571 0.876598 0.106697
H49   H     H_    0.412194 0.107569 0.120570 0.109394
H50   H     H_    0.411982 0.107444 0.878737 0.110447
H51   H     H_    0.369448 0.952469 0.121730 0.107433
H52   H     H_    0.369478 0.952416 0.876959 0.106377
H53   H     H_    0.141034 0.514083 0.124637 0.106147
H54   H     H_    0.140943 0.514174 0.877050 0.104380
H55   H     H_    0.102529 0.403849 0.121015 0.113495
H56   H     H_    0.404094 0.711615 0.447322 0.111858
H57   H     H_    0.102399 0.403822 0.879873 0.111483
H58   H     H_    0.639916 0.022575 0.124736 0.106276
H59   H     H_    0.639674 0.023252 0.877594 0.102039
H60   H     H_    0.608375 0.910243 0.121163 0.113523
H61   H     H_    0.608629 0.910581 0.879623 0.112571
H62   H     H_    0.062438 0.836553 0.535138 0.123634
H63   H     H_    0.028187 0.744962 0.643538 0.152363
H64   H     H_    0.072299 0.840907 0.725349 0.109886
H65   H     H_    0.314730 0.609959 0.304377 0.126244
H66   H     H_    0.366999 0.547695 0.442818 0.112336
H67   H     H_    0.358504 0.258110 0.682765 0.126367
H68   H     H_    0.253026 0.529378 0.402485 0.147638
H69   H     H_    0.248418 0.367859 0.776219 0.125005
H70   H     H_    0.345565 0.422571 0.712884 0.107153
H71   H     H_    0.240425 0.464883 0.666087 0.156588
H72   H     H_    0.103155 0.160517 0.337354 0.124782
H73   H     H_    0.056180 0.264435 0.291892 0.155506
H74   H     H_    0.126777 0.209931 0.168697 0.101959
H75   H     H_    0.829151 0.086928 0.622000 0.130164
H76   H     H_    0.759105 0.023850 0.504141 0.145261
H77   H     H_    0.870129 0.048248 0.453536 0.113089
H78   H     H_    0.260733 0.144106 0.288959 0.126041
H79   H     H_    0.557296 0.324589 0.532867 0.126041
H80   H     H_    0.555494 0.361392 0.350958 0.111900
H81   H     H_    0.519849 0.252630 0.390266 0.147087
H82   H     H_    0.845660 0.913863 0.722423 0.110759
H83   H     H_    0.734728 0.947365 0.701681 0.154982
H84   H     H_    0.758986 0.844476 0.785764 0.121857
H85   H     H_    0.598075 0.661543 0.335671 0.122959
H86   H     H_    0.554177 0.766875 0.291758 0.157646
H87   H     H_    0.623496 0.711363 0.168081 0.102682
H88   H     H_    0.868571 0.240885 0.322394 0.096423
N1    N     N_3   0.001260 0.500000 0.143650 -0.218364
N2    N     N_3   0.001260 0.500000 0.856350 -0.218018
N3    N     N_3   0.501260 0.000000 0.143650 -0.218201
N4    N     N_3   0.501260 0.000000 0.856350 -0.218339
O1    O     O_R   0.091250 0.408820 0.620260 -0.512112
O2    O     O_R   0.908940 0.408800 0.379740 -0.520553
O3    O     O_R   0.908940 0.591200 0.620260 -0.520020
O4    O     O_R   0.908940 0.591200 0.379740 -0.516519
O5    O     O_R   0.408940 0.908800 0.620260 -0.517418
O6    O     O_R   0.408940 0.908800 0.379740 -0.518831
O7    O     O_R   0.408940 0.091200 0.620260 -0.515324
O8    O     O_R   0.408940 0.091200 0.379740 -0.519562
O9    O     O_R   0.091250 0.408820 0.379740 -0.522343
O10   O     O_R   0.091250 0.591180 0.620260 -0.521192
O11   O     O_R   0.091250 0.591180 0.379740 -0.513542
O12   O     O_R   0.591250 0.908820 0.620260 -0.513877
O13   O     O_R   0.591250 0.908820 0.379740 -0.519559
O14   O     O_R   0.591250 0.091180 0.620260 -0.515142
O15   O     O_R   0.591250 0.091180 0.379740 -0.517272
O16   O     O_R   0.908940 0.408800 0.620260 -0.517105

loop_
_geom_bond_atom_site_label_1
_geom_bond_atom_site_label_2
_ccdc_geom_bond_type
C54   H80   S    
C53   H76   S    
C16   C51   S    
C14   C31   S    
C42   H47   S    
Cu1   N2    S    
C12   O11   A    
C44   H40   S    
C26   H25   S    
Cu3   O7    S    
C49   H62   S    
Cu4   N3    S    
C5    H88   S    
C22   H18   S    
C9    H5    S    
Cu3   N4    S    
C27   C60   S    
Cu1   O3    S    
C12   O10   A    
C51   H70   S    
C11   H7    S    
C39   H33   S    
C14   C49   S    
C16   H11   S    
C46   H41   S    
C24   C39   S    
C25   C29   S    
Cu1   O10   S    
C15   C50   S    
Cu4   O13   S    
C3    C29   S    
C8    H34   S    
C50   H66   S    
C18   C53   S    
C5    C27   S    
C20   C35   S    
C51   H71   S    
C7    H23   S    
C47   C48   S    
C11   C30   S    
C2    O3    A    
C57   H85   S    
C38   H31   S    
C52   H74   S    
C4    O8    A    
C43   N2    S    
C24   H21   S    
C34   O14   A    
C9    C29   S    
C48   H52   S    
C36   H28   S    
C54   H79   S    
C48   N4    S    
C40   H44   S    
C9    H45   S    
C56   N2    S    
C20   C55   S    
C42   H38   S    
C17   C52   S    
C17   H13   S    
C44   C46   S    
C52   H73   S    
C59   H59   S    
C49   H63   S    
C58   H58   S    
C20   H16   S    
C60   O16   A    
C14   H9    S    
C13   C30   S    
C42   N1    S    
C33   C34   S    
C45   C56   S    
Cu4   O6    S    
C19   C33   S    
C46   H50   S    
Cu3   O14   S    
C5    C18   S    
C58   C59   S    
C32   C37   S    
C25   H24   S    
C7    C28   S    
Cu3   Cu4   S    
C35   C39   S    
C9    C14   S    
C21   C57   S    
C6    C19   S    
C50   H65   S    
Cu1   O1    S    
C11   C16   S    
C55   H83   S    
C6    C27   S    
C23   O13   A    
C1    O9    A    
C18   H14   S    
C47   H42   S    
C57   H86   S    
Cu2   O9    S    
Cu2   O2    S    
C8    C21   S    
C4    O7    A    
C37   H29   S    
Cu1   O16   S    
C13   H78   S    
C15   C31   S    
C47   H51   S    
C50   H68   S    
C54   H81   S    
C10   H6    S    
C19   C54   S    
C5    H1    S    
C40   C41   S    
C3    O6    A    
C21   H17   S    
C44   H49   S    
C8    H4    S    
C23   C35   S    
C41   H46   S    
C12   C31   S    
C52   H72   S    
Cu2   O4    S    
C40   N1    S    
C26   H26   S    
C42   C43   S    
C36   H27   S    
C41   N2    S    
C45   H53   S    
Cu3   O5    S    
C49   H64   S    
Cu3   O12   S    
C10   C15   S    
C53   H75   S    
C44   N3    S    
C56   H54   S    
Cu4   O8    S    
C24   C28   S    
C60   O2    A    
C55   H82   S    
C11   H67   S    
C40   H36   S    
C59   N4    S    
C26   C37   S    
C6    H12   S    
C21   C35   S    
C13   H8    S    
C16   C32   S    
C46   N4    S    
C58   H60   S    
C33   C38   S    
Cu2   N1    S    
C13   C17   S    
C22   C27   S    
C56   H57   S    
Cu4   O15   S    
C1    O1    A    
C24   H20   S    
C59   H61   S    
C22   H19   S    
C51   H69   S    
C10   C29   S    
C45   H55   S    
C55   H84   S    
C47   N3    S    
C8    C28   S    
C57   H87   S    
C25   H22   S    
C41   H37   S    
C37   H30   S    
Cu2   O11   S    
C53   H77   S    
C1    C32   S    
Cu1   Cu2   S    
C18   C33   S    
C43   H39   S    
C10   H56   S    
C58   N3    S    
C3    O5    A    
C25   C36   S    
C7    H3    S    
C23   O12   A    
C48   H43   S    
C39   H35   S    
C6    H2    S    
C15   H10   S    
C45   N1    S    
C2    O4    A    
C7    C20   S    
C43   H48   S    
C38   H32   S    
C17   C32   S    
C31   C36   S    
C2    C28   S    
C4    C30   S    
C34   O15   A    
C19   H15   S    
C26   C30   S    
C22   C38   S    
