data_mof_unit_2788.cif
_audit_creation_date              2012-12-11T15:49:07-0500
_audit_creation_method            fapswitch 2.2
_symmetry_space_group_name_H-M    P1
_symmetry_Int_Tables_number       1
_space_group_crystal_system       triclinic
_cell_length_a                    21.613491
_cell_length_b                    7.178987
_cell_length_c                    14.873271
_cell_angle_alpha                 89.999936
_cell_angle_beta                  106.525611
_cell_angle_gamma                 90.00005
_cell_volume                      2212.45268298

loop_
_atom_site_label
_atom_site_type_symbol
_atom_type_description
_atom_site_fract_x
_atom_site_fract_y
_atom_site_fract_z
_atom_type_partial_charge
O1    O     O_R   0.335860 0.638190 0.002110 -0.540072
O2    O     O_R   0.664140 0.361810 0.997890 -0.540045
O3    O     O_R   0.164140 0.138190 0.997890 -0.540078
O4    O     O_R   0.835860 0.861810 0.002110 -0.540046
O5    O     O_R   0.217530 0.305920 0.861960 -0.538376
O6    O     O_R   0.782470 0.694080 0.138040 -0.538408
O7    O     O_R   0.282470 0.805920 0.138040 -0.538357
O8    O     O_R   0.717530 0.194080 0.861960 -0.538405
C1    C     C_R   0.206061 0.476813 0.825722 0.660147
C2    C     C_R   0.793936 0.523189 0.174281 0.660162
C3    C     C_R   0.293938 0.976813 0.174278 0.660148
C4    C     C_R   0.706068 0.023189 0.825720 0.660166
O9    O     O_R   0.338690 0.308320 0.993240 -0.544090
O10   O     O_R   0.661310 0.691680 0.006760 -0.544118
O11   O     O_R   0.161310 0.808320 0.006760 -0.544075
O12   O     O_R   0.838690 0.191680 0.993240 -0.544115
O13   O     O_R   0.286170 0.140430 0.130100 -0.532486
O14   O     O_R   0.713830 0.859570 0.869900 -0.532461
O15   O     O_R   0.213830 0.640430 0.869900 -0.532479
O16   O     O_R   0.786170 0.359570 0.130100 -0.532460
C5    C     C_R   0.364970 0.477238 0.997773 0.671722
C6    C     C_R   0.635030 0.522762 0.002227 0.671719
C7    C     C_R   0.135030 0.977237 0.002226 0.671720
C8    C     C_R   0.864970 0.022762 0.997773 0.671719
O17   O     O_3   0.232630 0.472410 0.044750 -0.371932
O18   O     O_3   0.767370 0.527590 0.955250 -0.371939
O19   O     O_3   0.267370 0.972410 0.955250 -0.371944
O20   O     O_3   0.732630 0.027590 0.044750 -0.371945
V1    V     V_3+5 0.253220 0.196620 0.991700 1.452184
V2    V     V_3+5 0.746780 0.803380 0.008300 1.452137
V3    V     V_3+5 0.246780 0.696620 0.008300 1.452246
V4    V     V_3+5 0.753220 0.303380 0.991700 1.452151
C9    C     C_R   0.030092 0.826323 0.004554 -0.125526
C10   C     C_R   0.969908 0.173677 0.995445 -0.125705
C11   C     C_R   0.469910 0.326322 0.995456 -0.125603
C12   C     C_R   0.530090 0.673678 0.004545 -0.125709
H1    H     H_    0.052068 0.689971 0.007929 0.127461
H2    H     H_    0.947932 0.310028 0.992070 0.127442
H3    H     H_    0.447936 0.189969 0.992089 0.127435
H4    H     H_    0.552064 0.810030 0.007912 0.127422
C13   C     C_R   0.965078 0.837683 0.002823 -0.111974
C14   C     C_R   0.034921 0.162316 0.997176 -0.112155
C15   C     C_R   0.534923 0.337683 0.997187 -0.111978
C16   C     C_R   0.465077 0.662317 0.002814 -0.112089
H5    H     H_    0.939279 0.709324 0.005200 0.127629
H6    H     H_    0.060721 0.290676 0.994799 0.127646
H7    H     H_    0.560724 0.209322 0.994818 0.127625
H8    H     H_    0.439276 0.790677 0.005183 0.127632
C17   C     C_R   0.933994 0.011550 0.998263 -0.049152
C18   C     C_R   0.066006 0.988450 0.001737 -0.049180
C19   C     C_R   0.566006 0.511550 0.001737 -0.049137
C20   C     C_R   0.433994 0.488450 0.998263 -0.049153
C21   C     C_R   0.679730 0.015538 0.723440 -0.106610
C22   C     C_R   0.320294 0.984511 0.276554 -0.106591
C23   C     C_R   0.820271 0.515545 0.276563 -0.106609
C24   C     C_R   0.179701 0.484515 0.723446 -0.106603
C25   C     C_R   0.690838 0.027731 0.566641 -0.146727
C26   C     C_R   0.309194 0.973099 0.433366 -0.146644
C27   C     C_R   0.809160 0.527824 0.433361 -0.146736
C28   C     C_R   0.190798 0.473218 0.566630 -0.146665
C29   C     C_R   0.719494 0.029478 0.663772 -0.030855
C30   C     C_R   0.280528 0.971180 0.336240 -0.030869
C31   C     C_R   0.780506 0.529544 0.336228 -0.030831
C32   C     C_R   0.219463 0.471161 0.663755 -0.030880
C33   C     C_R   0.612940 0.001084 0.686195 -0.184335
C34   C     C_R   0.387095 0.998638 0.313773 -0.184202
C35   C     C_R   0.887061 0.501081 0.313815 -0.184395
C36   C     C_R   0.112902 0.498699 0.686234 -0.184202
C37   C     C_R   0.582760 0.004236 0.588258 0.096513
C38   C     C_R   0.417282 0.995954 0.411715 0.096502
C39   C     C_R   0.917238 0.504366 0.411752 0.096518
C40   C     C_R   0.082713 0.496111 0.588292 0.096515
C41   C     C_R   0.623233 0.011494 0.527587 0.022397
C42   C     C_R   0.376808 0.989098 0.472399 0.022394
C43   C     C_R   0.876764 0.511603 0.472420 0.022396
C44   C     C_R   0.123186 0.489341 0.527605 0.022348
C45   C     C_R   0.513857 0.000957 0.549474 0.024962
C46   C     C_R   0.486189 0.999325 0.450495 0.024968
C47   C     C_R   0.986140 0.501205 0.450536 0.024951
C48   C     C_R   0.013807 0.499494 0.549514 0.024967
C49   C     C_R   0.528215 0.997815 0.393028 -0.153474
C50   C     C_R   0.471837 0.002782 0.606944 -0.153499
C51   C     C_R   0.971781 0.497918 0.606980 -0.153484
C52   C     C_R   0.028158 0.503282 0.393066 -0.153481
C53   C     C_R   0.595354 0.004756 0.429397 -0.013078
C54   C     C_R   0.404695 0.996050 0.570584 -0.013124
C55   C     C_R   0.904641 0.504845 0.570610 -0.013089
C56   C     C_R   0.095300 0.496521 0.429424 -0.013170
H9    H     H_    0.413729 0.011495 0.263035 0.101722
H10   H     H_    0.586301 0.987557 0.736899 0.101854
H11   H     H_    0.086270 0.511531 0.736976 0.101720
H12   H     H_    0.913707 0.487402 0.263126 0.101906
H13   H     H_    0.722253 0.043189 0.522291 0.141837
H14   H     H_    0.277774 0.958004 0.477733 0.141830
H15   H     H_    0.777742 0.543297 0.477707 0.141845
H16   H     H_    0.222213 0.458132 0.522254 0.141869
H17   H     H_    0.510319 0.986188 0.318133 0.156313
H18   H     H_    0.489747 0.014747 0.681828 0.156297
H19   H     H_    0.989678 0.486259 0.681873 0.156324
H20   H     H_    0.010243 0.515527 0.318193 0.156304
C57   C     C_2   0.634881 0.997884 0.361895 0.437028
H21   H     H_    0.683593 0.943359 0.382299 0.056295
O21   O     O_2   0.612722 0.050721 0.281017 -0.530328
C58   C     C_2   0.365180 0.003397 0.638093 0.437024
H22   H     H_    0.316489 0.058065 0.617654 0.056237
O22   O     O_2   0.387327 0.950785 0.719012 -0.530306
C59   C     C_2   0.865112 0.497879 0.638110 0.437058
H23   H     H_    0.816395 0.443401 0.617684 0.056254
O23   O     O_2   0.887273 0.550611 0.719008 -0.530334
C60   C     C_2   0.134818 0.504108 0.361926 0.437159
H24   H     H_    0.183521 0.558695 0.382417 0.056211
O24   O     O_2   0.112663 0.451801 0.280956 -0.530329
C61   C     C_2   0.209131 0.957695 0.298006 0.396819
H25   H     H_    0.186595 0.950164 0.222971 0.036430
O25   O     O_2   0.174345 0.956308 0.349921 -0.530441
C62   C     C_2   0.790881 0.043387 0.702026 0.396997
H26   H     H_    0.813412 0.050573 0.777070 0.036439
O26   O     O_2   0.825668 0.045527 0.650116 -0.530471
C63   C     C_2   0.290857 0.457506 0.701982 0.396913
H27   H     H_    0.313395 0.449998 0.777017 0.036407
O27   O     O_2   0.325639 0.455932 0.650063 -0.530421
C64   C     C_2   0.709119 0.543461 0.297970 0.396984
H28   H     H_    0.686590 0.550615 0.222925 0.036443
O28   O     O_2   0.674332 0.545636 0.349878 -0.530483

loop_
_geom_bond_atom_site_label_1
_geom_bond_atom_site_label_2
_ccdc_geom_bond_type
O17   V3    S    
C51   C55   A    
C26   C30   A    
C57   H21   S    
C38   C46   A    
O13   V1    S    
C37   C45   A    
C10   C14   A    
C40   C44   A    
O4    V2    S    
O15   V3    S    
C58   O22   D    
C53   C57   S    
C34   C38   A    
C45   C46   A    
O1    C5    A    
C32   C63   S    
O9    V1    S    
C47   C52   A    
O4    C8    A    
O19   V1    S    
O1    V3    S    
C36   H11   S    
C62   H26   S    
O2    V4    S    
C14   H6    S    
C25   C41   A    
O3    V1    S    
C38   C42   A    
C60   H24   S    
O3    C7    A    
C1    O15   A    
C2    O16   A    
C23   C31   A    
O2    C6    A    
C59   H23   S    
C24   C32   A    
C37   C41   A    
O14   V2    S    
C21   C33   A    
C44   C56   A    
C4    C21   S    
C36   C40   A    
C56   C60   S    
C16   C20   A    
O11   C7    A    
C54   C58   S    
O12   C8    A    
C25   H13   S    
C50   H18   S    
C27   H15   S    
O10   V2    S    
C48   C51   A    
C13   C17   A    
C58   H22   S    
O7    C3    A    
C34   H9    S    
O5    V1    S    
C63   O27   D    
C33   H10   S    
O7    V3    S    
C52   H20   S    
C12   H4    S    
C30   C61   S    
O18   V4    S    
C7    C18   S    
C22   C30   A    
C9    C18   A    
C50   C54   A    
C28   C44   A    
C9    H1    S    
C39   C47   A    
O8    V4    S    
C11   H3    S    
O5    C1    A    
O8    C4    A    
C29   C62   S    
O9    C5    A    
C1    C24   S    
C42   C54   A    
C25   C29   A    
C2    C23   S    
C3    C22   S    
C41   C53   A    
C12   C19   A    
C14   C18   A    
C28   H16   S    
C43   C55   A    
O6    V2    S    
C12   C16   A    
C21   C29   A    
C27   C43   A    
C31   C64   S    
C11   C15   A    
C26   C42   A    
C61   H25   S    
O16   V4    S    
C8    C17   S    
C3    O13   A    
C10   C17   A    
C10   H2    S    
C52   C56   A    
C15   H7    S    
O6    C2    A    
C23   C35   A    
C63   H27   S    
O11   V3    S    
C22   C34   A    
O12   V4    S    
C27   C31   A    
C28   C32   A    
C9    C13   A    
O10   C6    A    
O20   V2    S    
C26   H14   S    
C40   C48   A    
C24   C36   A    
C39   C43   A    
C46   C49   A    
C15   C19   A    
C59   O23   D    
C49   H17   S    
C45   C50   A    
C33   C37   A    
C35   H12   S    
C62   O26   D    
C35   C39   A    
C60   O24   D    
C47   C48   A    
C55   C59   S    
C57   O21   D    
C4    O14   A    
C11   C20   A    
C13   H5    S    
C51   H19   S    
C64   H28   S    
C64   O28   D    
C5    C20   S    
C49   C53   A    
C16   H8    S    
C6    C19   S    
C61   O25   D    
