data_mof_unit_1154.cif
_audit_creation_date              2012-12-10T20:38:21-0500
_audit_creation_method            fapswitch 2.2
_symmetry_space_group_name_H-M    P1
_symmetry_Int_Tables_number       1
_space_group_crystal_system       triclinic
_cell_length_a                    9.891394
_cell_length_b                    10.685001
_cell_length_c                    16.387373
_cell_angle_alpha                 90.336339
_cell_angle_beta                  85.144503
_cell_angle_gamma                 90.633617
_cell_volume                      1725.63200641

loop_
_atom_site_label
_atom_site_type_symbol
_atom_type_description
_atom_site_fract_x
_atom_site_fract_y
_atom_site_fract_z
_atom_type_partial_charge
C1    C     C_R   0.500398 0.740154 0.502106 0.896329
C2    C     C_R   0.356426 0.472698 0.790778 -0.222215
C3    C     C_R   0.465520 0.459715 0.121799 -0.209545
C4    C     C_R   0.461353 0.508121 0.200740 -0.026551
C5    C     C_R   0.605603 0.337505 0.238837 -0.073825
C6    C     C_R   0.611283 0.291152 0.158022 -0.013574
C7    C     C_R   0.538783 0.351584 0.100259 0.076499
C8    C     C_2   0.430603 0.298263 0.976921 -0.230257
C9    C     C_2   0.544816 0.309332 0.014847 -0.166293
C10   C     C_R   0.531563 0.448111 0.260386 -0.148484
C11   C     C_R   0.377834 0.935554 0.511931 0.105694
C12   C     C_R   0.480955 0.492343 0.653704 0.836032
C13   C     C_R   0.498900 0.871817 0.515302 -0.106492
C14   C     C_R   0.615402 0.936984 0.535706 -0.245441
C15   C     C_R   0.613761 0.066800 0.538705 -0.210734
C16   C     C_R   0.495201 0.129604 0.521969 -0.085173
C17   C     C_R   0.374281 0.062978 0.518769 0.075464
C18   C     C_3   0.266814 0.074834 0.460597 -0.519128
C19   C     C_3   0.274882 0.934009 0.449719 0.022214
C20   C     C_R   0.924113 0.585527 0.545534 0.034850
C21   C     C_R   0.933405 0.424390 0.448928 -0.185816
C22   C     C_R   0.077383 0.424805 0.447860 0.249308
C23   C     C_R   0.498794 0.260362 0.505303 0.883899
C24   C     C_R   0.066300 0.589379 0.542889 0.022595
C25   C     C_3   0.065049 0.622185 0.631996 -0.055169
C26   C     C_3   0.909203 0.606037 0.636858 0.342042
C27   C     C_R   0.519036 0.491950 0.346023 0.894727
C28   C     C_R   0.467854 0.442453 0.736469 -0.033141
C29   C     C_R   0.555797 0.347288 0.756226 -0.260718
C30   C     C_R   0.537491 0.286952 0.831787 0.236597
C31   C     C_R   0.432778 0.327534 0.889541 0.160070
C32   C     C_R   0.339726 0.416472 0.867213 -0.220387
H1    H     H_    0.635842 0.316481 0.711603 0.160034
H2    H     H_    0.709488 0.889314 0.543229 0.175528
H3    H     H_    0.707133 0.117120 0.547514 0.168970
H4    H     H_    0.169181 0.104941 0.492964 0.173139
H5    H     H_    0.301081 0.130548 0.405729 0.224508
H6    H     H_    0.179747 0.884092 0.471492 0.120024
H7    H     H_    0.883358 0.362347 0.408684 0.173858
H8    H     H_    0.118304 0.553079 0.667954 0.159703
H9    H     H_    0.643758 0.311600 0.980730 0.175442
H10   H     H_    0.257851 0.447206 0.910593 0.140053
H11   H     H_    0.412291 0.507671 0.076069 0.152062
H12   H     H_    0.283759 0.540986 0.774681 0.142847
H13   H     H_    0.333469 0.302132 0.013326 0.153785
N1    N     N_R   0.857140 0.500860 0.500530 -0.120048
N2    N     N_R   0.142780 0.500820 0.500530 -0.116404
O1    O     O_R   0.385310 0.683210 0.499990 -0.598783
O2    O     O_R   0.614650 0.683240 0.500000 -0.629405
O3    O     O_R   0.371780 0.500000 0.615800 -0.625873
O4    O     O_R   0.601120 0.500040 0.615800 -0.604036
O5    O     O_R   0.385350 0.316760 0.500000 -0.604204
O6    O     O_R   0.614690 0.316790 0.500010 -0.620075
O7    O     O_R   0.398880 0.499960 0.384200 -0.575159
O8    O     O_R   0.628220 0.500000 0.384200 -0.600497
Zn1   Zn    Zn3+2 0.346870 0.499980 0.499990 0.967106
Zn2   Zn    Zn3+2 0.653130 0.500020 0.500010 0.947913
C33   C     C_1   0.687018 0.179037 0.134905 0.160914
N3    N     N_1   0.747329 0.089595 0.116455 -0.201142
N4    N     N_2   0.326348 0.893587 0.367747 -0.269869
H14   H     H_    0.248862 0.881780 0.330093 0.248157
C34   C     C_3   0.445268 0.953313 0.325651 -0.708653
H15   H     H_    0.489867 0.889543 0.277226 0.244602
H16   H     H_    0.524769 0.974419 0.367447 0.255624
H17   H     H_    0.416621 0.040923 0.295669 0.219234
N5    N     N_2   0.152662 0.345701 0.391742 -0.267950
H18   H     H_    0.117033 0.254948 0.396226 0.199005
C35   C     C_3   0.155212 0.386429 0.307595 -0.745082
H19   H     H_    0.054779 0.369842 0.283473 0.216550
H20   H     H_    0.232893 0.332797 0.269506 0.237939
H21   H     H_    0.180399 0.487614 0.302776 0.265110
C36   C     C_1   0.382171 0.618777 0.217965 0.148308
N6    N     N_1   0.316691 0.706816 0.230199 -0.224351
N7    N     N_2   0.107022 0.751775 0.643352 -0.271406
H22   H     H_    0.095163 0.813237 0.596346 0.233300
C37   C     C_3   0.222470 0.774860 0.689818 -0.787543
H23   H     H_    0.241343 0.877234 0.694124 0.233450
H24   H     H_    0.314362 0.730575 0.659548 0.251461
H25   H     H_    0.201251 0.738454 0.752887 0.228255
N8    N     N_2   0.859158 0.493312 0.680425 -0.275471
H26   H     H_    0.892571 0.410879 0.652772 0.202411
C38   C     C_3   0.865462 0.490083 0.768425 -0.793080
H27   H     H_    0.854095 0.392033 0.790265 0.219878
H28   H     H_    0.780394 0.543460 0.799365 0.264564
H29   H     H_    0.964092 0.527149 0.786254 0.227868
N9    N     N_2   0.828544 0.717411 0.657206 -0.286604
H30   H     H_    0.732597 0.714857 0.637205 0.244910
C39   C     C_3   0.833618 0.777524 0.736443 -0.756575
H31   H     H_    0.742733 0.750991 0.777339 0.222672
H32   H     H_    0.832597 0.880523 0.728252 0.235206
H33   H     H_    0.926352 0.752943 0.766148 0.267665
C40   C     C_1   0.668234 0.264972 0.299631 0.165875
N10   N     N_1   0.718376 0.204596 0.346825 -0.222467
N11   N     N_2   0.624889 0.187207 0.849319 -0.320646
H34   H     H_    0.716569 0.187212 0.814243 0.213815
C41   C     C_3   0.560713 0.064817 0.852585 -0.771814
H35   H     H_    0.634723 0.993972 0.869362 0.240178
H36   H     H_    0.526014 0.039632 0.791768 0.233886
H37   H     H_    0.472878 0.062778 0.899492 0.257952

loop_
_geom_bond_atom_site_label_1
_geom_bond_atom_site_label_2
_ccdc_geom_bond_type
C10   C27   S    
N5    C35   S    
C6    C33   S    
C37   H25   S    
C27   O7    A    
C11   C19   S    
C34   H15   S    
N7    C37   S    
C12   C28   S    
C2    C32   A    
C28   C29   A    
C18   H5    S    
C37   H24   S    
C18   C19   S    
C3    C7    A    
C25   H8    S    
C30   C31   A    
N8    H26   S    
C27   O8    A    
C15   C16   A    
C41   H37   S    
C29   H1    S    
O2    Zn2   S    
N4    C34   S    
C25   N7    S    
C8    H13   S    
C22   N5    S    
C34   H16   S    
C35   H19   S    
C20   C24   A    
C2    H12   S    
C8    C9    D    
C41   H36   S    
O4    Zn2   S    
C22   N2    A    
C21   C22   A    
C24   N2    A    
C15   H3    S    
C23   O6    A    
O7    Zn1   S    
N7    H22   S    
C24   C25   S    
N8    C38   S    
O6    Zn2   S    
N9    H30   S    
C16   C17   A    
C25   C26   S    
O3    Zn1   S    
N4    H14   S    
C29   C30   A    
C19   H6    S    
C31   C32   A    
C21   H7    S    
C39   H33   S    
C26   N9    S    
C3    H11   S    
C41   H35   S    
C17   C18   S    
C37   H23   S    
N11   C41   S    
C39   H32   S    
C16   C23   S    
C38   H28   S    
O8    Zn2   S    
N1    Zn2   S    
C1    C13   S    
C4    C10   A    
C3    C4    A    
C4    C36   S    
C12   O4    A    
C21   N1    A    
O1    Zn1   S    
C11   C17   A    
C34   H17   S    
C8    C31   S    
C36   N6    T    
C14   H2    S    
C12   O3    A    
C1    O1    A    
C6    C7    A    
C19   N4    S    
C38   H29   S    
C9    H9    S    
C33   N3    T    
C5    C10   A    
C30   N11   S    
C11   C13   A    
C18   H4    S    
C23   O5    A    
C5    C6    A    
C20   C26   S    
C35   H21   S    
C40   N10   T    
N5    H18   S    
N9    C39   S    
N11   H34   S    
C26   N8    S    
C5    C40   S    
C7    C9    S    
C39   H31   S    
C35   H20   S    
C38   H27   S    
C32   H10   S    
C14   C15   A    
C2    C28   A    
C13   C14   A    
C1    O2    A    
C20   N1    A    
O5    Zn1   S    
N2    Zn1   S    
