data_mof_unit_938.cif
_audit_creation_date              2013-03-05T15:50:59-0500
_audit_creation_method            fapswitch 2.2
_symmetry_space_group_name_H-M    P1
_symmetry_Int_Tables_number       1
_space_group_crystal_system       triclinic
_cell_length_a                    6.939936
_cell_length_b                    17.453565
_cell_length_c                    19.357087
_cell_angle_alpha                 109.494923
_cell_angle_beta                  90.233922
_cell_angle_gamma                 90.655385
_cell_volume                      2210.01960741

loop_
_atom_site_label
_atom_site_type_symbol
_atom_site_description
_atom_site_fract_x
_atom_site_fract_y
_atom_site_fract_z
_atom_type_partial_charge
O1    O     O_R   0.505810 0.439670 0.562310 -0.599989
O2    O     O_R   0.169070 0.404920 0.411210 -0.597555
O3    O     O_R   0.005550 0.560330 0.437690 -0.591226
C1    C     C_R   0.338237 0.381366 0.382987 0.898872
O4    O     O_R   0.175650 0.430000 0.560110 -0.605665
O5    O     O_R   0.012170 0.585580 0.587650 -0.593458
C2    C     C_R   0.344457 0.415408 0.582255 0.936699
O6    O     O_R   0.499180 0.414420 0.412350 -0.594218
O7    O     O_3   0.341430 0.551020 0.508860 -0.259571
V1    V     V_3+5 0.063930 0.490540 0.498360 1.162949
O8    O     O_R   0.682850 0.595080 0.588790 -0.598740
C3    C     C_R   0.853051 0.618118 0.616545 1.039365
O9    O     O_R   0.676280 0.570000 0.439890 -0.599229
C4    C     C_R   0.845323 0.585388 0.418602 1.003021
V2    V     V_3+5 0.564760 0.509460 0.501640 1.164675
O10   O     O_3   0.837130 0.448980 0.491140 -0.286534
C5    C     C_R   0.060218 0.866495 0.179514 -0.213443
C6    C     C_R   0.910964 0.862571 0.129028 -0.319120
C7    C     C_R   0.748589 0.811324 0.126316 0.293399
C8    C     C_R   0.736292 0.766073 0.174731 -0.013210
C9    C     C_R   0.888440 0.770665 0.224761 -0.005008
C10   C     C_R   0.051114 0.820591 0.226726 0.136601
C11   C     C_R   0.574199 0.716575 0.174638 -0.125140
C12   C     C_R   0.563009 0.672676 0.223049 -0.246492
C13   C     C_R   0.713423 0.676747 0.272595 0.164965
C14   C     C_R   0.877667 0.725403 0.273239 0.062269
C15   C     C_R   0.031105 0.728843 0.322349 0.119160
C16   C     C_R   0.192310 0.778545 0.323547 -0.194008
C17   C     C_R   0.201707 0.824348 0.276479 -0.190700
C18   C     C_R   0.702399 0.632695 0.321286 -0.268552
C19   C     C_R   0.855949 0.634633 0.369439 -0.152141
C20   C     C_R   0.020478 0.682585 0.369377 -0.188293
H1    H     H_    0.182391 0.906890 0.183189 0.175217
H2    H     H_    0.453635 0.712077 0.137786 0.184779
H3    H     H_    0.435819 0.635616 0.221838 0.141206
H4    H     H_    0.575828 0.595401 0.320573 0.134500
H5    H     H_    0.139139 0.684731 0.406622 0.165782
H6    H     H_    0.311401 0.781988 0.360896 0.152423
H7    H     H_    0.327833 0.862276 0.278588 0.141557
C21   C     C_3   0.780525 0.811627 0.745842 0.120256
C22   C     C_3   0.948146 0.774104 0.694974 0.384433
C23   C     C_3   0.869007 0.688378 0.686247 -0.352520
C24   C     C_3   0.697556 0.726180 0.737657 -0.263242
C25   C     C_3   0.824872 0.726955 0.803826 0.212478
C26   C     C_3   0.992904 0.689712 0.753130 0.175439
C27   C     C_3   0.075224 0.775269 0.761311 -0.303169
C28   C     C_3   0.903519 0.812743 0.812716 -0.291623
H8    H     H_    0.544049 0.706848 0.728236 0.149738
H9    H     H_    0.228709 0.794826 0.770346 0.155576
C29   C     C_3   0.482674 0.236283 0.304541 -0.121781
C30   C     C_3   0.322439 0.180337 0.257213 -0.126636
H10   H     H_    0.271324 0.122317 0.263058 0.103315
H11   H     H_    0.562041 0.224883 0.349992 0.107092
C31   C     C_3   0.414899 0.189301 0.187871 -0.093299
C32   C     C_3   0.574914 0.244508 0.234460 -0.098562
C33   C     C_3   0.448659 0.319752 0.242714 -0.131567
C34   C     C_3   0.288423 0.263805 0.195385 -0.126129
C35   C     C_3   0.196183 0.255580 0.265467 -0.100107
C36   C     C_3   0.356197 0.310789 0.312056 -0.089210
H12   H     H_    0.730359 0.239766 0.220953 0.103875
H13   H     H_    0.499781 0.377768 0.236864 0.100501
H14   H     H_    0.209057 0.275203 0.149933 0.105223
H15   H     H_    0.040738 0.260319 0.278972 0.104697
C37   C     C_R   0.251390 0.128668 0.823991 -0.224910
C38   C     C_R   0.416329 0.133908 0.868170 -0.144757
C39   C     C_R   0.569351 0.186112 0.864518 -0.255404
C40   C     C_R   0.557102 0.233474 0.818423 0.152857
C41   C     C_R   0.391645 0.227319 0.774075 0.028223
C42   C     C_R   0.238772 0.174391 0.776655 0.136294
C43   C     C_R   0.707048 0.287197 0.816038 -0.208243
C44   C     C_R   0.694580 0.333562 0.769497 -0.215680
C45   C     C_R   0.531847 0.327109 0.724461 0.150400
C46   C     C_R   0.379010 0.274162 0.727048 0.030910
C47   C     C_R   0.213649 0.267900 0.682629 0.146672
C48   C     C_R   0.063460 0.214367 0.685165 -0.204117
C49   C     C_R   0.075809 0.168107 0.731776 -0.185435
C50   C     C_R   0.519477 0.372578 0.676885 -0.250568
C51   C     C_R   0.354925 0.366923 0.632404 -0.141969
C52   C     C_R   0.201756 0.314900 0.636245 -0.253711
H16   H     H_    0.133244 0.088195 0.825789 0.147377
H17   H     H_    0.696741 0.190866 0.898378 0.139420
H18   H     H_    0.834781 0.293032 0.849891 0.141427
H19   H     H_    0.813070 0.374110 0.768374 0.143223
H20   H     H_    0.637535 0.413086 0.675064 0.138183
H21   H     H_    0.074523 0.309958 0.602265 0.140929
H22   H     H_    0.935697 0.208550 0.651330 0.145714
H23   H     H_    0.957161 0.127672 0.732990 0.153787
O11   O     O_R   0.271890 0.085690 0.087580 -0.595965
O12   O     O_R   0.595690 0.070020 0.939870 -0.606677
O13   O     O_R   0.758900 0.914390 0.912370 -0.602829
C53   C     C_R   0.426908 0.084919 0.917910 0.931814
O14   O     O_R   0.602020 0.095100 0.088770 -0.599120
O15   O     O_R   0.765280 0.939660 0.062330 -0.562775
C54   C     C_R   0.432848 0.118706 0.116958 0.907638
O16   O     O_R   0.265520 0.060430 0.937620 -0.603658
O17   O     O_3   0.429560 0.949050 0.991100 -0.220640
V3    V     V_3+5 0.707160 0.009450 0.001650 1.183583
O18   O     O_R   0.094540 0.929890 0.060190 -0.559571
C55   C     C_R   0.924734 0.913525 0.080792 0.983129
O19   O     O_R   0.088200 0.904800 0.911290 -0.592199
C56   C     C_R   0.918230 0.882105 0.883224 0.968109
V4    V     V_3+5 0.206300 0.990390 0.998440 1.207035
O20   O     O_3   0.934030 0.050940 0.008900 -0.293336
N1    N     N_2   0.666454 0.879346 0.742577 -0.116722
H24   H     H_    0.584151 0.904087 0.788689 0.172936
C57   C     C_3   0.556204 0.864466 0.675743 -0.748980
H25   H     H_    0.480335 0.920775 0.677595 0.258438
H26   H     H_    0.447548 0.815365 0.669634 0.243840
H27   H     H_    0.652164 0.847069 0.627442 0.269784
N2    N     N_2   0.757144 0.701566 0.863505 -0.086089
H28   H     H_    0.838336 0.724524 0.910782 0.187754
C58   C     C_3   0.710512 0.615910 0.844445 -0.847236
H29   H     H_    0.619388 0.606275 0.887855 0.280036
H30   H     H_    0.843407 0.579989 0.840063 0.247902
H31   H     H_    0.630668 0.593257 0.791488 0.232683
N3    N     N_2   0.107966 0.622389 0.756608 -0.120582
H32   H     H_    0.186090 0.595903 0.709706 0.175406
C59   C     C_3   0.224217 0.638840 0.822206 -0.893265
H33   H     H_    0.290398 0.581500 0.822804 0.249848
H34   H     H_    0.135677 0.662660 0.872104 0.265101
H35   H     H_    0.339222 0.684053 0.823643 0.267757
N4    N     N_R   0.598246 0.803640 0.073459 0.226659
O21   O     O_R   0.583819 0.737723 0.016829 -0.439804
O22   O     O_R   0.454362 0.853278 0.090039 -0.405567
N5    N     N_R   0.015043 0.802617 0.636422 0.223664
O23   O     O_R   0.072255 0.877691 0.651679 -0.416679
O24   O     O_R   0.015607 0.753998 0.568850 -0.441976

loop_
_geom_bond_atom_site_label_1
_geom_bond_atom_site_label_2
_geom_bond_distance
_ccdc_geom_bond_type
C21   C28   1.542200 S    
C9    C14   1.415727 A    
C7    N4    1.431764 S    
C28   C56   1.493983 S    
C10   C17   1.404320 A    
O17   V4    1.703059 S    
C46   C47   1.412282 A    
C31   C32   1.536971 S    
C7    C8    1.415088 A    
C4    C19   1.481522 S    
C1    O6    1.290204 A    
N1    C57   1.445560 S    
C34   H14   1.110136 S    
C50   C51   1.409930 A    
C33   C34   1.548928 S    
C27   H9    1.109962 S    
C14   C15   1.411872 A    
C29   C36   1.543864 S    
C16   C17   1.399589 A    
O5    C3    1.289250 A    
C18   C19   1.405540 A    
C57   H25   1.110345 S    
V2    O10   2.152704 S    
C13   C18   1.402951 A    
N3    H32   1.030314 S    
C42   C49   1.404043 A    
C6    C7    1.420466 A    
C22   C23   1.542935 S    
C59   H33   1.109455 S    
N1    H24   1.030529 S    
C3    C23   1.492576 S    
N2    C58   1.447651 S    
N2    H28   1.030249 S    
O8    V2    2.007175 S    
C21   C24   1.550042 S    
C41   C42   1.410754 A    
C22   C27   1.549202 S    
C43   C44   1.400536 A    
O1    V2    1.994396 S    
O12   C53   1.302701 A    
C24   H8    1.109572 S    
O15   C55   1.295171 A    
O13   V3    1.993304 S    
C25   C28   1.542077 S    
C32   H12   1.108537 S    
C39   C40   1.407125 A    
C57   H27   1.109088 S    
C9    C10   1.410769 A    
C37   H16   1.084375 S    
C5    H1    1.083227 S    
C58   H30   1.108718 S    
C58   H29   1.109284 S    
O14   V3    1.990833 S    
C5    C6    1.406436 A    
C44   H19   1.083804 S    
O11   C54   1.290188 A    
C12   H3    1.083857 S    
C47   C48   1.403756 A    
C40   C41   1.412288 A    
C29   H11   1.110136 S    
C22   N5    1.457122 S    
C12   C13   1.399695 A    
O4    C2    1.302559 A    
C51   C52   1.408385 A    
C50   H20   1.084424 S    
C41   C46   1.415098 A    
O18   V4    1.994137 S    
C30   H10   1.110256 S    
O12   V3    2.000284 S    
C59   H35   1.109623 S    
O2    C1    1.308487 A    
C48   C49   1.400170 A    
O13   C56   1.290597 A    
C45   C50   1.405002 A    
C21   N1    1.448639 S    
C48   H22   1.083634 S    
C19   C20   1.408205 A    
C8    C11   1.410140 A    
C16   H6    1.083680 S    
C11   C12   1.396316 A    
C11   H2    1.082278 S    
O17   V3    2.161290 S    
C17   H7    1.083730 S    
C32   C33   1.550932 S    
O14   C54   1.308475 A    
C29   C30   1.548907 S    
C30   C35   1.550914 S    
C20   H5    1.084326 S    
C49   H23   1.083757 S    
V3    O20   1.710936 S    
O3    C4    1.296104 A    
C2    C51   1.487545 S    
C21   C22   1.532339 S    
C38   C39   1.408697 A    
O6    V2    2.002191 S    
C47   C52   1.406577 A    
O9    V2    1.994004 S    
C24   C25   1.549297 S    
N5    O23   1.300245 A    
C35   C36   1.536989 S    
C23   C24   1.559101 S    
N4    O22   1.299045 A    
O2    V1    1.990935 S    
O15   V3    1.997098 S    
C52   H21   1.084154 S    
C25   C26   1.531774 S    
O19   V4    2.006961 S    
O7    V1    2.161369 S    
C35   H15   1.108537 S    
C38   C53   1.487879 S    
C27   C28   1.559159 S    
C15   C20   1.405589 A    
O1    C2    1.297723 A    
C29   C32   1.551017 S    
C45   C46   1.410833 A    
O5    V1    1.993255 S    
O11   V4    2.002954 S    
O8    C3    1.298187 A    
O16   V4    2.000587 S    
C37   C42   1.404671 A    
C5    C10   1.403253 A    
C33   C36   1.543629 S    
C18   H4    1.084561 S    
C40   C43   1.403990 A    
C37   C38   1.409743 A    
C30   C31   1.543620 S    
C13   C14   1.411116 A    
C44   C45   1.404146 A    
O3    V1    1.997319 S    
V1    O10   1.711001 S    
C39   H17   1.084134 S    
C26   N3    1.447986 S    
C34   C35   1.551031 S    
C57   H26   1.110806 S    
C1    C36   1.514646 S    
O19   C56   1.297657 A    
N3    C59   1.445222 S    
O7    V2    1.705198 S    
V4    O20   2.152716 S    
C43   H18   1.083616 S    
C59   H34   1.107251 S    
C31   C54   1.514577 S    
C53   O16   1.297726 A    
C26   C27   1.550248 S    
O4    V1    2.000128 S    
C8    C9    1.413191 A    
O18   C55   1.304419 A    
C6    C55   1.491609 S    
C15   C16   1.403150 A    
N5    O24   1.300107 A    
C33   H13   1.110251 S    
N4    O21   1.300002 A    
O9    C4    1.299545 A    
C23   C26   1.544782 S    
C58   H31   1.110861 S    
C31   C34   1.543844 S    
C25   N2    1.446784 S    
