data_mof_unit_1600.cif
_audit_creation_date              2012-12-11T14:58:35-0500
_audit_creation_method            fapswitch 2.2
_symmetry_space_group_name_H-M    P1
_symmetry_Int_Tables_number       1
_space_group_crystal_system       triclinic
_cell_length_a                    10.940998
_cell_length_b                    10.946466
_cell_length_c                    18.776832
_cell_angle_alpha                 90.644982
_cell_angle_beta                  90.496304
_cell_angle_gamma                 59.666721
_cell_volume                      1940.82060755

loop_
_atom_site_label
_atom_site_type_symbol
_atom_type_description
_atom_site_fract_x
_atom_site_fract_y
_atom_site_fract_z
_atom_type_partial_charge
C1    C     C_R   0.359576 0.772168 0.397562 0.537308
C2    C     C_R   0.254692 0.450733 0.196565 -0.154487
C3    C     C_R   0.261840 0.465051 0.270031 -0.028195
C4    C     C_R   0.414871 0.377647 0.382456 0.546795
C5    C     C_R   0.880170 0.780322 0.372968 -0.076840
C6    C     C_R   0.941723 0.638451 0.391796 -0.134807
C7    C     C_R   0.062842 0.535502 0.356833 -0.057351
C8    C     C_R   0.129500 0.574457 0.305619 0.039464
C9    C     C_R   0.389279 0.368362 0.306338 -0.006001
C10   C     C_R   0.956730 0.295438 0.308086 -0.161221
C11   C     C_R   0.985825 0.287665 0.235903 -0.126821
C12   C     C_R   0.618921 0.125575 0.160459 0.064819
C13   C     C_R   0.875476 0.332960 0.185973 0.039735
C14   C     C_R   0.735365 0.393428 0.207491 -0.149047
C15   C     C_R   0.706031 0.405666 0.279645 -0.118406
C16   C     C_R   0.778621 0.377701 0.403359 0.527614
C17   C     C_R   0.816766 0.354174 0.329579 0.039482
C18   C     C_R   0.473429 0.783439 0.286599 -0.139665
C19   C     C_R   0.461610 0.809812 0.213742 -0.156182
C20   C     C_R   0.326941 0.885268 0.183652 0.035521
C21   C     C_R   0.206174 0.945599 0.227334 -0.143351
C22   C     C_R   0.217932 0.921079 0.299394 -0.152766
C23   C     C_R   0.365555 0.338225 0.159392 -0.003822
C24   C     C_R   0.350292 0.833132 0.328470 0.032347
C25   C     C_R   0.390508 0.196926 0.693305 -0.135600
C26   C     C_R   0.381414 0.184521 0.765501 -0.121730
C27   C     C_R   0.297153 0.304833 0.807818 0.037030
C28   C     C_R   0.344131 0.769604 0.604664 0.547540
C29   C     C_R   0.212267 0.436366 0.776183 -0.137616
C30   C     C_R   0.223159 0.449415 0.703332 -0.128509
C31   C     C_R   0.318373 0.330433 0.662618 0.028718
C32   C     C_R   0.743716 0.475339 0.732155 -0.121777
C33   C     C_R   0.753733 0.462375 0.805107 -0.129608
C34   C     C_R   0.504393 0.265159 0.267621 -0.160326
C35   C     C_R   0.813950 0.328497 0.835830 0.029716
C36   C     C_R   0.847409 0.209554 0.792855 -0.128515
C37   C     C_R   0.831743 0.223761 0.719041 -0.133248
C38   C     C_R   0.785532 0.356212 0.688313 0.035657
C39   C     C_R   0.201800 0.829808 0.713442 -0.136400
C40   C     C_R   0.367901 0.350216 0.594990 0.554612
C41   C     C_R   0.194985 0.838604 0.786723 -0.139722
C42   C     C_R   0.303520 0.841012 0.825410 0.036431
C43   C     C_R   0.421472 0.829420 0.790007 -0.144487
C44   C     C_R   0.427737 0.821751 0.716504 -0.147410
C45   C     C_R   0.495187 0.247877 0.194981 -0.028709
C46   C     C_R   0.319523 0.818718 0.677905 0.036744
C47   C     C_R   0.911371 0.316246 0.111940 0.531526
C48   C     C_R   0.330355 0.295967 0.091472 0.539776
C49   C     C_R   0.302814 0.908211 0.107792 0.545776
C50   C     C_R   0.878688 0.310438 0.905868 0.543066
C51   C     C_R   0.292130 0.283990 0.883421 0.550238
C52   C     C_R   0.757522 0.380009 0.612272 0.549176
C53   C     C_R   0.276517 0.892551 0.898160 0.548312
C54   C     C_R   0.844026 0.891349 0.092180 -0.119684
C55   C     C_R   0.798010 0.028117 0.067909 -0.088989
C56   C     C_R   0.064675 0.717306 0.285381 -0.071359
C57   C     C_R   0.686695 0.145180 0.102183 -0.060911
C58   C     C_R   0.940175 0.820806 0.319380 0.117246
C59   C     C_R   0.664901 0.987413 0.184005 -0.050731
C60   C     C_R   0.777330 0.870974 0.150123 -0.108205
Cr1   Cr    Cr6+3 0.601770 0.606860 0.505860 0.992050
Cr2   Cr    Cr6+3 0.291380 0.601660 0.495070 1.014658
Cr3   Cr    Cr6+3 0.606880 0.291510 0.499120 1.008106
Cr4   Cr    Cr6+3 0.062440 0.063090 0.008210 0.982989
Cr5   Cr    Cr6+3 0.062880 0.375170 0.998920 1.007394
Cr6   Cr    Cr6+3 0.374700 0.061720 0.992470 1.019098
H1    H     H_    0.603519 0.195614 0.294475 0.168803
H2    H     H_    0.555560 0.765609 0.180891 0.117591
H3    H     H_    0.101067 0.008449 0.205112 0.144201
H4    H     H_    0.812544 0.764983 0.168757 0.119163
H5    H     H_    0.123620 0.963222 0.331687 0.126359
H6    H     H_    0.462255 0.103801 0.662557 0.125118
H7    H     H_    0.443330 0.080237 0.788312 0.135870
H8    H     H_    0.143014 0.528912 0.807882 0.118433
H9    H     H_    0.165545 0.553898 0.680152 0.131498
H10   H     H_    0.703211 0.579622 0.710131 0.132710
H11   H     H_    0.725645 0.555884 0.837116 0.124238
H12   H     H_    0.785357 0.859078 0.399999 0.122740
H13   H     H_    0.894437 0.104885 0.815616 0.126889
H14   H     H_    0.859634 0.131513 0.686100 0.118242
H15   H     H_    0.116890 0.826635 0.684972 0.124056
H16   H     H_    0.101933 0.849398 0.812654 0.120557
H17   H     H_    0.506100 0.832382 0.818883 0.115518
H18   H     H_    0.519075 0.813875 0.690107 0.113849
H19   H     H_    0.930730 0.801130 0.065788 0.107211
H20   H     H_    0.848109 0.043225 0.022167 0.143747
H21   H     H_    0.651451 0.250499 0.082510 0.094079
H22   H     H_    0.111517 0.747510 0.243621 0.112906
H23   H     H_    0.896612 0.608659 0.434365 0.142720
H24   H     H_    0.613318 0.970017 0.228493 0.125952
H25   H     H_    0.155499 0.519911 0.169577 0.135873
H26   H     H_    0.881903 0.023365 0.342921 0.233782
H27   H     H_    0.922927 0.980441 0.256409 0.231290
H28   H     H_    0.109031 0.425934 0.372132 0.118955
H29   H     H_    0.041918 0.257152 0.346731 0.099565
H30   H     H_    0.094408 0.244527 0.218701 0.124031
H31   H     H_    0.649822 0.432150 0.168968 0.101311
H32   H     H_    0.596816 0.457501 0.296876 0.108150
H33   H     H_    0.577803 0.716002 0.309012 0.145831
N1    N     N_3   0.872393 0.967060 0.299998 -0.653290
O1    O     O_R   0.748800 0.497470 0.428000 -0.532395
O2    O     O_R   0.417600 0.174890 0.067840 -0.505484
O3    O     O_R   0.375320 0.946260 0.070860 -0.496713
O4    O     O_R   0.476420 0.724060 0.429470 -0.511469
O5    O     O_R   0.160600 0.919630 0.926660 -0.530447
O6    O     O_R   0.933060 0.190520 0.936020 -0.520305
O7    O     O_R   0.908880 0.403460 0.925020 -0.519854
O8    O     O_R   0.179600 0.361450 0.918490 -0.501723
O9    O     O_R   0.391510 0.170860 0.907530 -0.530566
O10   O     O_R   0.351130 0.942530 0.922260 -0.509136
O11   O     O_3   0.166667 0.166667 0.999870 -0.244237
O12   O     O_R   0.300070 0.471040 0.567100 -0.504921
O13   O     O_R   0.264580 0.744340 0.416750 -0.515289
O14   O     O_R   0.309380 0.472470 0.418200 -0.497277
O15   O     O_R   0.501710 0.260430 0.414300 -0.519868
O16   O     O_R   0.728090 0.305600 0.428960 -0.517754
O17   O     O_R   0.738760 0.495930 0.588610 -0.529031
O18   O     O_R   0.467110 0.722640 0.578360 -0.506946
O19   O     O_R   0.254530 0.742800 0.577360 -0.527835
O20   O     O_R   0.491670 0.258900 0.574910 -0.516460
O21   O     O_R   0.718780 0.304180 0.577850 -0.499675
O22   O     O_3   0.500010 0.500010 0.500020 -0.259858
O23   O     O_R   0.186690 0.923650 0.086970 -0.530579
O24   O     O_R   0.957250 0.194250 0.084630 -0.518204
O25   O     O_R   0.934970 0.407490 0.085330 -0.518632
O26   O     O_R   0.203780 0.365190 0.067090 -0.509726

loop_
_geom_bond_atom_site_label_1
_geom_bond_atom_site_label_2
_ccdc_geom_bond_type
C11   H30   S    
C25   C31   A    
C23   C45   A    
C27   C29   A    
C43   H17   S    
C41   C42   A    
Cr6   O2    S    
C4    O15   A    
C19   C20   A    
C8    C56   A    
Cr4   O5    S    
C39   C41   A    
C54   C60   A    
C28   C46   S    
C26   C27   A    
C29   C30   A    
C5    C58   A    
C18   C24   A    
C4    O14   A    
C36   C37   A    
C37   C38   A    
Cr2   O14   S    
C42   C53   S    
C30   C31   A    
C56   H22   S    
C38   C52   S    
C10   C17   A    
C49   O23   A    
C26   H7    S    
C31   C40   S    
C18   C19   A    
Cr5   O11   S    
Cr3   O20   S    
C12   C59   A    
C53   O10   A    
C35   C36   A    
C27   C51   S    
C16   C17   S    
C32   C38   A    
Cr6   O11   S    
Cr5   O8    S    
Cr3   O15   S    
C52   O17   A    
C59   C60   A    
C51   O9    A    
C13   C14   A    
C1    O13   A    
C16   O16   A    
Cr3   O21   S    
C44   C46   A    
C47   O25   A    
C37   H14   S    
Cr1   O17   S    
C7    C8    A    
Cr1   O4    S    
C58   N1    S    
C39   H15   S    
Cr2   O13   S    
C40   O12   A    
C3    C8    S    
C13   C47   S    
C51   O8    A    
Cr4   O11   S    
C29   H8    S    
C25   C26   A    
Cr4   O24   S    
C36   H13   S    
C57   H21   S    
C21   H3    S    
Cr1   O22   S    
C59   H24   S    
Cr5   O25   S    
Cr1   O1    S    
C43   C44   A    
C49   O3    A    
C20   C49   S    
C3    C9    A    
C52   O21   A    
H27   N1    S    
C60   H4    S    
C48   O2    A    
C35   C50   S    
C19   H2    S    
C25   H6    S    
Cr6   O10   S    
C1    O4    A    
Cr2   O19   S    
C34   C45   A    
C39   C46   A    
Cr3   O16   S    
C40   O20   A    
C55   C57   A    
C50   O7    A    
C22   C24   A    
C42   C43   A    
C12   C57   A    
C15   H32   S    
Cr4   O23   S    
C22   H5    S    
Cr2   O22   S    
Cr3   O22   S    
H26   N1    S    
C14   H31   S    
C15   C17   A    
C7    H28   S    
C54   C55   A    
C23   C48   S    
Cr1   O18   S    
Cr6   O3    S    
C12   C45   S    
C44   H18   S    
C28   O19   A    
C34   H1    S    
C32   H10   S    
C54   H19   S    
Cr4   O6    S    
C6    C7    A    
C6    H23   S    
Cr5   O26   S    
C55   H20   S    
C2    C3    A    
C4    C9    S    
C28   O18   A    
C32   C33   A    
C30   H9    S    
C11   C13   A    
C33   H11   S    
C47   O24   A    
C5    C6    A    
C10   H29   S    
C41   H16   S    
C33   C35   A    
C56   C58   A    
C9    C34   A    
Cr6   O9    S    
C2    H25   S    
C10   C11   A    
C48   O26   A    
C53   O5    A    
C16   O1    A    
Cr2   O12   S    
C20   C21   A    
C1    C24   S    
C18   H33   S    
C2    C23   A    
C50   O6    A    
C14   C15   A    
C5    H12   S    
C21   C22   A    
Cr5   O7    S    
