data_mof_unit_2326.cif
_audit_creation_date              2012-12-10T17:17:52-0500
_audit_creation_method            fapswitch 2.2
_symmetry_space_group_name_H-M    P1
_symmetry_Int_Tables_number       1
_space_group_crystal_system       triclinic
_cell_length_a                    14.950007
_cell_length_b                    15.679903
_cell_length_c                    9.574212
_cell_angle_alpha                 89.739381
_cell_angle_beta                  90.961333
_cell_angle_gamma                 90.255
_cell_volume                      2243.97505694

loop_
_atom_site_label
_atom_site_type_symbol
_atom_type_description
_atom_site_fract_x
_atom_site_fract_y
_atom_site_fract_z
_atom_type_partial_charge
C1    C     C_R   0.382114 0.880528 0.499651 0.792297
C2    C     C_R   0.386860 0.123510 0.499651 0.800973
C3    C     C_R   0.886543 0.376706 0.500081 0.821558
C4    C     C_R   0.886507 0.623286 0.499754 0.821637
C5    C     C_R   0.278198 0.216122 0.378653 -0.165545
C6    C     C_R   0.230179 0.828765 0.460786 -0.193166
C7    C     C_R   0.777120 0.715182 0.378977 -0.141485
C8    C     C_R   0.777510 0.285255 0.378715 -0.151915
C9    C     C_R   0.708781 0.774093 0.381493 -0.180175
C10   C     C_R   0.708498 0.226710 0.380857 -0.183271
C11   C     C_R   0.209846 0.275005 0.381558 -0.190491
C12   C     C_R   0.165945 0.764917 0.462025 -0.171668
C13   C     C_R   0.681613 0.808955 0.508334 -0.099280
C14   C     C_R   0.680071 0.192313 0.507838 -0.107872
C15   C     C_R   0.182992 0.310007 0.508528 -0.103435
C16   C     C_R   0.189508 0.681895 0.500111 -0.066232
C17   C     C_R   0.664905 0.000550 0.148068 -0.169893
C18   C     C_R   0.164878 0.501968 0.148239 -0.142834
C19   C     C_R   0.745225 0.000748 0.077445 -0.186322
C20   C     C_R   0.245176 0.504146 0.077594 -0.190268
C21   C     C_R   0.744986 0.000543 0.933585 -0.175952
C22   C     C_R   0.244864 0.504820 0.933709 -0.177219
C23   C     C_R   0.664416 0.000176 0.859519 -0.174306
C24   C     C_R   0.164240 0.502768 0.859864 -0.148595
C25   C     C_R   0.580920 0.000064 0.927086 0.185025
C26   C     C_R   0.080849 0.501353 0.927269 0.198166
C27   C     C_R   0.580993 0.000161 0.076805 0.216984
C28   C     C_R   0.080957 0.501148 0.076922 0.227567
C29   C     C_R   0.423005 0.000384 0.071952 -0.013252
C30   C     C_R   0.922990 0.498891 0.071944 0.023917
C31   C     C_R   0.615374 0.122236 0.501732 0.782921
C32   C     C_R   0.616238 0.878414 0.502060 0.764809
C33   C     C_R   0.119419 0.618012 0.500257 0.760594
C34   C     C_R   0.116537 0.378596 0.502145 0.761772
C35   C     C_R   0.423046 0.000437 0.923890 -0.026595
C36   C     C_R   0.923028 0.498822 0.923868 -0.005595
C37   C     C_R   0.366858 0.237913 0.744387 -0.183970
C38   C     C_R   0.433979 0.706069 0.571229 -0.213527
C39   C     C_R   0.863280 0.735714 0.746727 -0.189495
C40   C     C_R   0.860815 0.264464 0.748236 -0.185830
C41   C     C_R   0.337809 0.263729 0.874922 0.292042
C42   C     C_R   0.458335 0.621994 0.601504 0.324543
C43   C     C_R   0.832734 0.760363 0.877044 0.295211
C44   C     C_R   0.829009 0.239910 0.878328 0.285523
C45   C     C_R   0.744993 0.787554 0.890007 -0.167772
C46   C     C_R   0.740532 0.213754 0.890343 -0.154596
C47   C     C_R   0.250418 0.291595 0.889411 -0.170709
C48   C     C_R   0.394266 0.557233 0.596084 -0.158703
C49   C     C_R   0.691343 0.799036 0.770881 -0.177967
C50   C     C_R   0.687356 0.202995 0.770494 -0.196648
C51   C     C_R   0.195539 0.302323 0.771397 -0.217820
C52   C     C_R   0.305542 0.576192 0.561872 -0.267790
C53   C     C_R   0.724952 0.783242 0.635641 0.123226
C54   C     C_R   0.722357 0.218307 0.635648 0.090377
C55   C     C_R   0.227556 0.285260 0.635549 0.086586
C56   C     C_R   0.279146 0.660988 0.533747 0.101496
C57   C     C_R   0.308411 0.240042 0.626384 0.046282
C58   C     C_R   0.344472 0.726608 0.535878 0.052405
C59   C     C_R   0.805966 0.738283 0.627391 0.055744
C60   C     C_R   0.804178 0.262374 0.628139 0.049001
C61   C     C_R   0.326853 0.196806 0.500557 -0.101172
C62   C     C_R   0.318538 0.810565 0.499190 -0.076120
C63   C     C_R   0.825584 0.695894 0.501104 -0.096314
C64   C     C_R   0.825239 0.304330 0.501537 -0.103429
Cu1   Cu    Cu3+1 0.499990 1.000000 0.640660 0.926901
Cu2   Cu    Cu3+1 0.999990 0.500000 0.640660 0.942814
Cu3   Cu    Cu3+1 0.500010 0.000000 0.359340 0.957164
Cu4   Cu    Cu3+1 0.000010 0.500000 0.359340 0.976361
H1    H     H_    0.292332 0.185126 0.280636 0.193750
H2    H     H_    0.210701 0.893047 0.431777 0.143331
H3    H     H_    0.791599 0.684353 0.280985 0.192976
H4    H     H_    0.793062 0.315945 0.280482 0.198118
H5    H     H_    0.807704 0.000669 0.878599 0.175568
H6    H     H_    0.307547 0.505512 0.878637 0.176003
H7    H     H_    0.671811 0.000009 0.749560 0.211471
H8    H     H_    0.171152 0.500653 0.750275 0.202044
H9    H     H_    0.359999 0.000852 0.866791 0.146028
H10   H     H_    0.859982 0.497864 0.866768 0.158732
H11   H     H_    0.435414 0.217022 0.736505 0.175941
H12   H     H_    0.485556 0.754530 0.574422 0.147090
H13   H     H_    0.932146 0.715594 0.740148 0.183966
H14   H     H_    0.930103 0.284040 0.742337 0.175605
H15   H     H_    0.718737 0.801655 0.992037 0.163804
H16   H     H_    0.713387 0.199692 0.992092 0.174033
H17   H     H_    0.225276 0.306551 0.991823 0.172245
H18   H     H_    0.413225 0.491861 0.617682 0.171967
H19   H     H_    0.622838 0.816353 0.788682 0.189028
H20   H     H_    0.618379 0.185989 0.787043 0.192330
H21   H     H_    0.127393 0.320020 0.790968 0.193679
H22   H     H_    0.258371 0.523843 0.555297 0.127737
H23   H     H_    0.675767 0.790845 0.283620 0.168281
H24   H     H_    0.676165 0.209725 0.282658 0.182319
H25   H     H_    0.176350 0.291389 0.283900 0.180173
H26   H     H_    0.097321 0.780336 0.433978 0.153040
H27   H     H_    0.359953 0.000740 0.125739 0.137041
H28   H     H_    0.859934 0.498006 0.125725 0.139085
H29   H     H_    0.673159 0.000775 0.258283 0.205694
H30   H     H_    0.173195 0.500818 0.258446 0.197640
H31   H     H_    0.808177 0.001062 0.135084 0.184642
H32   H     H_    0.308136 0.504756 0.135234 0.177656
N1    N     N_R   0.501200 0.000000 0.147910 -0.195965
N2    N     N_R   0.001200 0.500000 0.147910 -0.195236
N3    N     N_R   0.501270 0.000000 0.852040 -0.207091
N4    N     N_R   0.001270 0.500000 0.852040 -0.211044
O1    O     O_R   0.409820 0.909830 0.618810 -0.575592
O2    O     O_R   0.409820 0.090170 0.618810 -0.589426
O3    O     O_R   0.909820 0.409830 0.618810 -0.585566
O4    O     O_R   0.909820 0.590170 0.618810 -0.578095
O5    O     O_R   0.409840 0.909830 0.381240 -0.573303
O6    O     O_R   0.409840 0.090170 0.381240 -0.564862
O7    O     O_R   0.909840 0.409830 0.381240 -0.567248
O8    O     O_R   0.909840 0.590170 0.381240 -0.566690
O9    O     O_R   0.590170 0.090170 0.618760 -0.618931
O10   O     O_R   0.590170 0.909830 0.618760 -0.616780
O11   O     O_R   0.090170 0.590170 0.618760 -0.596944
O12   O     O_R   0.090170 0.409830 0.618760 -0.626511
O13   O     O_R   0.590190 0.090180 0.381190 -0.588583
O14   O     O_R   0.590190 0.909820 0.381190 -0.597897
O15   O     O_R   0.090190 0.590180 0.381190 -0.584113
O16   O     O_R   0.090190 0.409820 0.381190 -0.596013
Br1   Br    Br    0.415985 0.255729 0.034382 -0.577814
Br2   Br    Br    0.579874 0.595101 0.647273 -0.544464
Br3   Br    Br    0.909515 0.752118 0.038041 -0.573936
Br4   Br    Br    0.905407 0.246541 0.039913 -0.595581

loop_
_geom_bond_atom_site_label_1
_geom_bond_atom_site_label_2
_ccdc_geom_bond_type
C58   C62   A    
Cu2   Cu4   S    
C40   C60   A    
Cu1   O10   S    
C49   H19   S    
C13   C32   S    
C52   H22   S    
C14   C31   S    
C1    C62   S    
C9    H23   S    
C53   C59   A    
C54   C60   A    
C3    C64   S    
C37   H11   S    
C4    C63   S    
C42   Br2   S    
C50   C54   A    
Cu2   O12   S    
C47   H17   S    
C19   C21   A    
Cu4   N2    S    
C5    C11   A    
C35   N3    A    
Cu4   O15   S    
C6    C12   A    
C34   O12   A    
C21   H5    S    
C6    H2    S    
Cu4   O8    S    
C41   Br1   S    
C9    C13   A    
C31   O13   A    
C5    H1    S    
C1    O5    A    
C38   C58   A    
C11   C15   A    
Cu3   O5    S    
C12   C16   A    
C3    O7    A    
Cu1   Cu3   S    
C30   H28   S    
Cu2   O3    S    
C15   C34   S    
C51   C55   A    
C2    C61   S    
C50   H20   S    
C26   N4    A    
C11   H25   S    
C4    O8    A    
C10   H24   S    
C12   H26   S    
C45   H15   S    
Cu1   O1    S    
C44   C46   A    
C13   C53   A    
C56   C58   A    
C34   O16   A    
C8    H4    S    
C33   O11   A    
Cu2   O11   S    
C29   N1    A    
C17   C27   A    
C40   H14   S    
C18   C28   A    
C39   H13   S    
C10   C14   A    
C32   O14   A    
C29   H27   S    
C19   H31   S    
C25   N3    A    
C48   H18   S    
C39   C43   A    
C3    O3    A    
C27   N1    A    
Cu4   O7    S    
C15   C55   A    
C16   C56   A    
Cu2   N4    S    
C16   C33   S    
C4    O4    A    
Cu3   O6    S    
C20   H32   S    
C45   C49   A    
C39   C59   A    
C30   N2    A    
C41   C47   A    
C5    C61   A    
C42   C48   A    
Cu3   O13   S    
C7    C63   A    
C8    C64   A    
C46   H16   S    
C8    C10   A    
C14   C54   A    
C20   C22   A    
C33   O15   A    
C21   C23   A    
C22   C24   A    
C59   C63   A    
Cu1   N3    S    
C40   C44   A    
C43   Br3   S    
Cu1   O2    S    
C23   H7    S    
Cu3   N1    S    
C7    C9    A    
C46   C50   A    
C2    O6    A    
Cu1   O9    S    
C24   H8    S    
C24   C26   A    
Cu2   O4    S    
C47   C51   A    
C57   C61   A    
C25   C27   A    
C29   C35   A    
C26   C28   A    
C30   C36   A    
C60   C64   A    
C6    C62   A    
C55   C57   A    
C43   C45   A    
C36   H10   S    
Cu4   O16   S    
C7    H3    S    
C36   N4    A    
C38   H12   S    
C49   C53   A    
C17   C19   A    
C2    O2    A    
C18   C20   A    
C23   C25   A    
C37   C41   A    
Cu3   O14   S    
C37   C57   A    
C38   C42   A    
C28   N2    A    
C48   C52   A    
C35   H9    S    
C44   Br4   S    
C22   H6    S    
C18   H30   S    
C32   O10   A    
C17   H29   S    
C31   O9    A    
C51   H21   S    
C52   C56   A    
C1    O1    A    
