data_mof_unit_625.cif
_audit_creation_date              2012-12-11T15:10:41-0500
_audit_creation_method            fapswitch 2.2
_symmetry_space_group_name_H-M    P1
_symmetry_Int_Tables_number       1
_space_group_crystal_system       triclinic
_cell_length_a                    21.05862
_cell_length_b                    7.226852
_cell_length_c                    18.404488
_cell_angle_alpha                 90.190178
_cell_angle_beta                  93.251076
_cell_angle_gamma                 89.945353
_cell_volume                      2796.40953773

loop_
_atom_site_label
_atom_site_type_symbol
_atom_type_description
_atom_site_fract_x
_atom_site_fract_y
_atom_site_fract_z
_atom_type_partial_charge
O1    O     O_R   0.448880 0.506250 0.415280 -0.516178
O2    O     O_R   0.551120 0.006250 0.584720 -0.546673
O3    O     O_R   0.434830 0.174000 0.557310 -0.526758
O4    O     O_R   0.565170 0.674000 0.442690 -0.507422
C1    C     C_R   0.418169 0.344249 0.581202 0.756366
C2    C     C_R   0.582666 0.844360 0.419824 0.751849
O5    O     O_R   0.441680 0.176440 0.414130 -0.523671
O6    O     O_R   0.558320 0.676440 0.585870 -0.507695
O7    O     O_R   0.558020 0.007570 0.440520 -0.523558
O8    O     O_R   0.441980 0.507570 0.559480 -0.494783
C3    C     C_R   0.425605 0.345625 0.390160 0.878808
C4    C     C_R   0.573649 0.845495 0.610406 0.863226
O9    O     O_3   0.538160 0.339670 0.508820 -0.375217
O10   O     O_3   0.461840 0.839670 0.491180 -0.355238
V1    V     V_3+5 0.492920 0.064260 0.498360 1.570213
V2    V     V_3+5 0.507080 0.564260 0.501640 1.624161
C5    C     C_R   0.883589 0.982359 0.686556 0.423682
C6    C     C_R   0.119867 0.569739 0.306558 0.397300
C7    C     C_R   0.889607 0.943725 0.818229 -0.301579
C8    C     C_R   0.108087 0.450481 0.182915 -0.302291
C9    C     C_R   0.583599 0.888807 0.743099 0.198479
C10   C     C_R   0.410843 0.316299 0.256892 0.205626
C11   C     C_R   0.616431 0.964549 0.804473 0.387452
C12   C     C_R   0.378454 0.355739 0.190243 0.389583
C13   C     C_R   0.682709 0.986237 0.805967 0.347650
C14   C     C_R   0.314013 0.405444 0.187764 0.353785
C15   C     C_R   0.717691 0.922983 0.746826 -0.077053
C16   C     C_R   0.280013 0.408538 0.252400 -0.078145
C17   C     C_R   0.683180 0.871491 0.680515 -0.169570
C18   C     C_R   0.316419 0.409820 0.320844 -0.166858
C19   C     C_R   0.786024 0.923303 0.749591 -0.068979
C20   C     C_R   0.211957 0.431194 0.250665 -0.077278
C21   C     C_R   0.817342 0.939325 0.683471 -0.238055
C22   C     C_R   0.183545 0.502987 0.312914 -0.262666
C23   C     C_R   0.781850 0.902873 0.617148 0.483272
C24   C     C_R   0.219319 0.504909 0.379886 0.490553
C25   C     C_R   0.718533 0.841727 0.618357 0.264639
C26   C     C_R   0.284546 0.465639 0.383430 0.280451
C27   C     C_R   0.824435 0.898558 0.815483 0.438972
C28   C     C_R   0.170350 0.378582 0.189934 0.442701
C29   C     C_R   0.918291 0.991816 0.754049 0.255095
C30   C     C_R   0.083355 0.547125 0.241210 0.253920
C31   C     C_R   0.615005 0.857668 0.678795 -0.191641
C32   C     C_R   0.382735 0.356558 0.322729 -0.202825
C33   C     C_1   0.864566 0.939544 0.132216 -0.108346
C34   C     C_1   0.135664 0.438352 0.868171 -0.104736
C35   C     C_1   0.821750 0.925434 0.176007 0.066964
C36   C     C_1   0.178708 0.424168 0.824667 0.073927
C37   C     C_1   0.771194 0.906072 0.228100 0.051333
C38   C     C_1   0.229548 0.405032 0.772920 0.057257
C39   C     C_1   0.728581 0.889176 0.272002 0.040216
C40   C     C_1   0.272376 0.388439 0.729258 0.048062
C41   C     C_1   0.677917 0.869726 0.323941 0.047901
C42   C     C_1   0.323202 0.369399 0.677501 0.063098
C43   C     C_1   0.634965 0.855504 0.367539 -0.099097
C44   C     C_1   0.366153 0.355442 0.633878 -0.080020
O11   O     O_R   0.058070 0.289240 0.940580 -0.511643
O12   O     O_R   0.941930 0.789240 0.059420 -0.510957
O13   O     O_R   0.058330 0.616740 0.085880 -0.527793
O14   O     O_R   0.941670 0.116740 0.914120 -0.526563
C45   C     C_R   0.071186 0.449352 0.112136 0.850221
C46   C     C_R   0.927946 0.948637 0.888373 0.849734
O15   O     O_R   0.065180 0.619040 0.942700 -0.525854
O16   O     O_R   0.934820 0.119040 0.057300 -0.529726
O17   O     O_R   0.948870 0.787780 0.915270 -0.538158
O18   O     O_R   0.051130 0.287780 0.084730 -0.529613
C47   C     C_R   0.083253 0.450127 0.920260 0.731285
C48   C     C_R   0.916787 0.950550 0.079833 0.737257
O19   O     O_3   0.961870 0.453310 0.991210 -0.379891
O20   O     O_3   0.038130 0.953310 0.008790 -0.371771
V3    V     V_3+5 0.007070 0.728770 0.001630 1.545736
V4    V     V_3+5 0.992930 0.228770 0.998370 1.550238
Cl1   Cl    Cl    0.999933 0.053018 0.757944 -0.553586
Cl2   Cl    Cl    0.004319 0.633306 0.233615 -0.563736
O21   O     O_3   0.811110 0.897463 0.551761 -0.496433
C49   C     C_3   0.790640 0.052028 0.509776 0.002891
H1    H     H_    0.801269 0.184270 0.539250 0.141582
H2    H     H_    0.739066 0.044287 0.493414 0.108414
H3    H     H_    0.816897 0.053486 0.459206 0.182042
O22   O     O_3   0.190775 0.543534 0.444156 -0.500635
C50   C     C_3   0.168443 0.375985 0.472577 0.014337
H4    H     H_    0.208174 0.277730 0.485631 0.120798
H5    H     H_    0.132148 0.309995 0.434537 0.139479
H6    H     H_    0.145379 0.406673 0.523973 0.188390
Cl3   Cl    Cl    0.925674 0.030909 0.608135 -0.439133
Cl4   Cl    Cl    0.086102 0.703760 0.375592 -0.456113
O23   O     O_3   0.799520 0.824154 0.876963 -0.532837
C51   C     C_3   0.794122 0.630873 0.867632 -0.114366
H7    H     H_    0.840938 0.566478 0.857724 0.124904
H8    H     H_    0.758585 0.595029 0.822771 0.146193
H9    H     H_    0.777305 0.570416 0.918413 0.190423
O24   O     O_3   0.189144 0.254116 0.138014 -0.524035
C52   C     C_3   0.185856 0.073840 0.166723 -0.115428
H10   H     H_    0.136862 0.040423 0.182417 0.131532
H11   H     H_    0.220585 0.054741 0.213956 0.127654
H12   H     H_    0.198267 0.973470 0.124042 0.184760
Cl5   Cl    Cl    0.500970 0.846569 0.745809 -0.634105
Cl6   Cl    Cl    0.489506 0.229188 0.256552 -0.633264
Cl7   Cl    Cl    0.717345 0.129154 0.875984 -0.613376
Cl8   Cl    Cl    0.282944 0.505700 0.105359 -0.585936
O25   O     O_3   0.583615 0.016139 0.864411 -0.503595
C53   C     C_3   0.558841 0.196153 0.853005 -0.011005
H13   H     H_    0.522874 0.200113 0.806441 0.142023
H14   H     H_    0.597033 0.298639 0.844252 0.135269
H15   H     H_    0.534753 0.239505 0.902354 0.170106
O26   O     O_3   0.409328 0.339151 0.126095 -0.505520
C54   C     C_3   0.443550 0.503612 0.114779 -0.008724
H16   H     H_    0.482131 0.525080 0.157716 0.147912
H17   H     H_    0.411816 0.626848 0.111853 0.149538
H18   H     H_    0.466147 0.492250 0.061948 0.164588
Cl9   Cl    Cl    0.690321 0.705850 0.543602 -0.672369
Cl10  Cl    Cl    0.322705 0.516860 0.468029 -0.661346

loop_
_geom_bond_atom_site_label_1
_geom_bond_atom_site_label_2
_ccdc_geom_bond_type
O23   C51   S    
O25   C53   S    
C10   Cl6   S    
C15   C17   A    
C1    C44   S    
O1    C3    A    
C49   H3    S    
C27   O23   S    
C2    C43   S    
O2    C4    A    
C2    O7    A    
C50   H4    S    
C35   C37   S    
O5    C3    A    
C23   O21   S    
C52   H10   S    
C5    Cl3   S    
O16   C48   A    
C23   C25   A    
C12   C14   A    
C4    C31   S    
C6    C30   A    
C8    C28   A    
O12   V3    S    
O26   C54   S    
O14   V4    S    
C7    C46   S    
C18   C26   A    
C53   H15   S    
O14   C46   A    
C8    C45   S    
C9    C31   A    
C45   O18   A    
C13   Cl7   S    
O18   V4    S    
C37   C39   T    
C38   C40   T    
C54   H16   S    
C19   C21   A    
O20   V3    S    
C36   C38   S    
C52   H11   S    
C17   C31   A    
C54   H17   S    
C18   C32   A    
C5    C21   A    
O11   C47   A    
C50   H5    S    
C40   C42   S    
C42   C44   T    
C33   C35   T    
O15   C47   A    
O13   C45   A    
C30   Cl2   S    
C15   C19   A    
C49   H2    S    
C16   C20   A    
C49   H1    S    
O4    C2    A    
C24   O22   S    
O5    V1    S    
O17   V3    S    
C39   C41   S    
C20   C22   A    
O4    V2    S    
O19   V4    S    
O21   C49   S    
C14   Cl8   S    
C9    Cl5   S    
C51   H9    S    
O6    C4    A    
C33   C48   S    
C3    C32   S    
O1    V2    S    
C6    Cl4   S    
C28   O24   S    
C53   H14   S    
O2    V1    S    
C6    C22   A    
C7    C27   A    
O12   C48   A    
C51   H8    S    
C52   H12   S    
C20   C28   A    
C9    C11   A    
C54   H18   S    
C10   C12   A    
C12   O26   S    
C41   C43   T    
C26   Cl10  S    
C50   H6    S    
O3    V1    S    
C10   C32   A    
C46   O17   A    
O15   V3    S    
O22   C50   S    
O3    C1    A    
C8    C30   A    
C13   C15   A    
C14   C16   A    
C24   C26   A    
O7    V1    S    
C34   C47   S    
O8    V2    S    
C11   O25   S    
C16   C18   A    
O24   C52   S    
C21   C23   A    
C19   C27   A    
C22   C24   A    
O16   V4    S    
O11   V4    S    
C53   H13   S    
C5    C29   A    
C25   Cl9   S    
C29   Cl1   S    
C34   C36   T    
C1    O8    A    
C11   C13   A    
C51   H7    S    
O6    V2    S    
O9    V2    S    
C17   C25   A    
O10   V1    S    
C7    C29   A    
O13   V3    S    
