data_mof_unit_512.cif
_audit_creation_date              2012-12-11T14:33:50-0500
_audit_creation_method            fapswitch 2.2
_symmetry_space_group_name_H-M    P1
_symmetry_Int_Tables_number       1
_space_group_crystal_system       triclinic
_cell_length_a                    13.849552
_cell_length_b                    13.976199
_cell_length_c                    27.326931
_cell_angle_alpha                 89.962514
_cell_angle_beta                  90.098319
_cell_angle_gamma                 119.652164
_cell_volume                      4596.8169505

loop_
_atom_site_label
_atom_site_type_symbol
_atom_type_description
_atom_site_fract_x
_atom_site_fract_y
_atom_site_fract_z
_atom_type_partial_charge
C1    C     C_R   0.234037 0.787131 0.568785 0.541000
C2    C     C_R   0.212525 0.446476 0.568767 0.543962
C3    C     C_R   0.552830 0.765310 0.569001 0.540452
C4    C     C_3   0.654908 0.732051 0.791304 -0.206752
C5    C     C_3   0.247165 0.952770 0.784555 -0.206352
C6    C     C_3   0.051500 0.309173 0.786198 -0.205998
C7    C     C_3   0.632035 0.717076 0.735269 -0.078244
C8    C     C_3   0.268187 0.934703 0.730376 -0.078354
C9    C     C_3   0.068571 0.345338 0.731507 -0.079189
C10   C     C_1   0.706899 0.862662 0.860256 -0.075422
C11   C     C_1   0.113749 0.880639 0.852708 -0.074957
C12   C     C_1   0.114254 0.231280 0.852329 -0.075500
C13   C     C_1   0.629075 0.814149 0.658930 -0.055081
C14   C     C_1   0.178840 0.819416 0.656512 -0.055911
C15   C     C_1   0.177133 0.358235 0.656286 -0.055072
C16   C     C_1   0.601274 0.796209 0.616667 0.002561
C17   C     C_1   0.199899 0.806003 0.615306 0.002895
C18   C     C_1   0.192570 0.393133 0.615157 0.003099
C19   C     C_R   0.064854 0.150355 0.095976 0.578847
C20   C     C_R   0.777545 0.884062 0.088401 0.547445
C21   C     C_R   0.116480 0.893639 0.088155 0.560577
C22   C     C_R   0.069358 0.160446 0.943244 0.539929
C23   C     C_R   0.779528 0.887086 0.950827 0.542351
C24   C     C_R   0.090673 0.929639 0.943367 0.536566
C25   C     C_R   0.618246 0.895581 0.361467 -0.132099
C26   C     C_R   0.097199 0.732358 0.362822 -0.133668
C27   C     C_R   0.264347 0.357762 0.363769 -0.134072
C28   C     C_R   0.644696 0.911241 0.311861 0.014003
C29   C     C_R   0.080620 0.743844 0.313165 0.014142
C30   C     C_R   0.241403 0.306933 0.317675 0.014024
C31   C     C_R   0.681249 0.929177 0.210399 0.017086
C32   C     C_R   0.060641 0.759881 0.211539 0.017007
C33   C     C_R   0.200816 0.226092 0.220979 0.017023
C34   C     C_R   0.232491 0.788321 0.431807 0.547593
C35   C     C_R   0.211685 0.444524 0.431366 0.549313
C36   C     C_R   0.555557 0.767213 0.431892 0.548345
C37   C     C_R   0.653423 0.000726 0.234473 -0.138080
C38   C     C_R   0.977520 0.670651 0.237574 -0.127947
C39   C     C_R   0.303183 0.256977 0.243590 -0.123995
C40   C     C_R   0.634960 0.991666 0.284944 -0.130859
C41   C     C_R   0.988069 0.661985 0.288051 -0.128750
C42   C     C_R   0.323467 0.297416 0.291554 -0.128363
C43   C     C_R   0.704196 0.939543 0.160149 -0.150301
C44   C     C_R   0.050716 0.771052 0.161178 -0.135416
C45   C     C_R   0.183006 0.195293 0.171521 -0.128703
C46   C     C_R   0.729184 0.864905 0.137169 -0.003061
C47   C     C_R   0.135356 0.861371 0.136272 -0.004986
C48   C     C_R   0.082863 0.172647 0.148624 -0.008884
C49   C     C_R   0.659014 0.745106 0.364167 -0.130247
C50   C     C_R   0.266020 0.910834 0.361935 -0.127359
C51   C     C_R   0.076193 0.328155 0.367948 -0.128849
C52   C     C_R   0.683303 0.757997 0.314648 0.013177
C53   C     C_R   0.254266 0.920509 0.312235 0.013559
C54   C     C_R   0.052728 0.279203 0.321886 0.011714
C55   C     C_R   0.673666 0.839669 0.288064 0.063886
C56   C     C_R   0.162339 0.835889 0.287430 0.063291
C57   C     C_R   0.136226 0.270588 0.296097 0.062617
C58   C     C_R   0.708770 0.684886 0.290693 -0.126611
C59   C     C_R   0.337522 0.009796 0.286512 -0.127102
C60   C     C_R   0.949249 0.245323 0.299967 -0.128713
C61   C     C_R   0.720849 0.690023 0.240236 -0.127110
C62   C     C_R   0.331676 0.013601 0.235930 -0.129577
C63   C     C_R   0.930300 0.208081 0.251793 -0.122524
C64   C     C_R   0.710767 0.770316 0.213651 0.010918
C65   C     C_R   0.240610 0.930190 0.210977 0.014269
C66   C     C_R   0.013454 0.201819 0.225343 0.016618
C67   C     C_3   0.569287 0.858170 0.736847 -0.231980
C68   C     C_3   0.135677 0.731337 0.738218 -0.233200
C69   C     C_3   0.268919 0.392082 0.736972 -0.232459
C70   C     C_R   0.689043 0.846833 0.237391 0.065361
C71   C     C_R   0.154299 0.841963 0.236648 0.063961
C72   C     C_R   0.116237 0.231015 0.247725 0.062167
C73   C     C_R   0.725375 0.776888 0.163671 -0.122928
C74   C     C_R   0.232688 0.936246 0.160820 -0.132540
C75   C     C_R   0.997272 0.171949 0.176160 -0.129267
C76   C     C_R   0.618616 0.807974 0.386719 -0.002313
C77   C     C_R   0.193459 0.813051 0.386392 -0.002684
C78   C     C_R   0.183249 0.372622 0.388097 -0.003957
C79   C     C_3   0.771050 0.920229 0.723133 -0.218415
C80   C     C_3   0.061883 0.856556 0.713902 -0.215875
C81   C     C_3   0.123752 0.200766 0.712982 -0.216594
C82   C     C_3   0.790362 0.933408 0.779217 -0.221256
C83   C     C_3   0.041087 0.867606 0.768740 -0.222725
C84   C     C_3   0.107165 0.167147 0.767591 -0.225202
C85   C     C_1   0.734200 0.873200 0.902613 -0.026144
C86   C     C_1   0.102658 0.901217 0.894373 -0.020977
C87   C     C_1   0.096066 0.200006 0.894085 -0.025090
C88   C     C_3   0.651127 0.827236 0.711958 0.056777
C89   C     C_3   0.161422 0.835937 0.708164 0.054531
C90   C     C_3   0.159042 0.324109 0.707880 0.055450
C91   C     C_3   0.588154 0.870022 0.793059 -0.222182
C92   C     C_3   0.121249 0.748514 0.793347 -0.219043
C93   C     C_3   0.252322 0.358464 0.791748 -0.218626
C94   C     C_3   0.684770 0.849884 0.807358 0.057938
C95   C     C_3   0.130199 0.862330 0.801210 0.055348
C96   C     C_3   0.131331 0.266112 0.800840 0.055829
Cr1   Cr    Cr6+3 0.164410 0.584450 0.499910 1.031057
Cr2   Cr    Cr6+3 0.415550 0.579960 0.499910 1.032029
Cr3   Cr    Cr6+3 0.420040 0.835590 0.499910 1.029219
Cr4   Cr    Cr6+3 0.155170 0.075460 0.019960 1.017028
Cr5   Cr    Cr6+3 0.924540 0.079710 0.019960 1.007235
Cr6   Cr    Cr6+3 0.920290 0.844830 0.019960 1.009320
H1    H     H_    0.607398 0.953944 0.804687 0.123732
H2    H     H_    0.039065 0.681912 0.806231 0.126210
H3    H     H_    0.311335 0.329650 0.802360 0.126023
H4    H     H_    0.481893 0.793927 0.729116 0.103766
H5    H     H_    0.204108 0.711965 0.733919 0.102655
H6    H     H_    0.297485 0.481610 0.733817 0.102918
H7    H     H_    0.510717 0.809892 0.812167 0.112787
H8    H     H_    0.186238 0.742911 0.815139 0.116610
H9    H     H_    0.271540 0.431447 0.814771 0.117119
H10   H     H_    0.723703 0.716492 0.801929 0.122441
H11   H     H_    0.255199 0.035269 0.790056 0.115190
H12   H     H_    0.964175 0.243910 0.793454 0.119499
H13   H     H_    0.706141 0.006708 0.139481 0.104761
H14   H     H_    0.975653 0.713222 0.142006 0.114087
H15   H     H_    0.248265 0.193187 0.150515 0.122000
H16   H     H_    0.588330 0.945424 0.379095 0.128709
H17   H     H_    0.039801 0.657634 0.381959 0.124690
H18   H     H_    0.346832 0.390947 0.379323 0.125967
H19   H     H_    0.645921 0.063514 0.214302 0.098478
H20   H     H_    0.905399 0.606878 0.218802 0.098512
H21   H     H_    0.368827 0.253366 0.223639 0.100715
H22   H     H_    0.611842 0.046590 0.302810 0.100469
H23   H     H_    0.924525 0.590964 0.307336 0.101643
H24   H     H_    0.404398 0.324229 0.307687 0.102913
H25   H     H_    0.742880 0.717558 0.146068 0.129533
H26   H     H_    0.298710 0.005566 0.141501 0.123494
H27   H     H_    0.919073 0.151757 0.158692 0.117987
H28   H     H_    0.738173 0.631385 0.221982 0.098619
H29   H     H_    0.397739 0.082173 0.216371 0.094585
H30   H     H_    0.852232 0.188228 0.234603 0.110659
H31   H     H_    0.715814 0.621662 0.310744 0.102266
H32   H     H_    0.408811 0.074726 0.305327 0.098026
H33   H     H_    0.884604 0.251940 0.319362 0.104366
H34   H     H_    0.580881 0.936984 0.721512 0.134558
H35   H     H_    0.058434 0.659210 0.724208 0.136135
H36   H     H_    0.335493 0.378729 0.721324 0.139854
H37   H     H_    0.661367 0.678932 0.383920 0.129924
H38   H     H_    0.338954 0.974997 0.380210 0.132861
H39   H     H_    0.012485 0.337536 0.386753 0.132114
H40   H     H_    0.832811 0.901679 0.706041 0.123569
H41   H     H_    0.078225 0.932649 0.694048 0.124783
H42   H     H_    0.045500 0.148680 0.692419 0.125801
H43   H     H_    0.784767 0.999309 0.707224 0.142357
H44   H     H_    0.985904 0.787212 0.697520 0.151165
H45   H     H_    0.188476 0.185280 0.696990 0.151715
H46   H     H_    0.813828 0.018962 0.790094 0.118990
H47   H     H_    0.956845 0.800515 0.779143 0.127265
H48   H     H_    0.163745 0.135267 0.777587 0.117625
H49   H     H_    0.860735 0.920252 0.789102 0.102480
H50   H     H_    0.042286 0.946287 0.774803 0.097854
H51   H     H_    0.020375 0.100386 0.773303 0.103267
H52   H     H_    0.543658 0.652919 0.729534 0.097117
H53   H     H_    0.336427 0.914359 0.729491 0.098483
H54   H     H_    0.097650 0.435163 0.729868 0.096648
H55   H     H_    0.579575 0.670498 0.811280 0.104068
H56   H     H_    0.311747 0.950471 0.808063 0.107113
H57   H     H_    0.067637 0.380761 0.809614 0.108172
O1    O     O_R   0.137150 0.468200 0.553200 -0.501839
O2    O     O_R   0.531800 0.668950 0.553200 -0.501990
O3    O     O_R   0.331050 0.862850 0.553200 -0.499750
O4    O     O_R   0.179100 0.982980 0.967000 -0.503954
O5    O     O_R   0.017020 0.196120 0.967000 -0.482861
O6    O     O_R   0.803880 0.820900 0.967000 -0.510882
O7    O     O_R   0.173970 0.688730 0.549930 -0.499533
O8    O     O_R   0.311270 0.485240 0.549930 -0.497887
O9    O     O_R   0.514760 0.826030 0.549930 -0.497177
O10   O     O_R   0.140110 0.470540 0.446010 -0.520479
O11   O     O_R   0.529460 0.669570 0.446010 -0.520377
O12   O     O_R   0.330430 0.859890 0.446010 -0.522620
O13   O     O_R   0.176710 0.690910 0.450560 -0.502170
O14   O     O_R   0.309090 0.485800 0.450560 -0.501014
O15   O     O_R   0.514200 0.823290 0.450560 -0.503971
O16   O     O_3   0.333333 0.666667 0.499990 -0.270720
O17   O     O_R   0.176750 0.985260 0.074180 -0.529786
O18   O     O_R   0.014740 0.191490 0.074180 -0.494269
O19   O     O_R   0.808510 0.823250 0.074180 -0.517266
O20   O     O_R   0.146100 0.172630 0.068980 -0.479094
O21   O     O_R   0.827370 0.973470 0.068980 -0.517714
O22   O     O_R   0.026530 0.853900 0.068980 -0.488857
O23   O     O_3   0.000000 0.000000 0.020040 -0.286630
O24   O     O_R   0.148270 0.170520 0.969620 -0.490170
O25   O     O_R   0.829480 0.977750 0.969620 -0.519657
O26   O     O_R   0.022250 0.851730 0.969620 -0.481528
C97   C     C_1   0.700484 0.675729 0.711923 0.174420
N1    N     N_1   0.753909 0.643182 0.693627 -0.313901
C98   C     C_1   0.307365 0.037181 0.701865 0.172986
N2    N     N_1   0.338508 0.117381 0.679461 -0.311879
C99   C     C_1   0.961865 0.289044 0.704722 0.175643
N3    N     N_1   0.878326 0.244896 0.683761 -0.304380

loop_
_geom_bond_atom_site_label_1
_geom_bond_atom_site_label_2
_ccdc_geom_bond_type
C15   C18   T    
C43   C46   A    
C10   C85   T    
C36   O15   A    
C99   N3    T    
Cr1   O16   S    
C2    C18   S    
C33   C45   A    
C7    C97   S    
C14   C17   T    
C27   C78   A    
C25   H16   S    
Cr2   O2    S    
C6    C9    S    
C6    H57   S    
C53   C59   A    
Cr1   O10   S    
C20   O21   A    
C54   C60   A    
C27   H18   S    
C8    C98   S    
C25   C28   A    
C21   O22   A    
C7    H52   S    
C67   C88   S    
C33   C39   A    
Cr1   O13   S    
C31   C43   A    
C60   C63   A    
C82   C94   S    
Cr3   O9    S    
C37   C40   A    
C69   C93   S    
C80   C83   S    
C34   C77   S    
C64   C70   A    
C50   H38   S    
C45   C48   A    
C79   H40   S    
Cr3   O12   S    
C10   C94   S    
C11   C86   T    
C45   H15   S    
Cr1   O7    S    
C30   C57   A    
C39   H21   S    
C84   C96   S    
C80   C89   S    
Cr4   O24   S    
C8    H53   S    
C6    H12   S    
C36   C76   S    
C33   C72   A    
C93   H3    S    
C23   O6    A    
C28   C55   A    
C31   C70   A    
C66   C72   A    
C7    C88   S    
C9    H54   S    
C81   H45   S    
Cr4   O17   S    
Cr6   O23   S    
C64   C73   A    
C26   C29   A    
C68   H5    S    
C32   C38   A    
C39   C42   A    
Cr4   O23   S    
C19   O18   A    
Cr2   O8    S    
C12   C87   T    
C44   C47   A    
C43   H13   S    
C49   C52   A    
C58   C61   A    
C80   H44   S    
C4    H10   S    
C63   C66   A    
C27   C30   A    
C48   C75   A    
C68   H35   S    
C4    C7    S    
C79   C88   S    
C5    C95   S    
C69   H6    S    
C3    O9    A    
C32   C71   A    
C51   H39   S    
C58   H31   S    
C40   H22   S    
C74   H26   S    
C26   C77   A    
C50   C53   A    
Cr1   O1    S    
C41   H23   S    
C83   H47   S    
C26   H17   S    
C38   C41   A    
C79   H43   S    
Cr2   O14   S    
C92   H2    S    
C19   C48   S    
C20   O19   A    
C73   H25   S    
C92   C95   S    
C65   C74   A    
C31   C37   A    
C98   N2    T    
C35   O14   A    
C61   C64   A    
C3    C16   S    
C14   C89   S    
C22   O24   A    
C80   H41   S    
C79   C82   S    
Cr3   O3    S    
C22   O5    A    
C84   H51   S    
C4    H55   S    
C56   C71   A    
C83   C95   S    
C67   C91   S    
C68   C89   S    
C32   C44   A    
C49   C76   A    
C22   C87   S    
C60   H33   S    
C38   H20   S    
Cr5   O25   S    
C52   C58   A    
C61   H28   S    
C93   H9    S    
C37   H19   S    
C81   C90   S    
C1    O3    A    
C93   C96   S    
C6    C96   S    
C49   H37   S    
C35   O10   A    
C4    C94   S    
C24   O4    A    
C42   H24   S    
C69   C90   S    
C50   C77   A    
C19   O20   A    
C81   C84   S    
C34   O13   A    
C83   H50   S    
C53   C56   A    
C11   C95   S    
C69   H36   S    
C34   O12   A    
C59   C62   A    
C59   H32   S    
C62   C65   A    
C5    H11   S    
Cr6   O22   S    
C1    C17   S    
C62   H29   S    
Cr5   O5    S    
C30   C42   A    
C82   H49   S    
C47   C74   A    
C91   H1    S    
C9    C90   S    
C5    C8    S    
C82   H46   S    
C52   C55   A    
C67   H4    S    
C29   C56   A    
Cr6   O6    S    
Cr6   O26   S    
C35   C78   S    
C36   O11   A    
C51   C54   A    
C91   H7    S    
C67   H34   S    
C51   C78   A    
C23   O25   A    
Cr5   O21   S    
C65   C71   A    
C15   C90   S    
Cr2   O16   S    
C92   H8    S    
Cr3   O15   S    
C1    O7    A    
Cr6   O19   S    
C66   C75   A    
C13   C88   S    
C68   C92   S    
C63   H30   S    
Cr4   O4    S    
C57   C72   A    
C81   H42   S    
C21   O17   A    
C55   C70   A    
Cr5   O18   S    
C3    O2    A    
Cr2   O11   S    
C75   H27   S    
Cr3   O16   S    
C44   H14   S    
C25   C76   A    
C2    O1    A    
C5    H56   S    
C23   C85   S    
C13   C16   T    
C28   C40   A    
C29   C41   A    
C12   C96   S    
C8    C89   S    
C21   C47   S    
C97   N1    T    
Cr4   O20   S    
C24   C86   S    
C2    O8    A    
C54   C57   A    
C46   C73   A    
C20   C46   S    
Cr5   O23   S    
C9    C99   S    
C91   C94   S    
C24   O26   A    
C84   H48   S    
