data_mof_unit_954.cif
_audit_creation_date              2012-12-10T17:46:58-0500
_audit_creation_method            fapswitch 2.2
_symmetry_space_group_name_H-M    P1
_symmetry_Int_Tables_number       1
_space_group_crystal_system       triclinic
_cell_length_a                    9.946928
_cell_length_b                    10.644856
_cell_length_c                    13.591941
_cell_angle_alpha                 91.283373
_cell_angle_beta                  82.38659
_cell_angle_gamma                 87.162935
_cell_volume                      1424.11907751

loop_
_atom_site_label
_atom_site_type_symbol
_atom_type_description
_atom_site_fract_x
_atom_site_fract_y
_atom_site_fract_z
_atom_type_partial_charge
C1    C     C_R   0.498038 0.739219 0.488303 0.933282
C2    C     C_R   0.609788 0.932356 0.434111 -0.049849
C3    C     C_R   0.616000 0.058767 0.458530 -0.172847
C4    C     C_R   0.474963 0.503957 0.685645 0.886663
C5    C     C_R   0.505262 0.124866 0.513818 -0.147836
C6    C     C_R   0.829219 0.650826 0.641598 -0.140386
C7    C     C_R   0.883064 0.721577 0.713924 -0.034572
C8    C     C_R   0.023395 0.719204 0.712616 -0.225741
C9    C     C_R   0.108259 0.648328 0.640396 -0.160526
C10   C     C_R   0.056231 0.570865 0.570981 0.182981
C11   C     C_R   0.911936 0.571008 0.571418 0.163493
C12   C     C_1   0.454344 0.517805 0.789628 -0.101098
C13   C     C_R   0.946636 0.439490 0.427027 -0.018009
C14   C     C_R   0.089004 0.437876 0.428921 -0.129029
C15   C     C_R   0.501449 0.259971 0.507956 0.883186
C16   C     C_R   0.524914 0.499624 0.314298 0.925013
C17   C     C_1   0.543191 0.506942 0.210457 -0.077255
C18   C     C_2   0.546553 0.525686 0.019756 -0.233643
C19   C     C_2   0.428859 0.541264 0.982440 -0.041009
C20   C     C_1   0.438751 0.529995 0.877570 0.017658
C21   C     C_1   0.550240 0.515587 0.122954 0.103573
C22   C     C_2   0.291773 0.562882 0.041790 0.973159
C23   C     C_R   0.238123 0.905576 0.500853 -0.165277
C24   C     C_2   0.793246 0.803059 0.787875 0.948652
C25   C     C_2   0.720614 0.869483 0.362382 0.991586
C26   C     C_2   0.984405 0.936735 0.538299 0.982102
C27   C     C_1   0.295230 0.207362 0.691120 0.195386
C28   C     C_2   0.900225 0.382656 0.338593 0.963761
C29   C     C_R   0.123720 0.974350 0.550400 -0.098003
C30   C     C_R   0.144920 0.074757 0.613839 -0.264906
C31   C     C_R   0.274768 0.119488 0.613014 0.044693
C32   C     C_R   0.384864 0.064292 0.546515 0.058966
C33   C     C_R   0.370649 0.945289 0.505802 0.050265
C34   C     C_R   0.490213 0.872713 0.468636 -0.180434
H1    H     H_    0.723612 0.666645 0.638752 0.221728
H2    H     H_    0.778190 0.929682 0.902115 0.356962
H3    H     H_    0.780657 0.725646 0.264525 0.358632
H4    H     H_    0.885473 0.103281 0.587783 0.305691
H5    H     H_    0.785327 0.256597 0.281463 0.335023
H6    H     H_    0.068565 0.776779 0.764814 0.208285
H7    H     H_    0.214226 0.661264 0.637683 0.210462
H8    H     H_    0.157317 0.387389 0.371044 0.175063
H9    H     H_    0.642346 0.510757 0.971055 0.176302
H10   H     H_    0.222701 0.825809 0.453726 0.205710
H11   H     H_    0.061851 0.118200 0.664732 0.155425
H12   H     H_    0.704693 0.107332 0.429490 0.241403
H13   H     H_    0.178843 0.606108 0.174038 0.368909
N1    N     N_R   0.857120 0.501200 0.500900 -0.150276
N2    N     N_R   0.142720 0.501280 0.500940 -0.129709
N3    N     N_1   0.309887 0.275523 0.755770 -0.183758
O1    O     O_R   0.385310 0.683220 0.500000 -0.657384
O2    O     O_R   0.277374 0.594128 0.143274 -0.792198
O3    O     O_2   0.669809 0.804457 0.790066 -0.639127
O4    O     O_R   0.849643 0.878533 0.855634 -0.791035
O5    O     O_2   0.829255 0.918550 0.343131 -0.585568
O6    O     O_R   0.698243 0.758211 0.311852 -0.807488
O7    O     O_2   0.970267 0.836379 0.496835 -0.588380
O8    O     O_R   0.867760 0.013175 0.571004 -0.774345
O9    O     O_2   0.948074 0.415075 0.256065 -0.627034
O10   O     O_R   0.807632 0.288508 0.347958 -0.791307
O11   O     O_R   0.614640 0.683250 0.500010 -0.602503
O12   O     O_R   0.368830 0.499960 0.640340 -0.627348
O13   O     O_R   0.598160 0.499980 0.640350 -0.640266
O14   O     O_R   0.385360 0.316750 0.499990 -0.618131
O15   O     O_R   0.614690 0.316780 0.500000 -0.569913
O16   O     O_R   0.401840 0.500020 0.359650 -0.597485
O17   O     O_R   0.631170 0.500040 0.359660 -0.578555
O18   O     O_2   0.190214 0.555331 0.000552 -0.592247
Zn1   Zn    Zn3+2 0.346870 0.499980 0.499990 0.960349
Zn2   Zn    Zn3+2 0.653130 0.500020 0.500010 1.000116

loop_
_geom_bond_atom_site_label_1
_geom_bond_atom_site_label_2
_ccdc_geom_bond_type
O11   Zn2   S    
C13   N1    A    
C15   O14   A    
C25   O6    S    
C13   C28   S    
C6    C7    A    
C13   C14   A    
C4    C12   S    
C18   C21   S    
C1    O1    A    
C9    C10   A    
C30   H11   S    
C9    H7    S    
C19   C20   S    
C27   N3    T    
C14   H8    S    
O17   Zn2   S    
C22   O18   D    
C32   C33   A    
C5    C32   A    
C2    C3    A    
C24   O3    D    
C7    C8    A    
C1    O11   A    
C16   O17   A    
N2    Zn1   S    
O14   Zn1   S    
C26   O8    S    
C4    O13   A    
C12   C20   T    
C11   N1    A    
C29   C30   A    
H5    O10   S    
C23   C29   A    
C25   O5    D    
C1    C34   S    
C33   C34   A    
C2    C25   S    
C28   O10   S    
C30   C31   A    
C26   O7    D    
C5    C15   S    
O16   Zn1   S    
C16   O16   A    
C10   C11   A    
C10   N2    A    
O13   Zn2   S    
C24   O4    S    
O15   Zn2   S    
C14   N2    A    
C4    O12   A    
C19   C22   S    
C8    H6    S    
C6    H1    S    
C26   C29   S    
C22   O2    S    
C18   C19   D    
C28   O9    D    
H13   O2    S    
C6    C11   A    
C8    C9    A    
C3    H12   S    
O1    Zn1   S    
C23   C33   A    
C2    C34   A    
C18   H9    S    
H3    O6    S    
C27   C31   S    
H4    O8    S    
H2    O4    S    
C31   C32   A    
C17   C21   T    
C23   H10   S    
C7    C24   S    
O12   Zn1   S    
N1    Zn2   S    
C16   C17   S    
C3    C5    A    
C15   O15   A    
