data_mof_unit_664.cif
_audit_creation_date              2012-12-10T20:26:28-0500
_audit_creation_method            fapswitch 2.2
_symmetry_space_group_name_H-M    P1
_symmetry_Int_Tables_number       1
_space_group_crystal_system       triclinic
_cell_length_a                    10.684467
_cell_length_b                    10.749504
_cell_length_c                    9.863315
_cell_angle_alpha                 90.036591
_cell_angle_beta                  90.885637
_cell_angle_gamma                 90.108434
_cell_volume                      1132.69095296

loop_
_atom_site_label
_atom_site_type_symbol
_atom_type_description
_atom_site_fract_x
_atom_site_fract_y
_atom_site_fract_z
_atom_type_partial_charge
C1    C     C_R   0.499575 0.260473 0.499814 0.876184
C2    C     C_R   0.497993 0.129252 0.498048 -0.110565
C3    C     C_R   0.495395 0.064503 0.373914 -0.231264
C4    C     C_R   0.495372 0.935382 0.373910 -0.226795
C5    C     C_R   0.498331 0.870786 0.498069 -0.112641
C6    C     C_R   0.499820 0.938070 0.617541 0.137968
C7    C     C_3   0.505609 0.928608 0.768259 -0.489381
C8    C     C_3   0.505042 0.071766 0.768281 -0.484215
C9    C     C_R   0.438071 0.408963 0.070119 0.220379
C10   C     C_R   0.570351 0.582788 0.073232 -0.145728
C11   C     C_R   0.570472 0.582697 0.929246 -0.131045
C12   C     C_R   0.262242 0.502211 0.498827 0.928407
C13   C     C_R   0.437772 0.409359 0.927398 0.170251
C14   C     C_3   0.300927 0.382794 0.918245 -0.503907
C15   C     C_3   0.300754 0.382524 0.072598 -0.071433
C16   C     C_R   0.499852 0.739537 0.499820 0.886067
C17   C     C_R   0.737262 0.489163 0.501017 0.903600
C18   C     C_2   0.931882 0.463474 0.389702 -0.171463
C19   C     C_2   0.865519 0.448904 0.503167 0.042898
C20   C     C_2   0.066411 0.457550 0.391346 -0.178512
C21   C     C_2   0.129585 0.507876 0.495214 -0.338486
C22   C     C_R   0.499421 0.062129 0.617539 0.138423
H1    H     H_    0.594289 0.113695 0.805688 0.205058
H2    H     H_    0.625180 0.651236 0.128538 0.148391
H3    H     H_    0.625504 0.650957 0.875875 0.143335
H4    H     H_    0.246830 0.461420 0.873690 0.197545
H5    H     H_    0.281061 0.291068 0.870384 0.202246
H6    H     H_    0.246015 0.460397 0.116064 0.176996
H7    H     H_    0.112869 0.418903 0.303979 0.173755
H8    H     H_    0.083259 0.551767 0.579978 0.165441
H9    H     H_    0.494212 0.112601 0.277455 0.177752
H10   H     H_    0.493771 0.887150 0.277414 0.173204
H11   H     H_    0.419437 0.886605 0.810513 0.207407
H12   H     H_    0.595303 0.887941 0.805527 0.197253
N1    N     N_R   0.499170 0.499140 0.142800 -0.121631
N2    N     N_R   0.499170 0.499180 0.857150 -0.104650
O1    O     O_R   0.500020 0.316790 0.614690 -0.617146
O2    O     O_R   0.500000 0.316760 0.385350 -0.626243
O3    O     O_R   0.319080 0.500020 0.614640 -0.621430
O4    O     O_R   0.319070 0.499980 0.385300 -0.617976
O5    O     O_R   0.500000 0.683240 0.614650 -0.620606
O6    O     O_R   0.499980 0.683210 0.385310 -0.627179
O7    O     O_R   0.680930 0.500020 0.614700 -0.610330
O8    O     O_R   0.680920 0.499980 0.385360 -0.634713
Zn1   Zn    Zn3+2 0.500010 0.500020 0.653130 0.939285
Zn2   Zn    Zn3+2 0.499990 0.499980 0.346870 0.935386
H13   H     H_    0.888798 0.495698 0.295602 0.151101
C23   C     C_3   0.270864 0.255531 0.134250 -0.885676
H14   H     H_    0.330495 0.181281 0.090836 0.238795
H15   H     H_    0.286553 0.258681 0.245658 0.260080
H16   H     H_    0.171088 0.232222 0.113803 0.242862
C24   C     C_3   0.912899 0.380353 0.628486 -0.882313
H17   H     H_    0.842823 0.309468 0.658594 0.235039
H18   H     H_    0.001285 0.329189 0.611022 0.255408
H19   H     H_    0.926252 0.446751 0.713787 0.234913
H20   H     H_    0.418474 0.112502 0.810532 0.199897

loop_
_geom_bond_atom_site_label_1
_geom_bond_atom_site_label_2
_ccdc_geom_bond_type
C2    C22   A    
C8    C22   S    
C17   O7    A    
C12   O4    A    
C6    C7    S    
C14   H5    S    
O7    Zn1   S    
C21   H8    S    
C24   H19   S    
C1    O1    A    
O3    Zn1   S    
C18   H13   S    
C8    H20   S    
C12   O3    A    
C23   H15   S    
C2    C3    A    
C9    C15   S    
C17   O8    A    
N2    Zn1   S    
O5    Zn1   S    
C13   C14   S    
C14   H4    S    
C3    H9    S    
C7    H11   S    
C15   H6    S    
C4    H10   S    
C12   C21   S    
C1    O2    A    
C15   C23   S    
C11   N2    A    
C17   C19   S    
O8    Zn2   S    
C1    C2    S    
C18   C20   S    
C20   H7    S    
C5    C6    A    
C7    H12   S    
O2    Zn2   S    
C10   C11   A    
O4    Zn2   S    
O1    Zn1   S    
C3    C4    A    
C6    C22   A    
C16   O6    A    
C7    C8    S    
C8    H1    S    
C24   H17   S    
C10   N1    A    
C13   N2    A    
C18   C19   D    
O6    Zn2   S    
C9    N1    A    
C11   H3    S    
C14   C15   S    
C23   H14   S    
C5    C16   S    
C9    C13   A    
C10   H2    S    
C20   C21   D    
N1    Zn2   S    
C19   C24   S    
C23   H16   S    
C24   H18   S    
C4    C5    A    
C16   O5    A    
