data_mof_unit_2727.cif
_audit_creation_date              2012-10-26T21:02:37-0400
_audit_creation_method            fapswitch 2.2
_symmetry_space_group_name_H-M    P1
_symmetry_Int_Tables_number       1
_space_group_crystal_system       triclinic
_cell_length_a                    12.353184
_cell_length_b                    13.300686
_cell_length_c                    15.025255
_cell_angle_alpha                 77.699793
_cell_angle_beta                  100.808458
_cell_angle_gamma                 116.51889
_cell_volume                      2146.19561505

loop_
_atom_site_label
_atom_site_type_symbol
_atom_type_description
_atom_site_fract_x
_atom_site_fract_y
_atom_site_fract_z
_atom_type_partial_charge
C1    C     C_R   0.854537 0.287138 0.509936 0.535343
C2    C     C_R   0.890103 0.436368 0.807220 -0.130242
C3    C     C_R   0.997676 0.501328 0.766180 -0.003469
C4    C     C_R   0.999085 0.499817 0.670526 0.537689
C5    C     C_R   0.103319 0.569067 0.815584 -0.128428
C6    C     C_R   0.269512 0.028517 0.412100 -0.145822
C7    C     C_R   0.230140 0.834206 0.477353 0.035636
C8    C     C_R   0.808859 0.095354 0.593731 -0.109897
C9    C     C_R   0.725159 0.996894 0.639427 0.125133
C10   C     C_R   0.599873 0.965021 0.615560 0.121884
C11   C     C_R   0.559200 0.023657 0.534857 0.012147
C12   C     C_R   0.103913 0.575532 0.093920 0.022773
C13   C     C_R   0.644576 0.128547 0.493525 -0.008653
C14   C     C_R   0.435939 0.983944 0.495311 0.022015
C15   C     C_R   0.394130 0.061296 0.437965 0.020894
C16   C     C_R   0.145604 0.713032 0.487530 0.571566
C17   C     C_R   0.478231 0.166341 0.400881 -0.134530
C18   C     C_R   0.601675 0.194174 0.421533 -0.115690
C19   C     C_R   0.356371 0.867629 0.502224 0.211066
C20   C     C_R   0.187318 0.916408 0.435708 -0.179720
C21   C     C_R   0.769710 0.166598 0.527074 -0.039614
C22   C     C_R   0.353578 0.341216 0.653044 -0.154092
C23   C     C_R   0.784810 0.365582 0.038148 -0.070001
C24   C     C_R   0.765985 0.650741 0.380617 0.057073
C25   C     C_R   0.680654 0.695240 0.363794 -0.164077
C26   C     C_R   0.579925 0.644456 0.413040 -0.141851
C27   C     C_R   0.558505 0.543771 0.476124 -0.003607
C28   C     C_R   0.001016 0.500752 0.329176 0.618322
C29   C     C_R   0.654435 0.507901 0.496685 0.179402
C30   C     C_R   0.451001 0.482001 0.524134 0.000323
C31   C     C_R   0.451994 0.398207 0.600317 0.016627
C32   C     C_R   0.550072 0.369535 0.622581 -0.174503
C33   C     C_R   0.647446 0.421076 0.570548 -0.096348
C34   C     C_R   0.780051 0.370272 0.944093 0.237535
C35   C     C_R   0.339540 0.494156 0.498693 0.269211
C36   C     C_R   0.252208 0.364470 0.629336 0.022767
C37   C     C_R   0.104370 0.575537 0.187697 0.054713
C38   C     C_R   0.000988 0.500646 0.232188 0.082470
C39   C     C_R   0.894655 0.429421 0.183916 0.053638
C40   C     C_R   0.891348 0.432301 0.089243 -0.036661
C41   C     C_R   0.996684 0.504206 0.044715 0.005396
C42   C     C_R   0.886901 0.437251 0.899854 0.013000
C43   C     C_R   0.995091 0.504730 0.950624 0.028295
C44   C     C_R   0.102456 0.572404 0.907341 0.020108
C45   C     C_R   0.207561 0.642555 0.956198 -0.126924
C46   C     C_R   0.207981 0.645440 0.048095 -0.125440
Cu1   Cu    Cu3+1 0.098270 0.475420 0.521130 1.000607
Cu2   Cu    Cu3+1 0.901730 0.524580 0.478870 0.931044
H1    H     H_    0.448734 0.223216 0.350602 0.113161
H2    H     H_    0.694517 0.771324 0.314691 0.103467
H3    H     H_    0.717140 0.392169 0.592481 0.181155
H4    H     H_    0.702230 0.311065 0.070017 0.142758
H5    H     H_    0.811446 0.382714 0.766555 0.110365
H6    H     H_    0.185562 0.620159 0.782011 0.121523
H7    H     H_    0.289724 0.695713 0.923149 0.117533
H8    H     H_    0.291290 0.701894 0.082703 0.111929
H9    H     H_    0.091327 0.892491 0.414565 0.134595
H10   H     H_    0.283765 0.642658 0.234451 0.225787
H11   H     H_    0.220544 0.736897 0.207228 0.226262
H12   H     H_    0.236141 0.088657 0.371462 0.122895
H13   H     H_    0.482372 0.818346 0.500883 0.313393
H14   H     H_    0.435754 0.890784 0.671760 0.251701
H15   H     H_    0.505888 0.803129 0.677755 0.270075
H16   H     H_    0.736276 0.935062 0.774501 0.260424
H17   H     H_    0.734212 0.850646 0.703573 0.239324
H18   H     H_    0.718160 0.374615 0.205485 0.228593
H19   H     H_    0.768630 0.270634 0.225131 0.223628
H20   H     H_    0.349166 0.534183 0.359993 0.202047
H21   H     H_    0.340892 0.635945 0.412423 0.265549
H22   H     H_    0.661357 0.349677 0.837341 0.315594
H23   H     H_    0.904489 0.122600 0.618415 0.152658
H24   H     H_    0.662078 0.268634 0.380973 0.176176
H25   H     H_    0.176797 0.322038 0.670671 0.127242
H26   H     H_    0.550409 0.304342 0.679827 0.120830
H27   H     H_    0.355100 0.278880 0.712366 0.115684
H28   H     H_    0.845907 0.691989 0.344009 0.130013
H29   H     H_    0.524990 0.690083 0.403619 0.109420
N1    N     N_R   0.246280 0.438190 0.553160 -0.203470
N2    N     N_R   0.754320 0.561190 0.447410 -0.239150
N3    N     N_3   0.206609 0.654364 0.237966 -0.634151
N4    N     N_3   0.519050 0.885451 0.681327 -0.630163
N5    N     N_3   0.769294 0.934717 0.715437 -0.625737
N6    N     N_3   0.791428 0.354278 0.232803 -0.645079
N7    N     N_3   0.313987 0.550047 0.410832 -0.555875
O1    O     O_R   0.972510 0.318130 0.526570 -0.511164
O2    O     O_3   0.669530 0.307104 0.898859 -0.707755
O3    O     O_R   0.806530 0.359650 0.490890 -0.528892
O4    O     O_R   0.082980 0.479210 0.647590 -0.507771
O5    O     O_R   0.917000 0.520730 0.611900 -0.520540
O6    O     O_R   0.193470 0.640350 0.509110 -0.424236
O7    O     O_R   0.027490 0.681870 0.473430 -0.530125
O8    O     O_R   0.083000 0.479270 0.388100 -0.452080
O9    O     O_R   0.917020 0.520790 0.352410 -0.499821
O10   O     O_3   0.401508 0.786239 0.523714 -0.714874

loop_
_geom_bond_atom_site_label_1
_geom_bond_atom_site_label_2
_ccdc_geom_bond_type
C1    O3    A    
C1    C21   S    
C27   C29   A    
Cu1   O8    S    
C34   C42   A    
H17   N5    S    
C45   C46   A    
H19   N6    S    
C26   C27   A    
C37   C38   A    
C30   C35   A    
H15   N4    S    
C16   O6    A    
Cu1   O1    S    
Cu2   N2    S    
C32   H26   S    
C30   C31   A    
C11   C14   A    
C23   C40   A    
C29   C33   A    
C34   O2    S    
C12   C37   A    
C25   H2    S    
H18   N6    S    
Cu1   Cu2   S    
C8    C9    A    
Cu2   O7    S    
C9    C10   A    
H10   N3    S    
C9    N5    S    
C6    C15   A    
C27   C30   A    
C1    O1    A    
C41   C43   A    
C22   H27   S    
C8    C21   A    
C18   H24   S    
C37   N3    S    
C26   H29   S    
Cu2   O9    S    
H20   N7    S    
C6    H12   S    
C5    H6    S    
C24   C25   A    
C12   C46   A    
C22   C31   A    
C17   H1    S    
C39   C40   A    
H13   O10   S    
C24   H28   S    
C25   C26   A    
C28   O9    A    
C43   C44   A    
C12   C41   A    
C24   N2    A    
C31   C32   A    
C29   N2    A    
C28   C38   S    
C23   C34   A    
C17   C18   A    
Cu2   O3    S    
C13   C21   A    
C28   O8    A    
H16   N5    S    
C19   O10   S    
C13   C18   A    
C40   C41   A    
H14   N4    S    
C7    C19   A    
Cu2   O5    S    
Cu1   O6    S    
C42   C43   A    
C3    C4    S    
H22   O2    S    
C6    C20   A    
C44   C45   A    
C4    O5    A    
C15   C17   A    
C7    C16   S    
C8    H23   S    
C10   N4    S    
C14   C19   A    
C5    C44   A    
C3    C5    A    
C2    H5    S    
H11   N3    S    
C35   N7    S    
C4    O4    A    
C33   H3    S    
C22   C36   A    
C35   N1    A    
C32   C33   A    
C2    C3    A    
C39   N6    S    
H21   N7    S    
C36   N1    A    
Cu1   O4    S    
C11   C13   A    
C23   H4    S    
C38   C39   A    
C2    C42   A    
C10   C11   A    
C45   H7    S    
C16   O7    A    
C7    C20   A    
C46   H8    S    
C14   C15   A    
Cu1   N1    S    
C20   H9    S    
C36   H25   S    
