data_mof_unit_4010.cif
_audit_creation_date              2012-12-11T18:45:04-0500
_audit_creation_method            fapswitch 2.2
_symmetry_space_group_name_H-M    P1
_symmetry_Int_Tables_number       1
_space_group_crystal_system       triclinic
_cell_length_a                    8.24731
_cell_length_b                    14.426798
_cell_length_c                    18.822061
_cell_angle_alpha                 96.596602
_cell_angle_beta                  91.277637
_cell_angle_gamma                 92.181945
_cell_volume                      2222.24975776

loop_
_atom_site_label
_atom_site_type_symbol
_atom_type_description
_atom_site_fract_x
_atom_site_fract_y
_atom_site_fract_z
_atom_type_partial_charge
Ba1   Ba    Ba6+2 0.843240 0.541620 0.463500 1.649278
Ba2   Ba    Ba6+2 0.346570 0.458460 0.536510 1.646908
C1    C     C_3   0.603400 0.860559 0.221338 -0.009869
C2    C     C_R   0.918129 0.408515 0.101659 0.032795
C3    C     C_R   0.761453 0.373213 0.083230 -0.078882
C4    C     C_3   0.123218 0.762104 0.254943 0.173738
C5    C     C_R   0.697223 0.377529 0.015115 -0.094867
C6    C     C_R   0.791824 0.412074 0.961557 0.022475
C7    C     C_R   0.945699 0.453519 0.980572 -0.012809
C8    C     C_R   0.737856 0.400434 0.889221 0.151270
C9    C     C_R   0.826506 0.443503 0.836098 -0.051473
C10   C     C_R   0.976111 0.493500 0.857365 -0.031971
C11   C     C_R   0.036019 0.495988 0.929472 -0.010289
C12   C     C_3   0.556351 0.769138 0.252155 0.340996
C13   C     C_R   0.773305 0.438992 0.762779 -0.012965
C14   C     C_R   0.872583 0.479481 0.713183 -0.306067
C15   C     C_R   0.016365 0.532292 0.733145 0.046190
C16   C     C_3   0.182898 0.837227 0.208373 0.253347
C17   C     C_R   0.067901 0.540168 0.807052 -0.026739
C18   C     C_R   0.161630 0.494006 0.071934 -0.010729
C19   C     C_R   0.220763 0.495637 0.143800 0.020627
C20   C     C_R   0.126832 0.452467 0.194645 -0.049347
C21   C     C_R   0.980770 0.404597 0.170871 -0.051051
C22   C     C_R   0.209527 0.592717 0.832529 -0.038667
C23   C     C_3   0.506514 0.312031 0.321458 0.297198
C24   C     C_R   0.271023 0.591968 0.902937 0.029677
C25   C     C_R   0.186178 0.541741 0.951161 0.017592
C26   C     C_R   0.249594 0.539903 0.022006 0.009123
C27   C     C_R   0.416670 0.641110 0.926264 -0.084302
C28   C     C_3   0.130190 0.756151 0.618765 0.319967
C29   C     C_R   0.482219 0.636153 0.994853 -0.083270
C30   C     C_R   0.399504 0.585892 0.043288 0.029866
C31   C     C_R   0.371095 0.542618 0.164976 -0.027965
C32   C     C_R   0.461509 0.584408 0.113352 -0.109164
C33   C     C_R   0.422674 0.549370 0.237805 -0.038054
C34   C     C_3   0.534070 0.292372 0.241807 -0.388578
C35   C     C_R   0.323402 0.512068 0.288052 -0.312361
C36   C     C_R   0.177684 0.462427 0.268121 0.039028
C37   C     C_R   0.699324 0.939910 0.533961 -0.080747
C38   C     C_R   0.511666 0.802526 0.497763 0.017375
C39   C     C_R   0.369320 0.767263 0.460223 -0.237791
C40   C     C_3   0.087061 0.856170 0.643994 -0.065407
C41   C     C_R   0.269273 0.825008 0.425500 -0.077547
C42   C     C_R   0.317192 0.918239 0.423120 -0.172729
C43   C     C_R   0.461737 0.955381 0.458108 0.016468
C44   C     C_R   0.559693 0.898382 0.496806 -0.024566
C45   C     C_3   0.097871 0.261733 0.741151 0.381289
C46   C     C_R   0.642586 0.091675 0.495419 -0.029333
C47   C     C_R   0.741065 0.035414 0.533758 0.009550
C48   C     C_R   0.685439 0.187959 0.496998 0.007475
C49   C     C_R   0.824269 0.225848 0.534888 -0.287537
C50   C     C_R   0.925614 0.169760 0.569444 0.010061
C51   C     C_R   0.880080 0.075928 0.571836 -0.153069
C52   C     C_3   0.997406 0.247836 0.384909 0.312833
C53   C     C_R   0.504606 0.050338 0.457388 -0.080809
C54   C     C_3   0.058293 0.148481 0.384244 -0.059402
C55   C     C_3   0.559342 0.779784 0.683064 0.528676
C56   C     C_3   0.142499 0.244870 0.817886 -0.025837
C57   C     C_3   0.626747 0.875082 0.718783 0.202322
C58   C     C_3   0.290508 0.975194 0.618687 -0.240312
C59   C     C_3   0.209811 0.108392 0.274094 -0.137610
C60   C     C_3   0.617596 0.646667 0.751396 -0.067375
C61   C     C_3   0.738622 0.952259 0.325546 -0.128248
C62   C     C_3   0.085883 0.074565 0.806240 -0.166451
C63   C     C_3   0.968038 0.680455 0.146409 -0.078280
C64   C     C_3   0.645580 0.238262 0.873313 -0.178172
C65   C     C_3   0.590721 0.214359 0.685452 0.392489
C66   C     C_3   0.590690 0.116241 0.707363 -0.398643
C67   C     C_R   0.009073 0.451778 0.051257 0.002456
Cl1   Cl    Cl    0.790091 0.866011 0.781051 -0.759255
Cl2   Cl    Cl    0.027838 0.900738 0.170870 -0.741234
H1    H     H_    0.515694 0.783371 0.308180 -0.051714
H2    H     H_    0.671588 0.917404 0.677503 0.000182
H3    H     H_    0.455841 0.734786 0.217967 -0.153508
H4    H     H_    0.516944 0.871780 0.177449 0.051873
H5    H     H_    0.375619 0.321034 0.330481 0.015093
H6    H     H_    0.576161 0.377901 0.340677 0.072331
H7    H     H_    0.470789 0.226135 0.219062 0.116279
H8    H     H_    0.488670 0.350223 0.213820 0.060452
H9    H     H_    0.665834 0.285808 0.233023 0.123284
H10   H     H_    0.722349 0.855718 0.196017 0.187330
H11   H     H_    0.254603 0.805093 0.163587 0.032617
H12   H     H_    0.953616 0.859453 0.646562 0.127329
H13   H     H_    0.140311 0.334222 0.734489 0.040811
H14   H     H_    0.964010 0.255237 0.733449 -0.062031
H15   H     H_    0.274566 0.234743 0.823604 0.123535
H16   H     H_    0.115228 0.308630 0.853883 0.026344
H17   H     H_    0.718034 0.236975 0.676752 -0.085780
H18   H     H_    0.519617 0.212505 0.634597 0.096852
H19   H     H_    0.699174 0.107337 0.741425 0.120970
H20   H     H_    0.593783 0.065274 0.659071 0.066030
H21   H     H_    0.479754 0.101281 0.736976 0.132576
H22   H     H_    0.687157 0.342741 0.121585 0.069428
H23   H     H_    0.135640 0.877913 0.699401 0.142759
H24   H     H_    0.573947 0.350457 0.004607 0.073170
H25   H     H_    0.832207 0.474109 0.657750 0.082101
H26   H     H_    0.910343 0.366729 0.206404 0.099080
H27   H     H_    0.274699 0.633504 0.797470 0.104449
H28   H     H_    0.480290 0.684345 0.891954 0.079724
H29   H     H_    0.595927 0.673815 0.010650 0.079749
H30   H     H_    0.577810 0.619419 0.127708 0.080225
H31   H     H_    0.233793 0.740929 0.282468 0.329907
H32   H     H_    0.363428 0.518513 0.343578 0.073974
H33   H     H_    0.330856 0.694947 0.461561 0.059934
H34   H     H_    0.864038 0.243849 0.380825 0.001151
H35   H     H_    0.238635 0.962458 0.396226 0.088398
H36   H     H_    0.950925 0.035875 0.604557 0.112629
H37   H     H_    0.857480 0.299171 0.535048 0.063985
H38   H     H_    0.776565 0.898829 0.563443 0.091501
H39   H     H_    0.428717 0.091545 0.427157 0.087028
H40   H     H_    0.261187 0.889240 0.242276 -0.018739
H41   H     H_    0.241445 0.753289 0.587406 -0.046478
H42   H     H_    0.032965 0.722805 0.583452 0.089039
H43   H     H_    0.130520 0.898767 0.542083 0.218568
H44   H     H_    0.394076 0.930339 0.623334 0.059944
H45   H     H_    0.038213 0.288005 0.436470 0.018748
H46   H     H_    0.270834 0.017092 0.670598 0.135930
H47   H     H_    0.320037 0.022691 0.578850 0.167663
H48   H     H_    0.956772 0.103466 0.281898 0.236746
H49   H     H_    0.316454 0.094236 0.307524 0.097896
H50   H     H_    0.223424 0.178993 0.257038 0.122388
H51   H     H_    0.206600 0.057802 0.225266 0.162635
H52   H     H_    0.459253 0.754536 0.781597 0.172039
H53   H     H_    0.738915 0.675407 0.771237 0.129209
H54   H     H_    0.565267 0.605698 0.791941 0.064067
H55   H     H_    0.629757 0.598177 0.701867 0.114948
H56   H     H_    0.977490 0.108432 0.417047 0.029210
H57   H     H_    0.493478 0.954975 0.297185 0.179928
H58   H     H_    0.739205 0.022846 0.355682 0.081256
H59   H     H_    0.854943 0.945625 0.297767 0.207789
H60   H     H_    0.727117 0.899042 0.363265 0.147563
H61   H     H_    0.047829 0.168641 0.895569 0.203478
H62   H     H_    0.024672 0.020356 0.834687 0.169837
H63   H     H_    0.218635 0.064046 0.807801 0.092794
H64   H     H_    0.038388 0.065384 0.750150 0.144533
H65   H     H_    0.010318 0.629338 0.244955 0.237339
H66   H     H_    0.907515 0.611487 0.129046 0.080280
H67   H     H_    0.180278 0.151392 0.410286 0.107534
H68   H     H_    0.052688 0.697143 0.104252 0.103928
H69   H     H_    0.872325 0.731839 0.151857 0.178892
H70   H     H_    0.497434 0.353305 0.891511 0.187608
H71   H     H_    0.538921 0.191746 0.855447 0.118499
H72   H     H_    0.679062 0.224745 0.928384 0.094271
H73   H     H_    0.748316 0.220106 0.838188 0.136100
H74   H     H_    0.450025 0.792754 0.652448 -0.113989
H75   H     H_    0.528494 0.913108 0.747463 0.021087
N1    N     N_2   0.146009 0.919752 0.595836 -0.473204
N2    N     N_2   0.060951 0.099148 0.312498 -0.411322
N3    N     N_2   0.511417 0.720529 0.737145 -0.398776
N4    N     N_2   0.603977 0.941532 0.274670 -0.438738
N5    N     N_2   0.050319 0.166237 0.840610 -0.447474
N6    N     N_2   0.056264 0.677354 0.213555 -0.449720
N7    N     N_2   0.606916 0.335068 0.869673 -0.402390
O1    O     O_2   0.887710 0.436190 0.327560 -0.468150
O2    O     O_2   0.258895 0.175782 0.559618 -0.502740
O3    O     O_3   0.174816 0.197529 0.692401 -0.605596
O4    O     O_3   0.135370 0.443490 0.416520 -0.487952
O5    O     O_3   0.551980 0.615210 0.532020 -0.461851
O6    O     O_2   0.394410 0.269100 0.474240 -0.459684
O7    O     O_3   0.558388 0.235987 0.354920 -0.649610
O8    O     O_2   0.426237 0.446205 0.757317 -0.491071
O9    O     O_3   0.518222 0.274015 0.738678 -0.574912
O10   O     O_3   0.634420 0.609440 0.364670 -0.460642
O11   O     O_2   0.755942 0.535102 0.244632 -0.490947
O12   O     O_3   0.677515 0.736778 0.639370 -0.623080
O13   O     O_3   0.054130 0.287496 0.325398 -0.647210
O14   O     O_3   0.688061 0.710355 0.249156 -0.564031
O15   O     O_2   0.795290 0.730930 0.525800 -0.461851
O16   O     O_3   0.044470 0.660110 0.398750 -0.480079
O17   O     O_2   0.934161 0.826378 0.439030 -0.486377
O18   O     O_3   0.009002 0.798944 0.304311 -0.542941
O19   O     O_2   0.301980 0.563840 0.672490 -0.448698
O20   O     O_3   0.054330 0.556590 0.583490 -0.500179
O21   O     O_3   0.555270 0.390630 0.635330 -0.472801
O22   O     O_3   0.151699 0.711380 0.679684 -0.636304
O23   O     O_3   0.637720 0.384870 0.467990 -0.477337
O24   O     O_3   0.145220 0.339960 0.601250 -0.473403
P1    P     P_3+3 0.061800 0.409390 0.339760 0.967615
P2    P     P_3+3 0.622760 0.718740 0.547830 0.981412
P3    P     P_3+3 0.065853 0.779444 0.392005 0.914319
P4    P     P_3+3 0.127890 0.590690 0.660240 1.003257
P5    P     P_3+3 0.123360 0.219974 0.605516 0.936303
P6    P     P_3+3 0.622494 0.601054 0.271931 0.954662
P7    P     P_3+3 0.572376 0.267747 0.447433 0.923856
P8    P     P_3+3 0.569687 0.389662 0.726615 0.973761

loop_
_geom_bond_atom_site_label_1
_geom_bond_atom_site_label_2
_ccdc_geom_bond_type
C46   C53   A    
H52   N3    S    
Ba1   O23   S    
C36   P1    S    
C60   N3    S    
C55   H74   S    
C60   H54   S    
O5    P2    S    
C56   H16   S    
C60   H53   S    
O2    P5    D    
C5    C6    A    
C43   C44   A    
C56   N5    S    
C38   C44   A    
C13   P8    S    
Ba1   O20   S    
C65   H17   S    
C23   H6    S    
C45   H14   S    
C57   Cl1   S    
Ba1   O5    S    
C33   C35   A    
C59   N2    S    
C50   P5    S    
H43   N1    S    
Ba2   O20   S    
C61   H58   S    
C55   C57   S    
C19   C31   A    
C45   O3    S    
C33   P6    S    
C13   C14   A    
C20   C36   A    
C65   H18   S    
C66   H20   S    
C59   H50   S    
Ba1   Ba2   S    
C61   H59   S    
C7    C11   A    
O8    P8    D    
Ba2   O23   S    
C63   H69   S    
C9    C13   A    
O19   P4    D    
O14   P6    S    
C66   H21   S    
C14   C15   A    
C52   H45   S    
C1    H10   S    
C66   H19   S    
C58   H47   S    
O13   P1    S    
C58   N1    S    
C61   H60   S    
O6    P7    D    
C1    H4    S    
C57   H2    S    
O16   P3    S    
O22   P4    S    
C4    N6    S    
C46   C48   A    
C62   H64   S    
O20   P4    S    
C19   C20   A    
C59   H49   S    
C39   C41   A    
C52   O13   S    
C40   N1    S    
C56   H15   S    
C8    N7    S    
C2    C67   A    
H65   N6    S    
C48   C49   A    
C62   H63   S    
C4    O18   S    
C4    C16   S    
C52   C54   S    
C41   P3    S    
C14   H25   S    
C32   H30   S    
C27   H28   S    
C62   N5    S    
O10   P6    S    
C65   C66   S    
C26   C30   A    
C16   H40   S    
C34   H9    S    
C60   H55   S    
C2    C21   A    
O3    P5    S    
C6    C7    A    
C64   H72   S    
C18   C26   A    
Ba1   O15   S    
H48   N2    S    
C45   H13   S    
C54   H56   S    
C49   C50   A    
C28   H41   S    
C59   H51   S    
Ba2   P4    S    
C30   C32   A    
C54   N2    S    
C41   C42   A    
C61   N4    S    
C35   C36   A    
C64   N7    S    
C38   P2    S    
C54   H67   S    
Ba1   P1    S    
C51   H36   S    
C3    H22   S    
C29   C30   A    
Ba2   O5    S    
C23   O7    S    
C31   C32   A    
C24   C25   A    
C58   H46   S    
C29   H29   S    
C10   C11   A    
Ba1   O10   S    
C1    C12   S    
C37   C44   A    
C55   N3    S    
C46   C47   A    
Ba2   O24   S    
C49   H37   S    
C16   H11   S    
O1    P1    D    
C53   H39   S    
O12   P2    S    
C22   H27   S    
O18   P3    S    
Ba2   O6    S    
C15   C17   A    
C12   H3    S    
C28   O22   S    
C42   C43   A    
C3    C5    A    
H57   N4    S    
C16   Cl2   S    
O23   P7    S    
C62   H62   S    
C38   C39   A    
C1    N4    S    
C52   H34   S    
C21   H26   S    
C40   H23   S    
C12   H1    S    
C6    C8    A    
C48   P7    S    
C40   H12   S    
C22   C24   A    
C2    C3    A    
C58   H44   S    
C34   H8    S    
O9    P8    S    
C35   H32   S    
C9    C10   A    
C37   C47   A    
C64   H71   S    
C42   H35   S    
O15   P2    D    
C5    H24   S    
C39   H33   S    
C23   H5    S    
C7    C67   A    
C63   N6    S    
Ba1   O4    S    
C17   C22   A    
C63   H66   S    
O21   P8    S    
O11   P6    D    
C34   H7    S    
Ba2   O21   S    
C45   C56   S    
Ba1   P2    S    
C65   O9    S    
H70   N7    S    
Ba2   O4    S    
C47   C51   A    
C10   C17   A    
Ba1   O16   S    
C31   C33   A    
C28   C40   S    
O4    P1    S    
C4    H31   S    
Ba1   O1    S    
C18   C67   A    
Ba2   O19   S    
C8    C9    A    
C23   C34   S    
C63   H68   S    
C57   H75   S    
C15   P4    S    
C37   H38   S    
C64   H73   S    
C18   C19   A    
C43   C53   A    
C24   C27   A    
C27   C29   A    
O17   P3    D    
C25   C26   A    
H61   N5    S    
C20   C21   A    
C11   C25   A    
C55   O12   S    
C12   O14   S    
O7    P7    S    
O24   P5    S    
C50   C51   A    
C28   H42   S    
