data_mof_unit_103.cif
_audit_creation_date              2012-12-11T15:27:38-0500
_audit_creation_method            fapswitch 2.2
_symmetry_space_group_name_H-M    P1
_symmetry_Int_Tables_number       1
_space_group_crystal_system       triclinic
_cell_length_a                    23.151905
_cell_length_b                    7.296955
_cell_length_c                    15.111906
_cell_angle_alpha                 89.999332
_cell_angle_beta                  108.032531
_cell_angle_gamma                 89.996081
_cell_volume                      2427.58123151

loop_
_atom_site_label
_atom_site_type_symbol
_atom_type_description
_atom_site_fract_x
_atom_site_fract_y
_atom_site_fract_z
_atom_type_partial_charge
O1    O     O_R   0.711000 0.648610 0.341170 -0.535817
O2    O     O_R   0.289000 0.351390 0.658830 -0.535820
O3    O     O_R   0.789000 0.148610 0.158830 -0.535821
O4    O     O_R   0.211000 0.851390 0.841170 -0.535824
O5    O     O_R   0.829650 0.322030 0.336650 -0.537196
O6    O     O_R   0.170350 0.677970 0.663350 -0.537195
O7    O     O_R   0.670350 0.822030 0.163350 -0.537195
O8    O     O_R   0.329650 0.177970 0.836650 -0.537194
C1    C     C_R   0.854282 0.485805 0.356746 0.726733
C2    C     C_R   0.145717 0.514195 0.643254 0.726732
C3    C     C_R   0.645718 0.985815 0.143255 0.726746
C4    C     C_R   0.354282 0.014185 0.856745 0.726748
O9    O     O_R   0.713950 0.319280 0.352070 -0.533305
O10   O     O_R   0.286050 0.680720 0.647930 -0.533303
O11   O     O_R   0.786050 0.819280 0.147930 -0.533317
O12   O     O_R   0.213950 0.180720 0.852070 -0.533314
O13   O     O_R   0.672470 0.142870 0.174360 -0.532569
O14   O     O_R   0.327530 0.857130 0.825640 -0.532569
O15   O     O_R   0.827530 0.642870 0.325640 -0.532552
O16   O     O_R   0.172470 0.357130 0.674360 -0.532555
C5    C     C_R   0.701686 0.487454 0.376021 0.692425
C6    C     C_R   0.298315 0.512546 0.623980 0.692426
C7    C     C_R   0.798311 0.987450 0.123974 0.692408
C8    C     C_R   0.201687 0.012550 0.876024 0.692405
O17   O     O_3   0.736530 0.478650 0.191680 -0.377396
O18   O     O_3   0.263470 0.521350 0.808320 -0.377396
O19   O     O_3   0.763470 0.978650 0.308320 -0.377374
O20   O     O_3   0.236530 0.021350 0.691680 -0.377375
V1    V     V_3+5 0.752500 0.206170 0.260820 1.499242
V2    V     V_3+5 0.247500 0.793830 0.739180 1.499239
V3    V     V_3+5 0.747500 0.706170 0.239180 1.499221
V4    V     V_3+5 0.252500 0.293830 0.760820 1.499219
C9    C     C_R   0.827557 0.995206 0.051262 -0.041432
C10   C     C_R   0.172439 0.004795 0.948734 -0.041430
C11   C     C_R   0.672439 0.495225 0.448728 -0.041419
C12   C     C_R   0.327563 0.504772 0.551274 -0.041415
C13   C     C_R   0.821050 0.006118 0.888483 -0.018591
C14   C     C_R   0.178948 0.993805 0.111512 -0.018612
C15   C     C_R   0.678948 0.506397 0.611500 -0.018532
C16   C     C_R   0.321052 0.493531 0.388502 -0.018551
C17   C     C_R   0.793084 0.988562 0.957872 -0.182417
C18   C     C_R   0.206913 0.011379 0.042125 -0.182411
C19   C     C_R   0.706917 0.488789 0.542119 -0.182375
C20   C     C_R   0.293084 0.511170 0.457882 -0.182377
C21   C     C_R   0.890562 0.000559 0.076031 -0.166710
C22   C     C_R   0.109434 0.999475 0.923965 -0.166717
C23   C     C_R   0.609432 0.500432 0.423960 -0.166682
C24   C     C_R   0.390569 0.499569 0.576041 -0.166687
C25   C     C_R   0.920655 0.996237 0.007966 0.046495
C26   C     C_R   0.079341 0.003784 0.992030 0.046515
C27   C     C_R   0.579342 0.496219 0.492030 0.046493
C28   C     C_R   0.420659 0.503765 0.507969 0.046506
C29   C     C_R   0.885511 0.027130 0.913592 0.006823
C30   C     C_R   0.114484 0.972855 0.086404 0.006827
C31   C     C_R   0.614482 0.527308 0.586387 0.006809
C32   C     C_R   0.385519 0.472650 0.413614 0.006816
C33   C     C_R   0.985032 0.973607 0.032507 -0.041996
C34   C     C_R   0.014963 0.026418 0.967489 -0.041993
C35   C     C_R   0.514970 0.473523 0.467506 -0.041977
C36   C     C_R   0.485031 0.526462 0.532494 -0.041975
C37   C     C_R   0.979720 0.106854 0.881753 -0.117528
C38   C     C_R   0.020272 0.893165 0.118241 -0.117519
C39   C     C_R   0.520261 0.607072 0.618182 -0.117521
C40   C     C_R   0.479743 0.392908 0.381819 -0.117513
C41   C     C_R   0.915941 0.091770 0.851479 0.323022
C42   C     C_R   0.084051 0.908231 0.148516 0.323008
C43   C     C_R   0.584041 0.592042 0.648467 0.323056
C44   C     C_R   0.415962 0.407924 0.351533 0.323048
H1    H     H_    0.084430 0.986778 0.850837 0.113642
H2    H     H_    0.915567 0.013279 0.149158 0.113646
H3    H     H_    0.415579 0.487019 0.649174 0.113641
H4    H     H_    0.584422 0.512994 0.350826 0.113644
H5    H     H_    0.255877 0.025983 0.060759 0.142152
H6    H     H_    0.744123 0.973910 0.939237 0.142168
H7    H     H_    0.244117 0.525688 0.439246 0.142108
H8    H     H_    0.755882 0.474250 0.560756 0.142121
C45   C     C_1   0.416766 0.006921 0.918694 -0.136886
C46   C     C_1   0.583234 0.993079 0.081306 -0.136885
C47   C     C_1   0.083233 0.506946 0.581306 -0.136864
C48   C     C_1   0.916766 0.493054 0.418696 -0.136863
C49   C     C_1   0.469151 0.002370 0.969947 0.056372
C50   C     C_1   0.530849 0.997630 0.030053 0.056371
C51   C     C_1   0.030848 0.502383 0.530054 0.056409
C52   C     C_1   0.969151 0.497618 0.469949 0.056408
Cl1   Cl    Cl    0.875949 0.186185 0.740999 -0.648079
Cl2   Cl    Cl    0.124033 0.813804 0.258997 -0.648072
Cl3   Cl    Cl    0.624013 0.686593 0.758917 -0.648108
Cl4   Cl    Cl    0.375996 0.313377 0.241081 -0.648103
C53   C     C_1   0.781959 0.988118 0.793627 0.473507
N1    N     N_1   0.750227 0.972876 0.717924 -0.287612
C54   C     C_1   0.218049 0.011665 0.206369 0.473514
N2    N     N_1   0.249790 0.026786 0.282075 -0.287618
C55   C     C_1   0.718044 0.488536 0.706361 0.473474
N3    N     N_1   0.749783 0.473397 0.782068 -0.287697
C56   C     C_1   0.281947 0.511287 0.293641 0.473467
N4    N     N_1   0.250202 0.526336 0.217933 -0.287708
C57   C     C_1   0.007137 0.228697 0.830095 0.419237
N5    N     N_1   0.028803 0.326450 0.788929 -0.342157
C58   C     C_1   0.992851 0.771323 0.169896 0.419244
N6    N     N_1   0.971184 0.673570 0.211060 -0.342148
C59   C     C_1   0.492819 0.729008 0.669770 0.419246
N7    N     N_1   0.471125 0.826826 0.710872 -0.342160
C60   C     C_1   0.507188 0.270974 0.330234 0.419249
N8    N     N_1   0.528883 0.173156 0.289133 -0.342157

loop_
_geom_bond_atom_site_label_1
_geom_bond_atom_site_label_2
_ccdc_geom_bond_type
O17   V3    S    
C40   C60   S    
O1    C5    A    
C55   N3    T    
O19   V1    S    
C9    C21   A    
O3    C7    A    
C56   N4    T    
C10   C18   A    
C39   C59   S    
O15   V3    S    
C57   N5    T    
C25   C33   A    
C33   C38   A    
O7    C3    A    
C35   C40   A    
C26   C30   A    
C36   C39   A    
C40   C44   A    
O9    V1    S    
C42   Cl2   S    
C14   C18   A    
O4    C8    A    
O1    V3    S    
O13   V1    S    
O2    V4    S    
O3    V1    S    
C15   C55   S    
C22   H1    S    
C28   C36   A    
C17   H6    S    
C1    O15   A    
C15   C31   A    
C58   N6    T    
C2    O16   A    
C7    C9    S    
O2    C6    A    
C10   C22   A    
C45   C49   T    
C11   C19   A    
C16   C20   A    
C48   C52   T    
C13   C29   A    
C34   C37   A    
O11   C7    A    
C11   C23   A    
C35   C36   A    
O12   C8    A    
O10   V2    S    
C49   C50   S    
O5    V1    S    
C39   C43   A    
O7    V3    S    
C38   C42   A    
O8    V4    S    
C59   N7    T    
C54   N2    T    
O18   V4    S    
C23   C27   A    
C16   C32   A    
C32   C44   A    
C14   C54   S    
C8    C10   S    
C1    C48   S    
C26   C34   A    
C20   H7    S    
O5    C1    A    
C3    C46   S    
C46   C50   T    
C31   C43   A    
C51   C52   S    
C14   C30   A    
C21   C25   A    
O8    C4    A    
C4    C45   S    
O9    C5    A    
O11   V3    S    
O14   V2    S    
O6    V2    S    
C44   Cl4   S    
C12   C20   A    
C27   C35   A    
C24   H3    S    
C29   C41   A    
O16   V4    S    
C19   H8    S    
C3    O13   A    
C18   H5    S    
C21   H2    S    
C37   C57   S    
O6    C2    A    
C15   C19   A    
C2    C47   S    
C41   Cl1   S    
C30   C42   A    
O12   V4    S    
C6    C12   S    
C22   C26   A    
C43   Cl3   S    
C13   C53   S    
C9    C17   A    
O10   C6    A    
O20   V2    S    
C5    C11   S    
C47   C51   T    
C33   C34   A    
C25   C29   A    
C12   C24   A    
C27   C31   A    
C13   C17   A    
C23   H4    S    
C38   C58   S    
C37   C41   A    
C24   C28   A    
C4    O14   A    
C60   N8    T    
C16   C56   S    
C53   N1    T    
O4    V2    S    
C28   C32   A    
