data_mof_unit_3660.cif
_audit_creation_date              2012-12-10T17:19:58-0500
_audit_creation_method            fapswitch 2.2
_symmetry_space_group_name_H-M    P1
_symmetry_Int_Tables_number       1
_space_group_crystal_system       triclinic
_cell_length_a                    9.604604
_cell_length_b                    10.863348
_cell_length_c                    15.566959
_cell_angle_alpha                 85.342838
_cell_angle_beta                  73.715425
_cell_angle_gamma                 90.973693
_cell_volume                      1552.57509723

loop_
_atom_site_label
_atom_site_type_symbol
_atom_type_description
_atom_site_fract_x
_atom_site_fract_y
_atom_site_fract_z
_atom_type_partial_charge
C1    C     C_R   0.002366 0.263650 0.493303 0.770270
C2    C     C_R   0.654066 0.433179 0.900957 0.013723
C3    C     C_R   0.735755 0.357702 0.946388 0.045857
C4    C     C_R   0.502641 0.449552 0.943566 0.047872
C5    C     C_R   0.447612 0.410270 0.036737 0.055422
C6    C     C_R   0.526016 0.324811 0.075437 -0.219386
C7    C     C_R   0.667702 0.300334 0.031794 -0.145104
C8    C     C_R   0.400344 0.495962 0.898635 -0.041521
C9    C     C_R   0.256532 0.511666 0.947182 -0.238509
C10   C     C_R   0.212342 0.493735 0.040535 0.129203
C11   C     C_R   0.310765 0.450613 0.087400 0.039248
C12   C     C_R   0.917276 0.492405 0.672182 0.813948
C13   C     C_R   0.070969 0.521091 0.087266 -0.158536
C14   C     C_R   0.029168 0.516158 0.180447 -0.194058
C15   C     C_R   0.272420 0.457675 0.182169 -0.089528
C16   C     C_R   0.274415 0.134175 0.420253 -0.207154
C17   C     C_R   0.404752 0.080375 0.420149 -0.260005
C18   C     C_R   0.403317 0.962561 0.464009 0.457235
C19   C     C_R   0.271530 0.894825 0.498063 -0.174249
C20   C     C_R   0.139409 0.943439 0.489439 0.010093
C21   C     C_R   0.140052 0.070741 0.463725 0.096024
C22   C     C_R   0.006556 0.130771 0.484446 -0.090395
C23   C     C_R   0.000585 0.737597 0.503978 0.819542
C24   C     C_R   0.875549 0.060990 0.509434 -0.218831
C25   C     C_R   0.875948 0.933338 0.516616 -0.185866
C26   C     C_R   0.006216 0.872517 0.506567 -0.107638
C27   C     C_R   0.697309 0.672450 0.369562 0.462844
C28   C     C_R   0.642423 0.746305 0.309152 -0.238268
C29   C     C_R   0.498687 0.742997 0.314661 -0.233399
C30   C     C_R   0.405370 0.665063 0.379667 -0.107520
C31   C     C_R   0.451644 0.582835 0.440276 0.165008
C32   C     C_R   0.602899 0.584025 0.438043 0.174234
C33   C     C_R   0.547682 0.418357 0.554390 -0.029501
C34   C     C_R   0.083028 0.497084 0.327801 0.803692
C35   C     C_R   0.399962 0.418761 0.554611 -0.002257
C36   C     C_R   0.868032 0.459124 0.770066 -0.184062
C37   C     C_R   0.129579 0.489639 0.228997 -0.113081
C38   C     C_R   0.883323 0.336945 0.905357 0.366348
C39   C     C_R   0.946693 0.380719 0.814753 0.286973
C40   C     C_R   0.728584 0.491905 0.816365 -0.301285
Cu1   Cu    Cu3+1 0.140660 0.499990 0.500010 0.948946
Cu2   Cu    Cu3+1 0.859340 0.500010 0.499990 0.991508
H1    H     H_    0.723909 0.236253 0.066013 0.196762
H2    H     H_    0.993150 0.549130 0.051474 0.145248
H3    H     H_    0.772126 0.104986 0.524256 0.165880
H4    H     H_    0.280132 0.225482 0.385837 0.185024
H5    H     H_    0.505987 0.132511 0.389103 0.143906
H6    H     H_    0.275577 0.807330 0.534953 0.194559
H7    H     H_    0.773029 0.881900 0.532624 0.201358
H8    H     H_    0.580981 0.351897 0.599600 0.139953
H9    H     H_    0.712472 0.810399 0.257462 0.138493
H10   H     H_    0.458462 0.802894 0.268620 0.160882
H11   H     H_    0.297194 0.673146 0.377571 0.205735
H12   H     H_    0.323204 0.352326 0.599861 0.151412
H13   H     H_    0.919278 0.539304 0.214197 0.178725
H14   H     H_    0.179053 0.543057 0.911817 0.162183
H15   H     H_    0.681176 0.564672 0.784385 0.187095
H16   H     H_    0.476785 0.272854 0.139383 0.153736
N1    N     N_R   0.648320 0.501210 0.499140 -0.191131
N2    N     N_R   0.352470 0.501290 0.499110 -0.202144
O1    O     O_R   0.118810 0.319640 0.500010 -0.595281
O2    O     O_R   0.881240 0.319660 0.500000 -0.591785
O3    O     O_R   0.055570 0.499980 0.629840 -0.558671
O4    O     O_R   0.818000 0.500010 0.629830 -0.571132
O5    O     O_R   0.118760 0.680340 0.500000 -0.628929
O6    O     O_R   0.881190 0.680360 0.499990 -0.507298
O7    O     O_R   0.182000 0.499990 0.370170 -0.605159
O8    O     O_R   0.944430 0.500020 0.370160 -0.521156
O9    O     O_3   0.528488 0.910345 0.473632 -0.751167
H17   H     H_    0.612087 0.968135 0.443401 0.313645
O10   O     O_3   0.842260 0.691041 0.359152 -0.702737
H18   H     H_    0.888238 0.756223 0.310449 0.292375
C41   C     C_1   0.383876 0.446779 0.228678 0.249447
N3    N     N_1   0.473606 0.437231 0.265031 -0.301929
O11   O     O_3   0.959705 0.266873 0.953661 -0.744228
H19   H     H_    0.063909 0.269349 0.919933 0.373019
O12   O     O_3   0.081555 0.340869 0.771124 -0.739347
H20   H     H_    0.075004 0.310943 0.713900 0.329349
C42   C     C_1   0.429256 0.517714 0.802645 0.257531
N4    N     N_1   0.450383 0.537067 0.725859 -0.272062

loop_
_geom_bond_atom_site_label_1
_geom_bond_atom_site_label_2
_ccdc_geom_bond_type
C16   C21   A    
C34   C37   S    
Cu1   Cu2   S    
C6    H16   S    
C19   C20   A    
Cu1   O1    S    
C4    C8    A    
C1    O2    A    
Cu1   O7    S    
O12   H20   S    
C24   H3    S    
C39   O12   S    
C23   O6    A    
C28   C29   A    
C5    C11   A    
C3    C7    A    
C38   C39   A    
C12   O4    A    
C28   H9    S    
C18   C19   A    
C41   N3    T    
C23   C26   S    
C15   C37   A    
C11   C15   A    
C3    C38   A    
C8    C9    A    
C8    C42   S    
C7    H1    S    
C12   C36   S    
C9    C10   A    
Cu2   O2    S    
C18   O9    S    
C14   H13   S    
C1    C22   S    
C33   N1    A    
C13   C14   A    
C35   H12   S    
Cu2   O8    S    
C38   O11   S    
C30   H11   S    
C36   C40   A    
C24   C25   A    
C34   O8    A    
C12   O3    A    
C19   H6    S    
C16   C17   A    
Cu1   O5    S    
C25   C26   A    
C35   N2    A    
C31   N2    A    
Cu2   N1    S    
C2    C4    A    
O11   H19   S    
C29   C30   A    
C31   C32   A    
C30   C31   A    
C17   C18   A    
C9    H14   S    
C15   C41   S    
C22   C24   A    
Cu1   O3    S    
C16   H4    S    
Cu2   O4    S    
C27   O10   S    
C40   H15   S    
C27   C32   A    
C36   C39   A    
C17   H5    S    
Cu1   N2    S    
C4    C5    A    
C10   C13   A    
C1    O1    A    
C34   O7    A    
C6    C7    A    
C23   O5    A    
C2    C3    A    
C33   H8    S    
O10   H18   S    
C14   C37   A    
C5    C6    A    
C20   C26   A    
C33   C35   A    
O9    H17   S    
C25   H7    S    
C10   C11   A    
C42   N4    T    
C2    C40   A    
C20   C21   A    
C27   C28   A    
Cu2   O6    S    
C32   N1    A    
C21   C22   A    
C13   H2    S    
C29   H10   S    
