data_mof_unit_4467.cif
_audit_creation_date              2012-12-10T19:19:37-0500
_audit_creation_method            fapswitch 2.2
_symmetry_space_group_name_H-M    P1
_symmetry_Int_Tables_number       1
_space_group_crystal_system       triclinic
_cell_length_a                    15.715329
_cell_length_b                    15.74531
_cell_length_c                    14.954357
_cell_angle_alpha                 90.628102
_cell_angle_beta                  88.408518
_cell_angle_gamma                 89.441235
_cell_volume                      3698.51002173

loop_
_atom_site_label
_atom_site_type_symbol
_atom_type_description
_atom_site_fract_x
_atom_site_fract_y
_atom_site_fract_z
_atom_type_partial_charge
C1    C     C_R   0.500871 0.337991 0.499535 0.914265
C2    C     C_3   0.532589 0.045692 0.405288 -0.159800
C3    C     C_3   0.793860 0.872103 0.542584 -0.914748
C4    C     C_3   0.674068 0.147725 0.612089 0.087662
C5    C     C_3   0.746872 0.196496 0.568207 -0.810136
C6    C     C_3   0.524167 0.947802 0.408710 -0.587105
C7    C     C_R   0.337443 0.499721 0.501121 0.909551
C8    C     C_1   0.501393 0.750740 0.502374 -0.219762
C9    C     C_3   0.505584 0.082911 0.499631 0.057942
C10   C     C_3   0.570110 0.949060 0.571982 0.858825
C11   C     C_3   0.498795 0.917697 0.505928 0.049604
C12   C     C_3   0.406367 0.954303 0.536064 0.369019
C13   C     C_3   0.411371 0.053538 0.520234 -0.308360
C14   C     C_1   0.500522 0.825957 0.504658 0.003681
C15   C     C_3   0.082779 0.503559 0.499610 0.063599
C16   C     C_1   0.506038 0.174508 0.497752 -0.009100
C17   C     C_1   0.503888 0.249594 0.498236 -0.208358
C18   C     C_3   0.490289 0.418904 0.052265 0.346612
C19   C     C_R   0.500843 0.662112 0.500496 0.910269
C20   C     C_3   0.611092 0.530990 0.047705 0.410029
C21   C     C_3   0.608115 0.515091 0.938277 0.414828
C22   C     C_3   0.514137 0.510470 0.089908 -0.146426
C23   C     C_3   0.478193 0.420717 0.949029 -0.506197
C24   C     C_3   0.509738 0.506020 0.909474 -0.073303
C25   C     C_3   0.443799 0.573701 0.950834 0.220132
C26   C     C_3   0.966935 0.516683 0.582110 -0.412367
C27   C     C_3   0.443039 0.578949 0.057772 0.303025
C28   C     C_1   0.501444 0.500821 0.809181 0.073626
C29   C     C_1   0.507179 0.504820 0.190777 -0.028331
C30   C     C_R   0.662489 0.500030 0.498804 0.910542
C31   C     C_3   0.971887 0.432681 0.461230 -0.229928
C32   C     C_3   0.032673 0.495825 0.413056 -0.330154
C33   C     C_1   0.248607 0.500205 0.503207 -0.179337
C34   C     C_1   0.751095 0.502986 0.496056 -0.209138
C35   C     C_3   0.022878 0.441912 0.547128 0.514895
C36   C     C_R   0.616227 0.080556 0.364827 0.239659
C37   C     C_3   0.916706 0.508911 0.494713 0.050646
C38   C     C_R   0.695494 0.037512 0.366928 -0.044220
C39   C     C_R   0.769577 0.075078 0.332639 -0.181330
C40   C     C_R   0.766133 0.155701 0.295179 -0.122323
C41   C     C_R   0.688325 0.198402 0.290716 -0.158082
C42   C     C_R   0.614014 0.160803 0.323785 -0.180758
C43   C     C_R   0.359737 0.111323 0.586779 0.198952
C44   C     C_R   0.374497 0.114505 0.679348 -0.066867
C45   C     C_R   0.329091 0.171157 0.735790 -0.194484
C46   C     C_R   0.268541 0.226087 0.701063 -0.091750
C47   C     C_R   0.252988 0.224278 0.609770 -0.129458
C48   C     C_3   0.027026 0.578268 0.531909 0.461104
C49   C     C_R   0.297896 0.167529 0.553132 -0.222468
C50   C     C_3   0.367973 0.857872 0.655167 0.183200
C51   C     C_3   0.291200 0.863148 0.719308 -0.891648
C52   C     C_3   0.576386 0.954331 0.735388 0.031273
C53   C     C_3   0.605294 0.892201 0.806143 -0.874925
C54   C     C_R   0.327371 0.922130 0.483962 0.079412
C55   C     C_R   0.246228 0.954560 0.510794 -0.125941
C56   C     C_R   0.172542 0.929257 0.468422 -0.166827
C57   C     C_R   0.177475 0.869771 0.399006 -0.086674
C58   C     C_R   0.256046 0.835067 0.372178 -0.113843
C59   C     C_3   0.976046 0.571611 0.446062 -0.016400
C60   C     C_R   0.330221 0.860423 0.414100 -0.218496
C61   C     C_3   0.520140 0.275646 0.082154 0.088983
C62   C     C_3   0.590163 0.209535 0.065881 -0.800481
C63   C     C_R   0.650574 0.622026 0.068792 -0.018220
C64   C     C_R   0.728308 0.630801 0.114820 -0.143824
C65   C     C_R   0.766665 0.709266 0.128605 -0.153301
C66   C     C_R   0.731710 0.782586 0.093926 -0.116076
C67   C     C_R   0.660564 0.776573 0.041642 -0.142111
C68   C     C_R   0.622419 0.697943 0.027768 -0.054429
C69   C     C_3   0.679036 0.450613 0.169476 0.208563
C70   C     C_1   0.173395 0.501272 0.502649 0.032212
C71   C     C_3   0.765527 0.409546 0.185795 -0.903086
C72   C     C_3   0.679838 0.412604 0.834854 0.160287
C73   C     C_3   0.663523 0.319886 0.812014 -0.881840
C74   C     C_R   0.664119 0.581030 0.885405 -0.028334
C75   C     C_R   0.633794 0.636362 0.819092 -0.160723
C76   C     C_R   0.689630 0.686638 0.768857 -0.123893
C77   C     C_R   0.776471 0.685437 0.784950 -0.122652
C78   C     C_R   0.807958 0.633225 0.851165 -0.147546
C79   C     C_R   0.752773 0.581349 0.900333 -0.113670
C80   C     C_R   0.347293 0.565831 0.092233 0.065505
C81   C     C_1   0.826179 0.506095 0.494544 -0.050408
C82   C     C_R   0.299546 0.491268 0.076264 -0.234557
C83   C     C_R   0.216504 0.481521 0.110500 -0.102240
C84   C     C_R   0.175465 0.547902 0.156512 -0.097632
C85   C     C_R   0.215947 0.625448 0.164148 -0.170801
C86   C     C_R   0.298884 0.635017 0.130075 -0.129599
C87   C     C_3   0.478762 0.682550 0.174526 0.136156
C88   C     C_3   0.472707 0.778137 0.191753 -0.893367
C89   C     C_R   0.955856 0.647187 0.389129 0.156497
C90   C     C_R   0.019879 0.680626 0.332738 -0.130781
C91   C     C_R   0.003296 0.751740 0.280624 -0.174060
C92   C     C_3   0.567423 0.050026 0.572126 0.240661
C93   C     C_R   0.923468 0.791439 0.286139 -0.132802
C94   C     C_R   0.859478 0.758880 0.342236 -0.152225
C95   C     C_R   0.875444 0.687088 0.393676 -0.171014
C96   C     C_3   0.376519 0.699361 0.904622 0.167326
C97   C     C_3   0.391471 0.793853 0.917851 -0.849012
C98   C     C_3   0.000071 0.701615 0.612922 0.113826
C99   C     C_3   0.032836 0.790901 0.628616 -0.828540
C100  C     C_3   0.984860 0.328840 0.635424 0.103734
C101  C     C_3   0.018617 0.253076 0.686257 -0.850567
C102  C     C_3   0.714875 0.903991 0.593796 0.172063
H1    H     H_    0.061381 0.486849 0.344892 0.160878
H2    H     H_    0.411390 0.408712 0.931414 0.107746
H3    H     H_    0.725450 0.225475 0.505165 0.263700
H4    H     H_    0.768293 0.247645 0.613722 0.187735
H5    H     H_    0.801384 0.152866 0.552646 0.255138
H6    H     H_    0.938272 0.524992 0.650379 0.140631
H7    H     H_    0.483734 0.066763 0.357299 0.122815
H8    H     H_    0.702159 0.975636 0.395375 0.176455
H9    H     H_    0.829933 0.041636 0.335615 0.124126
H10   H     H_    0.823653 0.184928 0.269281 0.128365
H11   H     H_    0.685268 0.260793 0.261603 0.141918
H12   H     H_    0.554445 0.195236 0.318277 0.128064
H13   H     H_    0.420101 0.073364 0.709314 0.141310
H14   H     H_    0.341134 0.172582 0.806711 0.123172
H15   H     H_    0.581995 0.913975 0.382900 0.220856
H16   H     H_    0.233778 0.270134 0.744873 0.134287
H17   H     H_    0.206370 0.267224 0.582634 0.181617
H18   H     H_    0.284837 0.168440 0.482436 0.128111
H19   H     H_    0.421117 0.827902 0.690982 0.196303
H20   H     H_    0.352440 0.814391 0.599185 0.135041
H21   H     H_    0.234955 0.888323 0.684691 0.256980
H22   H     H_    0.275917 0.798960 0.744753 0.213156
H23   H     H_    0.305034 0.905798 0.776595 0.261371
H24   H     H_    0.519531 0.988361 0.763323 0.171279
H25   H     H_    0.628113 0.000448 0.724610 0.107161
H26   H     H_    0.475477 0.929549 0.360335 0.175719
H27   H     H_    0.672872 0.873580 0.793770 0.228626
H28   H     H_    0.599768 0.922725 0.873369 0.213579
H29   H     H_    0.565813 0.834271 0.805650 0.277619
H30   H     H_    0.239222 0.998879 0.566164 0.162789
H31   H     H_    0.111358 0.955491 0.490034 0.127816
H32   H     H_    0.120264 0.850255 0.366565 0.133224
H33   H     H_    0.259586 0.787987 0.318823 0.120966
H34   H     H_    0.387918 0.829617 0.390736 0.137467
H35   H     H_    0.468023 0.261628 0.035263 0.114721
H36   H     H_    0.495219 0.270270 0.152174 0.130138
H37   H     H_    0.379428 0.064169 0.455637 0.125129
H38   H     H_    0.645758 0.224310 0.107189 0.260395
H39   H     H_    0.566209 0.145589 0.083559 0.195512
H40   H     H_    0.610725 0.209148 0.994276 0.247595
H41   H     H_    0.765414 0.577951 0.135835 0.161969
H42   H     H_    0.825928 0.712247 0.163222 0.151702
H43   H     H_    0.762059 0.843225 0.103950 0.120487
H44   H     H_    0.635735 0.832650 0.009828 0.127132
H45   H     H_    0.573504 0.697487 0.980248 0.231623
H46   H     H_    0.631996 0.402982 0.191656 0.193753
H47   H     H_    0.670782 0.507728 0.213096 0.112058
H48   H     H_    0.541295 0.074535 0.636804 -0.006602
H49   H     H_    0.818579 0.450279 0.162360 0.246774
H50   H     H_    0.772290 0.398142 0.258442 0.214484
H51   H     H_    0.770753 0.347782 0.149325 0.263581
H52   H     H_    0.749885 0.421279 0.833693 0.145002
H53   H     H_    0.653692 0.452292 0.781353 0.143843
H54   H     H_    0.594703 0.309224 0.802568 0.236937
H55   H     H_    0.698137 0.302492 0.748727 0.203876
H56   H     H_    0.686531 0.278434 0.866001 0.266426
H57   H     H_    0.567811 0.642240 0.803928 0.193580
H58   H     H_    0.665103 0.726490 0.716918 0.145094
H59   H     H_    0.511739 0.365905 0.916470 0.255149
H60   H     H_    0.819323 0.724797 0.745937 0.109660
H61   H     H_    0.875467 0.631929 0.863635 0.123154
H62   H     H_    0.779581 0.539700 0.949564 0.169458
H63   H     H_    0.321327 0.441132 0.032917 0.104118
H64   H     H_    0.182916 0.422921 0.098682 0.118735
H65   H     H_    0.110894 0.540603 0.182167 0.114185
H66   H     H_    0.182427 0.679208 0.194578 0.114904
H67   H     H_    0.322771 0.698692 0.131288 0.166319
H68   H     H_    0.543423 0.662941 0.193820 0.168537
H69   H     H_    0.432293 0.651475 0.220360 0.154095
H70   H     H_    0.947262 0.372788 0.432370 0.141975
H71   H     H_    0.407237 0.802354 0.181714 0.234227
H72   H     H_    0.490114 0.792311 0.261771 0.216568
H73   H     H_    0.516983 0.812282 0.146116 0.266509
H74   H     H_    0.082713 0.651725 0.329268 0.127179
H75   H     H_    0.052657 0.776660 0.236642 0.118118
H76   H     H_    0.910879 0.846922 0.246314 0.119707
H77   H     H_    0.797395 0.789338 0.345703 0.140649
H78   H     H_    0.825463 0.664324 0.437941 0.130100
H79   H     H_    0.327316 0.680420 0.955189 0.140876
H80   H     H_    0.350818 0.688065 0.837120 0.132079
H81   H     H_    0.381018 0.548720 0.929455 0.069623
H82   H     H_    0.424937 0.805477 0.981193 0.284782
H83   H     H_    0.430147 0.818660 0.861152 0.248158
H84   H     H_    0.329514 0.828367 0.921138 0.201426
H85   H     H_    0.986737 0.672158 0.679047 0.137285
H86   H     H_    0.939730 0.706792 0.575844 0.136514
H87   H     H_    0.043111 0.822930 0.563508 0.260414
H88   H     H_    0.985571 0.828156 0.669773 0.192254
H89   H     H_    0.093876 0.788356 0.664245 0.262521
H90   H     H_    0.942847 0.304427 0.582383 0.137880
H91   H     H_    0.946854 0.369660 0.683198 0.142607
H92   H     H_    0.431278 0.399453 0.087984 0.053115
H93   H     H_    0.060652 0.275013 0.740162 0.254408
H94   H     H_    0.964648 0.217512 0.716680 0.207823
H95   H     H_    0.055308 0.209934 0.639947 0.254425
H96   H     H_    0.697022 0.853515 0.641492 0.172369
H97   H     H_    0.732065 0.963257 0.629324 0.160288
H98   H     H_    0.814543 0.919125 0.491852 0.264068
H99   H     H_    0.846316 0.861711 0.589571 0.211534
H100  H     H_    0.779760 0.810886 0.509079 0.255551
H101  H     H_    0.696309 0.120979 0.675801 0.119489
H102  H     H_    0.620990 0.193359 0.627233 0.147262
N1    N     N_1   0.498320 0.498630 0.731150 -0.103837
N2    N     N_1   0.501700 0.501360 0.268850 -0.114728
O1    O     O_R   0.500080 0.377210 0.574260 -0.608602
O2    O     O_3   0.553314 0.909314 0.657041 -0.654081
O3    O     O_3   0.554386 0.357589 0.069538 -0.525774
O4    O     O_3   0.672513 0.468172 0.076499 -0.534722
O5    O     O_3   0.647098 0.432200 0.922594 -0.526011
O6    O     O_3   0.465607 0.664403 0.082029 -0.610148
O7    O     O_3   0.454725 0.654515 0.911271 -0.626189
O8    O     O_3   0.062852 0.653826 0.564918 -0.601172
O9    O     O_3   0.054024 0.374187 0.598270 -0.621765
O10   O     O_3   0.649150 0.918367 0.533005 -0.631861
O11   O     O_3   0.650754 0.081254 0.553552 -0.591340
O12   O     O_R   0.499910 0.377070 0.425800 -0.618973
O13   O     O_R   0.376870 0.500060 0.574220 -0.605427
O14   O     O_R   0.376690 0.499920 0.425760 -0.606682
O15   O     O_R   0.500090 0.622930 0.574200 -0.612492
O16   O     O_R   0.499920 0.622790 0.425740 -0.620312
O17   O     O_R   0.623310 0.500080 0.574240 -0.615481
O18   O     O_R   0.623130 0.499940 0.425780 -0.622134
O19   O     O_3   0.391640 0.941443 0.629807 -0.622637
Zn1   Zn    Zn3+2 0.500120 0.500090 0.599130 0.964786
Zn2   Zn    Zn3+2 0.499880 0.499910 0.400870 0.946919

loop_
_geom_bond_atom_site_label_1
_geom_bond_atom_site_label_2
_ccdc_geom_bond_type
C55   C56   A    
C2    H7    S    
C93   C94   A    
C28   N1    T    
C22   C29   S    
C90   H74   S    
C18   H92   S    
C86   H67   S    
C51   H21   S    
C87   O6    S    
C36   C42   A    
C19   O15   A    
C96   H79   S    
C43   C44   A    
C10   O10   S    
C2    C36   S    
C56   H31   S    
C57   C58   A    
O17   Zn1   S    
C15   C32   S    
C47   C49   A    
C5    H3    S    
C77   C78   A    
C52   C53   S    
C97   H83   S    
C12   C13   S    
C19   O16   A    
C88   H73   S    
C25   O7    S    
C97   H82   S    
C13   H37   S    
C9    C16   S    
C102  H96   S    
C38   C39   A    
C11   C14   S    
C101  H95   S    
C61   H36   S    
C4    H102  S    
C49   H18   S    
C31   H70   S    
C47   H17   S    
C58   C60   A    
C71   H51   S    
C73   H55   S    
C88   H72   S    
C56   C57   A    
C46   H16   S    
C59   C89   S    
C69   C71   S    
C10   O2    S    
C100  C101  S    
C66   H43   S    
C98   H86   S    
C54   C55   A    
C42   H12   S    
C71   H49   S    
C23   H2    S    
C44   H13   S    
C16   C17   T    
C50   H20   S    
C80   C86   A    
C23   C24   S    
C1    O12   A    
C53   H29   S    
C34   C81   T    
C20   O4    S    
C38   H8    S    
C79   H62   S    
C6    H15   S    
C61   C62   S    
C101  H94   S    
C26   C48   S    
C7    O13   A    
C98   C99   S    
C39   H9    S    
C66   C67   A    
C98   O8    S    
C10   C92   S    
C78   H61   S    
C72   H53   S    
C18   C22   S    
C69   H46   S    
C51   H22   S    
C7    C33   S    
C92   O11   S    
C37   C81   S    
C100  H90   S    
C50   H19   S    
C15   C48   S    
C62   H40   S    
C9    C92   S    
C15   C35   S    
C52   H25   S    
C3    H98   S    
C5    H4    S    
C97   H84   S    
C83   H64   S    
C48   O8    S    
C8    C19   S    
C72   H52   S    
C74   C75   A    
C30   C34   S    
C39   C40   A    
C67   C68   A    
C51   H23   S    
C18   O3    S    
C24   C25   S    
C40   H10   S    
C27   C80   S    
C26   H6    S    
C6    C11   S    
C99   H87   S    
C65   H42   S    
C52   H24   S    
C78   C79   A    
C43   C49   A    
C4    H101  S    
C30   O18   A    
C85   C86   A    
C87   H68   S    
O15   Zn1   S    
C88   H71   S    
C2    C6    S    
O14   Zn2   S    
C31   C37   S    
C96   O7    S    
C89   C95   A    
C75   C76   A    
C41   C42   A    
C98   H85   S    
C91   C93   A    
C26   C35   S    
O1    Zn1   S    
C83   C84   A    
C93   H76   S    
C87   H69   S    
C96   C97   S    
C67   H44   S    
C50   C51   S    
C32   H1    S    
N1    Zn1   S    
C61   O3    S    
C84   C85   A    
C100  O9    S    
C37   C59   S    
C68   H45   S    
C33   C70   T    
C7    O14   A    
C3    C102  S    
C102  O10   S    
C40   C41   A    
C20   C22   S    
C55   H30   S    
C74   C79   A    
C92   H48   S    
C3    H99   S    
C31   C35   S    
C57   H32   S    
C53   H27   S    
C62   H39   S    
C90   C91   A    
C21   C74   S    
O18   Zn2   S    
O12   Zn2   S    
C13   C43   S    
C44   C45   A    
C48   C59   S    
C5    H5    S    
C75   H57   S    
C77   H60   S    
C3    H100  S    
C15   C70   S    
C9    C13   S    
C46   C47   A    
C76   H58   S    
C21   O5    S    
C8    C14   T    
C52   O2    S    
C85   H66   S    
C73   H56   S    
C31   C32   S    
C24   C28   S    
C96   H80   S    
C72   C73   S    
C99   H88   S    
C11   C12   S    
C4    O11   S    
C26   C37   S    
C30   O17   A    
C53   H28   S    
C64   H41   S    
C58   H33   S    
C25   C27   S    
C63   C68   A    
C1    C17   S    
C60   H34   S    
C22   C27   S    
C69   H47   S    
C64   C65   A    
C100  H91   S    
C20   C63   S    
C36   C38   A    
C6    H26   S    
C84   H65   S    
C102  H97   S    
C99   H89   S    
C76   C77   A    
C45   H14   S    
C61   H35   S    
C12   O19   S    
O16   Zn2   S    
C18   C23   S    
C91   H75   S    
C73   H54   S    
C41   H11   S    
C27   O6    S    
C80   C82   A    
C94   H77   S    
C65   C66   A    
O13   Zn1   S    
C94   C95   A    
C1    O1    A    
C54   C60   A    
C10   C11   S    
C29   N2    T    
C101  H93   S    
C63   C64   A    
C72   O5    S    
C45   C46   A    
C95   H78   S    
C4    C5    S    
C20   C21   S    
C87   C88   S    
C82   C83   A    
C21   C24   S    
N2    Zn2   S    
C71   H50   S    
C50   O19   S    
C69   O4    S    
C32   C59   S    
C62   H38   S    
C89   C90   A    
C2    C9    S    
C35   O9    S    
C12   C54   S    
C25   H81   S    
C23   H59   S    
C82   H63   S    
