data_mof_unit_966.cif
_audit_creation_date              2013-03-05T16:31:21-0500
_audit_creation_method            fapswitch 2.2
_symmetry_space_group_name_H-M    P1
_symmetry_Int_Tables_number       1
_space_group_crystal_system       triclinic
_cell_length_a                    9.590296
_cell_length_b                    10.742097
_cell_length_c                    13.422632
_cell_angle_alpha                 90.352831
_cell_angle_beta                  73.186735
_cell_angle_gamma                 90.239663
_cell_volume                      1323.65772302

loop_
_atom_site_label
_atom_site_type_symbol
_atom_site_description
_atom_site_fract_x
_atom_site_fract_y
_atom_site_fract_z
_atom_type_partial_charge
O1    O     O_R   0.381190 0.680360 0.500000 -0.604244
O2    O     O_R   0.618780 0.680320 0.499990 -0.571140
C1    C     C_R   0.500643 0.737156 0.499450 0.891361
O3    O     O_R   0.323230 0.500000 0.650990 -0.564319
O4    O     O_R   0.560820 0.499960 0.650980 -0.542985
C2    C     C_R   0.423922 0.485367 0.699084 0.889063
Cu1   Cu    Cu3+1 0.359330 0.500020 0.500010 1.094269
Cu2   Cu    Cu3+1 0.640670 0.499980 0.499990 1.077684
O5    O     O_R   0.381220 0.319680 0.500010 -0.518546
O6    O     O_R   0.618810 0.319640 0.500000 -0.573220
O7    O     O_R   0.439180 0.500040 0.349020 -0.540801
O8    O     O_R   0.676770 0.500000 0.349010 -0.554660
C3    C     C_R   0.499378 0.262653 0.501548 0.889313
C4    C     C_R   0.577662 0.497675 0.300520 0.885814
C5    C     C_R   0.792245 0.550721 0.022978 0.028099
H1    H     H_    0.818015 0.600859 0.171104 0.212214
H2    H     H_    0.896344 0.590865 0.982162 0.224607
C6    C     C_R   0.622474 0.491681 0.187074 -0.176688
C7    C     C_R   0.237820 0.446002 0.868433 -0.273547
C8    C     C_R   0.195938 0.437773 0.976398 0.635857
C9    C     C_R   0.299096 0.446591 0.030549 0.646329
C10   C     C_R   0.449394 0.445857 0.976284 -0.162528
C11   C     C_R   0.492624 0.442203 0.866021 -0.123944
C12   C     C_R   0.559048 0.457481 0.027720 -0.026223
C13   C     C_R   0.699363 0.499019 0.969927 -0.112995
C14   C     C_R   0.744707 0.476918 0.862080 0.257840
C15   C     C_R   0.643314 0.429569 0.815187 0.635937
C16   C     C_R   0.536483 0.428222 0.133455 0.369321
C17   C     C_R   0.749304 0.553945 0.131151 -0.092573
C18   C     C_R   0.385091 0.455193 0.811869 -0.130114
H3    H     H_    0.154595 0.447581 0.829157 0.256515
C19   C     C_R   0.455247 0.935196 0.592418 -0.042243
C20   C     C_R   0.503866 0.870258 0.498957 -0.239302
C21   C     C_R   0.572589 0.935132 0.407382 0.644516
C22   C     C_R   0.571427 0.065242 0.408447 -0.109169
H4    H     H_    0.620293 0.115428 0.337101 0.227921
C23   C     C_R   0.501930 0.129269 0.500821 -0.175867
C24   C     C_R   0.455471 0.063428 0.593832 0.016392
C25   C     C_3   0.315693 0.068916 0.680556 0.077910
C26   C     C_3   0.314679 0.926065 0.677375 0.098638
H5    H     H_    0.225362 0.112854 0.657506 0.186156
H6    H     H_    0.224767 0.885176 0.650712 0.104133
C27   C     C_R   0.948529 0.413055 0.443662 0.097500
N1    N     N_R   0.852320 0.499070 0.499340 -0.190218
C28   C     C_R   0.906998 0.592246 0.547451 0.044548
H7    H     H_    0.835510 0.665224 0.588574 0.156824
C29   C     C_R   0.055721 0.592704 0.546830 0.062014
H8    H     H_    0.094971 0.666321 0.587104 0.158520
N2    N     N_R   0.148230 0.499110 0.499340 -0.204017
C30   C     C_R   0.095438 0.412197 0.444703 0.153944
C31   C     C_3   0.090572 0.274451 0.460901 1.006766
C32   C     C_3   0.934253 0.274972 0.456720 -0.025589
H9    H     H_    0.853810 0.245146 0.530409 0.186568
N3    N     N_R   0.334285 0.121248 0.777035 0.173842
O9    O     O_R   0.220529 0.138031 0.856739 -0.244731
O10   O     O_R   0.462086 0.154091 0.783795 -0.272276
N4    N     N_R   0.330437 0.866667 0.771551 0.189960
O11   O     O_R   0.217502 0.857614 0.852919 -0.248997
O12   O     O_R   0.450296 0.809936 0.771251 -0.333362
F1    F     F_    0.186345 0.210406 0.380066 -0.552630
F2    F     F_    0.100939 0.241165 0.557792 -0.655045
N5    N     N_R   0.916032 0.210535 0.364789 0.164765
O13   O     O_R   0.922806 0.089653 0.360024 -0.264210
O14   O     O_R   0.884606 0.271421 0.290531 -0.261030
N6    N     N_R   0.893439 0.492731 0.801261 0.103729
O15   O     O_R   0.959347 0.404463 0.738636 -0.274064
O16   O     O_R   0.953761 0.602294 0.794097 -0.403153
N7    N     N_R   0.455372 0.316852 0.176704 0.194463
O17   O     O_R   0.409044 0.241322 0.116903 -0.226947
O18   O     O_R   0.461695 0.273166 0.265358 -0.323810
F3    F     F_    0.250250 0.461254 0.135489 -0.600344
F4    F     F_    0.053459 0.425982 0.029722 -0.608759
F5    F     F_    0.692582 0.362281 0.725894 -0.597467
F6    F     F_    0.633790 0.873141 0.316915 -0.621576

loop_
_geom_bond_atom_site_label_1
_geom_bond_atom_site_label_2
_geom_bond_distance
_ccdc_geom_bond_type
C4    C6    1.458781 S    
C7    C8    1.390613 A    
C31   F2    1.382007 S    
C7    H3    1.076525 S    
Cu1   Cu2   2.698058 S    
C29   N2    1.369918 A    
C28   H7    1.081437 S    
N1    C28   1.370167 A    
Cu1   O7    1.948341 S    
C14   C15   1.395145 A    
N5    O13   1.300681 A    
C9    F3    1.358114 S    
C22   C23   1.403516 A    
O4    C2    1.293940 A    
O7    C4    1.299289 A    
C27   C32   1.495745 S    
N4    O12   1.302249 A    
C25   N3    1.465816 S    
C1    C20   1.430015 S    
Cu1   O5    1.949444 S    
C21   C22   1.397704 A    
O5    C3    1.295862 A    
N5    O14   1.302126 A    
C22   H4    1.082580 S    
N7    O17   1.302029 A    
N6    O16   1.300999 A    
C5    C17   1.390180 A    
C19   C24   1.377500 A    
C3    C23   1.433062 S    
C26   H6    1.112629 S    
C9    C10   1.414535 A    
O3    Cu1   1.954706 S    
C20   C21   1.403190 A    
C28   C29   1.423898 A    
N3    O10   1.302013 A    
C31   C32   1.516362 S    
C11   C18   1.430885 A    
C12   C16   1.409644 A    
C6    C16   1.412583 A    
C12   C13   1.416693 A    
Cu1   N2    2.027114 S    
O3    C2    1.318000 A    
C25   C26   1.534915 S    
H1    C17   1.083562 S    
O1    C1    1.293822 A    
C27   N1    1.365029 A    
C23   C24   1.394214 A    
C29   H8    1.081322 S    
Cu2   O8    1.954706 S    
C30   C31   1.495469 S    
C6    C17   1.400518 A    
C21   F6    1.357742 S    
Cu2   O6    1.947665 S    
C2    C18   1.488088 S    
O8    C4    1.298127 A    
N6    O15   1.301162 A    
C11   C15   1.415109 A    
C10   C12   1.419865 A    
C32   H9    1.112000 S    
C5    H2    1.079670 S    
N3    O9    1.300498 A    
C26   N4    1.465998 S    
C16   N7    1.453567 S    
O1    Cu1   1.947665 S    
C14   N6    1.433839 S    
O2    Cu2   1.949444 S    
Cu2   N1    2.027343 S    
O6    C3    1.291358 A    
O4    Cu2   1.948341 S    
C27   C30   1.413075 A    
C19   C20   1.389720 A    
O2    C1    1.291133 A    
C13   C14   1.404798 A    
C32   N5    1.464763 S    
N4    O11   1.300562 A    
C24   C25   1.500870 S    
C19   C26   1.496089 S    
C5    C13   1.402470 A    
C8    C9    1.389387 A    
C25   H5    1.108715 S    
N7    O18   1.299543 A    
N2    C30   1.366837 A    
C10   C11   1.417152 A    
C8    F4    1.352525 S    
C31   F1    1.383387 S    
C15   F5    1.358958 S    
C7    C18   1.400146 A    
