data_mof_unit_1517.cif
_audit_creation_date              2012-12-11T17:39:28-0500
_audit_creation_method            fapswitch 2.2
_symmetry_space_group_name_H-M    P1
_symmetry_Int_Tables_number       1
_space_group_crystal_system       triclinic
_cell_length_a                    15.363651
_cell_length_b                    15.118064
_cell_length_c                    15.278369
_cell_angle_alpha                 109.314594
_cell_angle_beta                  111.256461
_cell_angle_gamma                 109.015246
_cell_volume                      2690.6093638

loop_
_atom_site_label
_atom_site_type_symbol
_atom_type_description
_atom_site_fract_x
_atom_site_fract_y
_atom_site_fract_z
_atom_type_partial_charge
C1    C     C_R   0.913611 0.931000 0.719470 -0.141761
C2    C     C_R   0.996748 0.322063 0.542505 -0.003282
C3    C     C_R   0.345081 0.315460 0.818436 0.173364
C4    C     C_R   0.696160 0.014963 0.518938 0.176350
C5    C     C_R   0.750388 0.687355 0.281492 -0.155794
C6    C     C_R   0.283249 0.067366 0.475658 -0.140031
C7    C     C_R   0.093396 0.786005 0.576833 -0.120862
C8    C     C_R   0.905090 0.997071 0.199729 -0.080819
C9    C     C_R   0.085458 0.087211 0.286548 -0.181611
C10   C     C_R   0.912643 0.697715 0.495443 -0.172013
C11   C     C_R   0.753118 0.775216 0.188397 -0.142052
C12   C     C_R   0.088303 0.314903 0.553768 0.638151
C13   C     C_R   0.289395 0.981129 0.571484 -0.149025
C14   C     C_R   0.726066 0.673776 0.181049 0.180575
C15   C     C_R   0.338759 0.025406 0.524015 0.111123
C16   C     C_R   0.004796 0.691540 0.542318 0.136361
C17   C     C_R   0.989738 0.049950 0.191503 0.086081
C18   C     C_R   0.475971 0.662865 0.300991 -0.113119
C19   C     C_R   0.475002 0.759339 0.344595 -0.195751
C20   C     C_R   0.513736 0.818129 0.456226 0.043250
C21   C     C_R   0.553714 0.778491 0.524232 0.528201
C22   C     C_R   0.553283 0.681043 0.479329 -0.151674
C23   C     C_R   0.288975 0.217372 0.809703 -0.162138
C24   C     C_R   0.514706 0.623531 0.368095 -0.113318
C25   C     C_R   0.434621 0.931674 0.501373 -0.161592
C26   C     C_R   0.434687 0.029292 0.528614 -0.039398
C27   C     C_R   0.525274 0.125900 0.561047 -0.082014
C28   C     C_R   0.617090 0.122041 0.569603 0.420222
C29   C     C_R   0.611789 0.021744 0.533120 -0.082339
C30   C     C_R   0.522056 0.926078 0.501306 0.045163
C31   C     C_R   0.477699 0.236147 0.482807 -0.338645
C32   C     C_R   0.479760 0.332583 0.493731 0.539658
C33   C     C_R   0.536480 0.423971 0.597560 -0.214681
C34   C     C_R   0.721801 0.033815 0.446559 -0.121949
C35   C     C_R   0.589881 0.418264 0.689618 -0.278055
C36   C     C_R   0.580786 0.319598 0.679227 -0.059937
C37   C     C_R   0.523405 0.227149 0.575217 0.148762
C38   C     C_R   0.675205 0.124207 0.222364 0.401750
C39   C     C_R   0.776379 0.221294 0.291994 0.384594
C40   C     C_R   0.791377 0.309511 0.378987 -0.299564
C41   C     C_R   0.699465 0.308625 0.380401 0.561969
C42   C     C_R   0.597504 0.215746 0.304147 -0.446574
C43   C     C_R   0.584687 0.123207 0.227019 0.273939
C44   C     C_R   0.913555 0.500873 0.466684 -0.204419
C45   C     C_R   0.292389 0.306851 0.718487 -0.086614
C46   C     C_R   0.002162 0.600155 0.553360 -0.055131
C47   C     C_R   0.082589 0.607922 0.643262 -0.100538
C48   C     C_R   0.064996 0.514699 0.649301 0.574532
C49   C     C_R   0.982287 0.413945 0.555238 -0.140707
C50   C     C_R   0.900378 0.406962 0.465701 0.151577
C51   C     C_R   0.234278 0.658244 0.620216 -0.220871
C52   C     C_R   0.325587 0.736183 0.636820 0.531744
C53   C     C_R   0.385206 0.841327 0.727591 -0.484400
C54   C     C_R   0.351310 0.867182 0.802692 0.590329
C55   C     C_R   0.256511 0.787296 0.783546 -0.248695
C56   C     C_R   0.745155 0.964035 0.555644 -0.137336
C57   C     C_R   0.195641 0.684843 0.688673 0.069776
C58   C     C_2   0.528841 0.457158 0.894691 -0.284381
C59   C     C_2   0.452221 0.402405 0.909750 -0.258504
C60   C     C_2   0.638195 0.547400 0.985825 0.681100
C61   C     C_2   0.669001 0.565673 0.086797 -0.385345
C62   C     C_R   0.381984 0.219921 0.101964 -0.187317
C63   C     C_R   0.278020 0.148256 0.073105 0.634410
C64   C     C_R   0.197556 0.177415 0.048234 -0.083633
C65   C     C_R   0.223616 0.279427 0.057805 -0.153775
C66   C     C_R   0.328196 0.350890 0.088900 -0.071579
C67   C     C_R   0.911362 0.219946 0.482309 -0.125190
C68   C     C_R   0.407489 0.321513 0.111705 -0.186136
C69   C     C_R   0.070922 0.128279 0.106866 -0.266290
C70   C     C_R   0.979050 0.053216 0.094598 0.031476
C71   C     C_R   0.895898 0.961169 0.990745 0.037726
C72   C     C_R   0.918253 0.933653 0.909852 -0.218264
C73   C     C_R   0.011160 0.005909 0.921762 0.105358
C74   C     C_R   0.089208 0.104841 0.021764 0.081911
C75   C     C_R   0.721826 0.786662 0.897998 -0.082309
C76   C     C_R   0.610668 0.730427 0.856367 0.004724
C77   C     C_R   0.557353 0.787833 0.870913 -0.124457
C78   C     C_R   0.095267 0.024852 0.809578 -0.104412
C79   C     C_R   0.614493 0.901236 0.923536 -0.019685
C80   C     C_R   0.725451 0.957694 0.965627 -0.046157
C81   C     C_R   0.780884 0.900994 0.956300 0.044130
C82   C     C_R   0.008468 0.985948 0.821314 0.064845
H1    H     H_    0.831638 0.881090 0.696253 0.126235
H2    H     H_    0.296946 0.106483 0.431098 0.111201
H3    H     H_    0.177748 0.813133 0.619877 0.101074
H4    H     H_    0.821856 0.971982 0.150336 0.133235
H5    H     H_    0.167610 0.139735 0.311273 0.120214
H6    H     H_    0.831854 0.643796 0.473147 0.130490
H7    H     H_    0.744067 0.792121 0.123346 0.145965
H8    H     H_    0.317890 0.948930 0.621876 0.111634
H9    H     H_    0.515619 0.548875 0.334066 0.172230
H10   H     H_    0.447892 0.619472 0.215288 0.115608
H11   H     H_    0.446553 0.789831 0.291881 0.140650
H12   H     H_    0.583966 0.650404 0.530923 0.156555
H13   H     H_    0.363247 0.858237 0.473711 0.190831
H14   H     H_    0.439517 0.167297 0.402604 0.140929
H15   H     H_    0.541920 0.500120 0.606922 0.161282
H16   H     H_    0.638610 0.490810 0.769028 0.186615
H17   H     H_    0.621757 0.316301 0.751572 0.133541
H18   H     H_    0.316176 0.193374 0.868854 0.098762
H19   H     H_    0.527306 0.217064 0.303229 0.230460
H20   H     H_    0.853448 0.495423 0.396626 0.153823
H21   H     H_    0.186249 0.578892 0.546498 0.181733
H22   H     H_    0.456402 0.902128 0.739140 0.218281
H23   H     H_    0.684556 0.061150 0.394913 0.093202
H24   H     H_    0.226321 0.807708 0.836794 0.189107
H25   H     H_    0.508311 0.439545 0.813138 0.156492
H26   H     H_    0.466722 0.418307 0.989496 0.136866
H27   H     H_    0.635236 0.499244 0.099473 0.104561
H28   H     H_    0.488449 0.376880 0.135625 0.125009
H29   H     H_    0.442855 0.196574 0.115868 0.181731
H30   H     H_    0.162912 0.303300 0.040955 0.139565
H31   H     H_    0.347533 0.428771 0.094634 0.108320
H32   H     H_    0.323382 0.363529 0.694612 0.148919
H33   H     H_    0.134103 0.199808 0.186257 0.168635
H34   H     H_    0.857687 0.858244 0.833347 0.132697
H35   H     H_    0.761432 0.741234 0.882694 0.122814
H36   H     H_    0.565707 0.642423 0.812024 0.128946
H37   H     H_    0.471610 0.744319 0.840041 0.139113
H38   H     H_    0.573584 0.946278 0.933235 0.188626
H39   H     H_    0.768168 0.045497 0.005164 0.122323
H40   H     H_    0.741126 0.938478 0.611689 0.147626
H41   H     H_    0.831053 0.200181 0.460942 0.139662
H42   H     H_    0.179809 0.059681 0.866363 0.113437
H43   H     H_    0.737728 0.625154 0.303196 0.107462
N1    N     N_R   0.941940 0.944580 0.650780 -0.040044
N2    N     N_R   0.206190 0.054080 0.497260 -0.043415
N3    N     N_R   0.056380 0.847410 0.553580 -0.045486
N4    N     N_R   0.944890 0.999100 0.292900 -0.044474
N5    N     N_R   0.058060 0.055420 0.349220 -0.043949
N6    N     N_R   0.943200 0.791100 0.497260 -0.040633
N7    N     N_R   0.795540 0.849750 0.292910 -0.059772
N8    N     N_R   0.205730 0.996760 0.553580 -0.043846
N9    N     N_R   0.056800 0.208900 0.502740 -0.121126
N10   N     N_R   0.204460 0.150250 0.707090 -0.048477
N11   N     N_R   0.794270 0.003240 0.446420 -0.049594
N12   N     N_R   0.204920 0.207570 0.650770 -0.063104
N13   N     N_R   0.793810 0.945920 0.502740 -0.050061
N14   N     N_R   0.943620 0.152590 0.446420 -0.059065
N15   N     N_R   0.055110 0.000900 0.707100 -0.045089
N16   N     N_R   0.795080 0.792430 0.349230 -0.041743
Ni1   Ni    Ni4+2 0.869690 0.869690 0.500000 0.216024
Ni2   Ni    Ni4+2 0.130310 0.130310 0.500000 0.208006
Ni3   Ni    Ni4+2 0.129250 0.998840 0.629170 0.204134
Ni4   Ni    Ni4+2 0.870750 0.001160 0.370830 0.231402
O1    O     O_3   0.186633 0.400336 0.589226 -0.617744
C83   C     C_3   0.215794 0.372445 0.510808 -0.233971
H44   H     H_    0.151648 0.349741 0.429541 0.158514
H45   H     H_    0.233677 0.305720 0.504181 0.128471
H46   H     H_    0.290687 0.444474 0.537018 0.209194
Cl1   Cl    Cl    0.607803 0.850542 0.666370 -0.713361
Cl2   Cl    Cl    0.740229 0.241809 0.626885 -0.774883
Cl3   Cl    Cl    0.416293 0.340825 0.377775 -0.751072
Cl4   Cl    Cl    0.452701 0.011694 0.131204 -0.650971
O2    O     O_3   0.667044 0.036398 0.144893 -0.610118
C84   C     C_3   0.616801 0.939412 0.144767 -0.082703
H47   H     H_    0.534216 0.883887 0.070810 0.193809
H48   H     H_    0.612693 0.951043 0.218402 0.107359
H49   H     H_    0.662399 0.896948 0.138900 0.105283
O3    O     O_3   0.863374 0.224709 0.282469 -0.582707
C85   C     C_3   0.872914 0.270353 0.217314 -0.176611
H50   H     H_    0.894601 0.356894 0.258340 0.128550
H51   H     H_    0.797322 0.223067 0.135349 0.133835
H52   H     H_    0.939139 0.267999 0.204925 0.158722
O4    O     O_3   0.704877 0.404057 0.440414 -0.612938
C86   C     C_3   0.739536 0.426305 0.547888 -0.095983
H53   H     H_    0.741631 0.501998 0.593664 0.143780
H54   H     H_    0.822137 0.439552 0.591720 0.135892
H55   H     H_    0.682061 0.360396 0.548470 0.196884
O5    O     O_3   0.143653 0.520968 0.736508 -0.581873
C87   C     C_3   0.102495 0.504498 0.802023 -0.218498
H56   H     H_    0.030451 0.421756 0.756927 0.162011
H57   H     H_    0.082221 0.567610 0.833863 0.131149
H58   H     H_    0.165920 0.511551 0.873190 0.173628
Cl5   Cl    Cl    0.350703 0.699659 0.532174 -0.687353
O6    O     O_3   0.409079 0.969108 0.894896 -0.559033
C88   C     C_3   0.407197 0.046847 0.863894 -0.183634
H59   H     H_    0.323033 0.022387 0.805162 0.109530
H60   H     H_    0.459417 0.062436 0.829708 0.122064
H61   H     H_    0.440758 0.124697 0.937760 0.163076
O7    O     O_3   0.700135 0.619409 0.966541 -0.655384
C89   C     C_3   0.800105 0.622102 0.997768 -0.318594
H62   H     H_    0.788231 0.538862 0.960513 0.146795
H63   H     H_    0.853422 0.665695 0.088031 0.174375
H64   H     H_    0.843244 0.667140 0.968448 0.167359
O8    O     O_3   0.251711 0.044566 0.054813 -0.606042
C90   C     C_3   0.259317 0.041334 0.148366 -0.083266
H65   H     H_    0.190115 0.040586 0.155644 0.108708
H66   H     H_    0.336813 0.109488 0.223842 0.147652
H67   H     H_    0.255982 0.964514 0.140415 0.184943

loop_
_geom_bond_atom_site_label_1
_geom_bond_atom_site_label_2
_ccdc_geom_bond_type
C66   C68   A    
C87   H56   S    
C24   H9    S    
O4    C86   S    
C66   H31   S    
C13   H8    S    
C73   C74   A    
C54   C55   A    
C3    C23   A    
C35   C36   A    
C75   H35   S    
C2    C12   A    
C11   N7    A    
C28   C29   A    
C85   H50   S    
C20   C30   S    
C53   C54   A    
C32   Cl3   S    
C87   H57   S    
C10   H6    S    
C26   C27   A    
C29   C30   A    
C18   C24   A    
N7    Ni4   S    
C36   C37   A    
C83   H45   S    
C6    N2    A    
C18   C19   A    
N10   Ni3   S    
C38   C39   A    
C39   O3    S    
C11   C14   A    
O5    C87   S    
C53   H22   S    
C51   H21   S    
C31   H14   S    
C60   O7    S    
C58   H25   S    
C41   C42   A    
C12   O1    S    
C49   C50   A    
C78   C82   A    
C10   N6    A    
C90   H67   S    
C6    C15   A    
C89   H62   S    
C45   H32   S    
N14   Ni4   S    
C62   H29   S    
C83   H44   S    
C88   H60   S    
C41   O4    S    
O6    C88   S    
C70   C71   A    
C51   C57   A    
C7    N3    A    
C43   Cl4   S    
C67   N14   A    
C33   H15   S    
N11   Ni4   S    
C19   H11   S    
C54   O6    S    
C72   C73   A    
C88   H61   S    
C23   H18   S    
N12   Ni2   S    
C61   H27   S    
C17   C70   S    
C63   C64   A    
C12   N9    A    
C21   C22   A    
C4    C56   A    
C86   H54   S    
C22   H12   S    
C38   O2    S    
C25   C30   A    
C85   H51   S    
C44   C46   A    
C80   H39   S    
C77   C79   A    
C87   H58   S    
C4    C34   A    
O2    C84   S    
C6    H2    S    
C55   H24   S    
C51   C52   A    
C47   C48   A    
N15   Ni3   S    
C83   H46   S    
C76   C77   A    
N11   N13   A    
C2    C67   A    
N13   Ni1   S    
C16   C46   S    
C39   C40   A    
C44   H20   S    
N4    N5    A    
C75   C81   A    
C15   C26   S    
N2    Ni2   S    
C25   C26   A    
O7    C89   S    
C14   C61   S    
C3    C45   A    
C76   H36   S    
C31   C37   A    
C78   N15   A    
C60   C61   D    
C89   H64   S    
C84   H47   S    
C75   C76   A    
C65   H30   S    
C62   C63   A    
C2    C49   S    
C47   C57   S    
C56   N13   A    
C11   H7    S    
C5    N16   A    
C31   C32   A    
C34   N11   A    
C48   C49   A    
C63   O8    S    
N1    N15   A    
C79   H38   S    
C45   N12   A    
C69   C74   A    
C68   H28   S    
C1    N1    A    
N5    Ni2   S    
N3    Ni3   S    
C52   Cl5   S    
C5    C14   A    
N6    Ni1   S    
C48   O5    S    
C9    C17   A    
C40   C41   A    
C25   H13   S    
C55   C57   A    
C86   H53   S    
C22   C24   A    
C58   C59   D    
C42   C43   A    
C35   H16   S    
C42   H19   S    
C73   C82   S    
N9    N14   A    
C85   H52   S    
C78   H42   S    
C52   C53   A    
O1    C83   S    
C44   C50   A    
N7    N16   A    
N10   N12   A    
C46   C47   A    
C69   H33   S    
N8    Ni3   S    
C34   H23   S    
C13   N8    A    
C84   H49   S    
C7    C16   A    
N2    N8    A    
C80   C81   A    
C77   H37   S    
C67   H41   S    
C4    C29   S    
C28   Cl2   S    
C23   N10   A    
C1    H1    S    
C72   H34   S    
C59   H26   S    
C62   C68   A    
C18   H10   S    
C32   C33   A    
C19   C20   A    
C13   C15   A    
C1    C82   A    
C38   C43   A    
C65   C66   A    
C10   C16   A    
N16   Ni1   S    
C64   C65   A    
C8    C17   A    
C7    H3    S    
C27   C37   S    
C40   C50   S    
C8    N4    A    
C84   H48   S    
C33   C35   A    
N1    Ni1   S    
C36   H17   S    
C8    H4    S    
N4    Ni4   S    
C21   Cl1   S    
C69   C70   A    
O3    C85   S    
C89   H63   S    
C90   H66   S    
C79   C80   A    
C9    N5    A    
C90   H65   S    
C71   C72   A    
C20   C21   A    
C86   H55   S    
C88   H59   S    
C5    H43   S    
C27   C28   A    
C64   C74   S    
N9    Ni2   S    
O8    C90   S    
C58   C60   S    
N3    N6    A    
C9    H5    S    
C56   H40   S    
C71   C81   S    
C3    C59   S    
