data_mof_unit_1426.cif
_audit_creation_date              2012-12-11T15:10:42-0500
_audit_creation_method            fapswitch 2.2
_symmetry_space_group_name_H-M    P1
_symmetry_Int_Tables_number       1
_space_group_crystal_system       triclinic
_cell_length_a                    21.109172
_cell_length_b                    7.235761
_cell_length_c                    18.290839
_cell_angle_alpha                 90.003267
_cell_angle_beta                  93.453744
_cell_angle_gamma                 90.003351
_cell_volume                      2788.68548924

loop_
_atom_site_label
_atom_site_type_symbol
_atom_type_description
_atom_site_fract_x
_atom_site_fract_y
_atom_site_fract_z
_atom_type_partial_charge
O1    O     O_R   0.448880 0.506250 0.415280 -0.536281
O2    O     O_R   0.551120 0.006250 0.584720 -0.536295
O3    O     O_R   0.434830 0.174000 0.557310 -0.520446
O4    O     O_R   0.565170 0.674000 0.442690 -0.520442
C1    C     C_R   0.417226 0.344531 0.579983 0.755904
C2    C     C_R   0.582774 0.844531 0.420017 0.755912
O5    O     O_R   0.441680 0.176440 0.414130 -0.520270
O6    O     O_R   0.558320 0.676440 0.585870 -0.520246
O7    O     O_R   0.558020 0.007570 0.440520 -0.515897
O8    O     O_R   0.441980 0.507570 0.559480 -0.515905
C3    C     C_R   0.427734 0.345213 0.388502 0.906760
C4    C     C_R   0.572266 0.845229 0.611497 0.906749
O9    O     O_3   0.538160 0.339670 0.508820 -0.377662
O10   O     O_3   0.461840 0.839670 0.491180 -0.377669
V1    V     V_3+5 0.492920 0.064260 0.498360 1.556287
V2    V     V_3+5 0.507080 0.564260 0.501640 1.556291
C5    C     C_R   0.879383 0.009810 0.686079 0.438319
C6    C     C_R   0.120707 0.510789 0.313854 0.438345
C7    C     C_R   0.888920 0.943762 0.817716 -0.275582
C8    C     C_R   0.111094 0.443862 0.182278 -0.275580
C9    C     C_R   0.583303 0.858781 0.746600 0.173058
C10   C     C_R   0.416705 0.358511 0.253394 0.173037
C11   C     C_R   0.617113 0.914625 0.811865 0.351864
C12   C     C_R   0.382904 0.414207 0.188107 0.351877
C13   C     C_R   0.681896 0.955844 0.811072 0.444586
C14   C     C_R   0.318127 0.455506 0.188885 0.444553
C15   C     C_R   0.716273 0.918652 0.748285 -0.093825
C16   C     C_R   0.283743 0.418538 0.251688 -0.093833
C17   C     C_R   0.680911 0.886061 0.680455 -0.108173
C18   C     C_R   0.319099 0.386064 0.319529 -0.108187
C19   C     C_R   0.784349 0.927453 0.749882 -0.032641
C20   C     C_R   0.215670 0.427503 0.250096 -0.032747
C21   C     C_R   0.813863 0.963434 0.683750 -0.120328
C22   C     C_R   0.186178 0.463834 0.316214 -0.120353
C23   C     C_R   0.777439 0.948762 0.616290 0.365372
C24   C     C_R   0.222593 0.449146 0.383680 0.365429
C25   C     C_R   0.713589 0.887722 0.615106 0.234350
C26   C     C_R   0.286421 0.387919 0.384878 0.234348
C27   C     C_R   0.823660 0.892863 0.814616 0.377204
C28   C     C_R   0.176340 0.392828 0.185383 0.377192
C29   C     C_R   0.916259 0.005725 0.753239 0.199805
C30   C     C_R   0.083790 0.506229 0.246721 0.199742
C31   C     C_R   0.613701 0.856564 0.680112 -0.176677
C32   C     C_R   0.386305 0.356488 0.319882 -0.176704
C33   C     C_1   0.864548 0.938932 0.132128 -0.152744
C34   C     C_1   0.135453 0.438933 0.867873 -0.152733
C35   C     C_1   0.821694 0.924870 0.175882 0.050494
C36   C     C_1   0.178306 0.424871 0.824118 0.050509
C37   C     C_1   0.771112 0.905749 0.227978 0.048148
C38   C     C_1   0.228888 0.405750 0.772022 0.048143
C39   C     C_1   0.728512 0.889114 0.271927 0.050267
C40   C     C_1   0.271488 0.389113 0.728073 0.050257
C41   C     C_1   0.677905 0.869974 0.323982 0.046318
C42   C     C_1   0.322095 0.369973 0.676018 0.046310
C43   C     C_1   0.635021 0.855899 0.367685 -0.135146
C44   C     C_1   0.364979 0.355897 0.632315 -0.135169
O11   O     O_R   0.058070 0.289240 0.940580 -0.524780
O12   O     O_R   0.941930 0.789240 0.059420 -0.524734
O13   O     O_R   0.058330 0.616740 0.085880 -0.516034
O14   O     O_R   0.941670 0.116740 0.914120 -0.516023
C45   C     C_R   0.072307 0.448694 0.111626 0.700837
C46   C     C_R   0.927698 0.948678 0.888371 0.700793
O15   O     O_R   0.065180 0.619040 0.942700 -0.520371
O16   O     O_R   0.934820 0.119040 0.057300 -0.520369
O17   O     O_R   0.948870 0.787780 0.915270 -0.540142
O18   O     O_R   0.051130 0.287780 0.084730 -0.540166
C47   C     C_R   0.083194 0.450324 0.920196 0.714472
C48   C     C_R   0.916806 0.950324 0.079804 0.714459
O19   O     O_3   0.961870 0.453310 0.991210 -0.366001
O20   O     O_3   0.038130 0.953310 0.008790 -0.366046
V3    V     V_3+5 0.007070 0.728770 0.001630 1.487804
V4    V     V_3+5 0.992930 0.228770 0.998370 1.487812
O21   O     O_3   0.979270 0.059726 0.752979 -0.642343
H1    H     H_    0.003550 0.016182 0.797562 0.293157
O22   O     O_3   0.020744 0.559857 0.246987 -0.642557
H2    H     H_    0.996453 0.515729 0.202500 0.293239
O23   O     O_3   0.805277 0.986929 0.551477 -0.591882
H3    H     H_    0.772070 0.029337 0.514630 0.300703
O24   O     O_3   0.194762 0.487439 0.448489 -0.591828
H4    H     H_    0.227978 0.529863 0.485327 0.300667
O25   O     O_3   0.906357 0.060464 0.621821 -0.579012
H5    H     H_    0.952596 0.079748 0.630044 0.351037
O26   O     O_3   0.093821 0.562199 0.378080 -0.579151
H6    H     H_    0.047845 0.586043 0.369549 0.351108
O27   O     O_3   0.797636 0.797592 0.871266 -0.596798
H7    H     H_    0.829980 0.773721 0.911420 0.306015
O28   O     O_3   0.202328 0.297321 0.128766 -0.596827
H8    H     H_    0.169979 0.273466 0.088613 0.306041
Cl1   Cl    Cl    0.501058 0.806942 0.745789 -0.626547
Cl2   Cl    Cl    0.498947 0.306616 0.254225 -0.626573
Cl3   Cl    Cl    0.714025 0.094951 0.884105 -0.504397
Cl4   Cl    Cl    0.286023 0.594446 0.115795 -0.504448
O29   O     O_3   0.588389 0.939839 0.877189 -0.564945
H9    H     H_    0.542939 0.907478 0.871663 0.372029
O30   O     O_3   0.411632 0.439207 0.122772 -0.564934
H10   H     H_    0.457073 0.406746 0.128303 0.372032
O31   O     O_3   0.682889 0.830114 0.550321 -0.675860
H11   H     H_    0.714567 0.779159 0.517910 0.290270
O32   O     O_3   0.317103 0.330361 0.449675 -0.675865
H12   H     H_    0.285408 0.279542 0.482099 0.290265

loop_
_geom_bond_atom_site_label_1
_geom_bond_atom_site_label_2
_ccdc_geom_bond_type
O28   H8    S    
O29   H9    S    
C15   C17   A    
O21   H1    S    
C1    C44   S    
O30   H10   S    
O1    C3    A    
C2    C43   S    
O2    C4    A    
C2    O7    A    
C25   O31   S    
O31   H11   S    
C35   C37   S    
C9    Cl1   S    
O23   H3    S    
O5    C3    A    
C30   O22   S    
O16   C48   A    
C28   O28   S    
C23   C25   A    
C12   C14   A    
C4    C31   S    
C6    C30   A    
C8    C28   A    
O12   V3    S    
O14   V4    S    
C7    C46   S    
C14   Cl4   S    
C18   C26   A    
O14   C46   A    
C8    C45   S    
C9    C31   A    
C45   O18   A    
C10   C32   A    
O26   H6    S    
O18   V4    S    
C37   C39   T    
C38   C40   T    
C19   C21   A    
O20   V3    S    
C5    O25   S    
C36   C38   S    
O6    V2    S    
C17   C31   A    
C18   C32   A    
C5    C21   A    
O11   C47   A    
C40   C42   S    
O25   H5    S    
O15   C47   A    
C33   C35   T    
C42   C44   T    
O13   C45   A    
C13   Cl3   S    
C15   C19   A    
C16   C20   A    
O4    C2    A    
C12   O30   S    
O27   H7    S    
C23   O23   S    
C11   O29   S    
C39   C41   S    
C20   C22   A    
O4    V2    S    
O19   V4    S    
O22   H2    S    
O32   H12   S    
O6    C4    A    
C33   C48   S    
C6    O26   S    
C10   Cl2   S    
C3    C32   S    
O1    V2    S    
O2    V1    S    
C6    C22   A    
C7    C27   A    
O12   C48   A    
O15   V3    S    
C9    C11   A    
C10   C12   A    
C27   O27   S    
C41   C43   T    
C24   C26   A    
C20   C28   A    
O3    V1    S    
C46   O17   A    
C26   O32   S    
O3    C1    A    
C24   O24   S    
C8    C30   A    
C13   C15   A    
C14   C16   A    
C16   C18   A    
O7    V1    S    
C34   C47   S    
O17   V3    S    
O5    V1    S    
C21   C23   A    
C19   C27   A    
C22   C24   A    
O16   V4    S    
O11   V4    S    
C5    C29   A    
C29   O21   S    
O24   H4    S    
C34   C36   T    
C1    O8    A    
C11   C13   A    
O9    V2    S    
C17   C25   A    
O10   V1    S    
O8    V2    S    
C7    C29   A    
O13   V3    S    
