data_mof_unit_1780.cif
_audit_creation_date              2013-03-05T16:13:32-0500
_audit_creation_method            fapswitch 2.2
_symmetry_space_group_name_H-M    P1
_symmetry_Int_Tables_number       1
_space_group_crystal_system       triclinic
_cell_length_a                    11.035512
_cell_length_b                    10.068403
_cell_length_c                    11.028086
_cell_angle_alpha                 91.441492
_cell_angle_beta                  99.19556
_cell_angle_gamma                 90.047454
_cell_volume                      1209.18590533

loop_
_atom_site_label
_atom_site_type_symbol
_atom_site_description
_atom_site_fract_x
_atom_site_fract_y
_atom_site_fract_z
_atom_type_partial_charge
O1    O     O_R   0.316770 0.614620 0.499990 -0.579180
O2    O     O_R   0.683230 0.614620 0.500010 -0.557520
O3    O     O_R   0.316800 0.385290 0.500000 -0.552842
O4    O     O_R   0.683200 0.385290 0.500000 -0.598395
C1    C     C_R   0.261960 0.500525 0.507713 0.917031
C2    C     C_R   0.739855 0.500535 0.498790 0.905344
O5    O     O_R   0.500000 0.614690 0.316780 -0.583790
O6    O     O_R   0.500000 0.614690 0.683220 -0.571106
O7    O     O_R   0.500020 0.385360 0.316780 -0.589671
O8    O     O_R   0.499980 0.385360 0.683220 -0.612470
C3    C     C_R   0.504039 0.497430 0.260675 0.974970
C4    C     C_R   0.498888 0.501494 0.739173 0.921787
Zn1   Zn    Zn3+2 0.500000 0.653120 0.500000 1.071668
Zn2   Zn    Zn3+2 0.500000 0.346880 0.500000 1.082024
C5    C     C_R   0.545133 0.603871 0.070949 0.016575
C6    C     C_R   0.558795 0.605452 0.948917 0.033782
C7    C     C_R   0.517636 0.490245 0.130001 -0.169113
C8    C     C_R   0.502867 0.501833 0.871658 -0.229233
C9    C     C_R   0.497408 0.373368 0.054774 0.189343
C10   C     C_R   0.463121 0.387881 0.927492 0.255119
C11   C     C_3   0.545183 0.756341 0.950515 -0.314822
C12   C     C_3   0.509714 0.745640 0.080375 -0.294923
C13   C     C_R   0.066609 0.383318 0.526789 -0.114373
C14   C     C_R   0.939206 0.382866 0.495419 -0.085142
C15   C     C_R   0.873937 0.503302 0.501057 -0.182912
C16   C     C_R   0.131654 0.503242 0.521175 -0.208747
C17   C     C_R   0.940853 0.624591 0.520842 -0.054739
C18   C     C_R   0.067591 0.625304 0.520698 -0.059145
C19   C     C_R   0.575585 0.076772 0.587527 -0.058663
C20   C     C_R   0.424968 0.070888 0.411388 -0.050561
C21   C     C_R   0.581342 0.932944 0.585447 -0.032831
C22   C     C_R   0.416434 0.927905 0.417214 -0.080732
N1    N     N_R   0.500000 0.857200 0.500000 -0.127634
N2    N     N_R   0.500000 0.142810 0.500000 -0.179506
N3    N     N_R   0.525981 0.242341 0.099285 0.232850
O9    O     O_R   0.498201 0.139894 0.025714 -0.205363
O10   O     O_R   0.612133 0.227506 0.192611 -0.307023
N4    N     N_R   0.361892 0.308960 0.866502 0.244773
O11   O     O_R   0.377500 0.217655 0.785225 -0.308442
O12   O     O_R   0.260352 0.308943 0.912355 -0.309018
C23   C     C_2   0.668725 0.825795 0.957003 0.996971
O13   O     O_2   0.674828 0.946935 0.966552 -0.458978
O14   O     O_R   0.776826 0.751487 0.966646 -0.773253
H1    H     H_    0.853112 0.809396 0.975790 0.388085
C24   C     C_2   0.372044 0.759386 0.078217 0.996572
O15   O     O_2   0.325441 0.869114 0.069709 -0.494788
O16   O     O_R   0.296194 0.646599 0.067167 -0.775301
H2    H     H_    0.205654 0.669451 0.052972 0.372829
C25   C     C_2   0.444726 0.809902 0.852758 1.013132
O17   O     O_2   0.350941 0.745089 0.819735 -0.545847
O18   O     O_R   0.455353 0.936158 0.806209 -0.707582
H3    H     H_    0.382155 0.959624 0.742662 0.376032
C26   C     C_2   0.591078 0.819703 0.184925 0.981680
O19   O     O_2   0.681817 0.765861 0.240777 -0.541738
O20   O     O_R   0.567260 0.951684 0.212467 -0.699638
H4    H     H_    0.629093 0.989475 0.282870 0.365175
C27   C     C_2   0.125489 0.263473 0.584879 1.058140
O21   O     O_2   0.111715 0.239042 0.689782 -0.493315
O22   O     O_R   0.188255 0.174321 0.519066 -0.761078
H5    H     H_    0.229262 0.101306 0.572379 0.339772
C28   C     C_2   0.880310 0.259774 0.437297 1.025480
O23   O     O_2   0.821698 0.264417 0.333979 -0.539560
O24   O     O_R   0.896838 0.138373 0.496020 -0.773108
H6    H     H_    0.852515 0.062991 0.444615 0.370632
C29   C     C_2   0.886622 0.755537 0.545571 0.963034
O25   O     O_2   0.816192 0.809972 0.465417 -0.561178
O26   O     O_R   0.938977 0.827385 0.651256 -0.760121
H7    H     H_    0.929195 0.926742 0.641583 0.400927
C30   C     C_2   0.126774 0.758841 0.522618 0.957581
O27   O     O_2   0.207611 0.793160 0.606463 -0.563338
O28   O     O_R   0.073109 0.852030 0.439138 -0.755764
H8    H     H_    0.098695 0.946069 0.465299 0.380002
C31   C     C_2   0.650591 0.158738 0.684865 1.084493
O29   O     O_2   0.744717 0.211648 0.665242 -0.584395
O30   O     O_R   0.619861 0.165262 0.802737 -0.665937
H9    H     H_    0.679987 0.221014 0.862287 0.362717
C32   C     C_2   0.354901 0.142242 0.305630 1.084558
O31   O     O_2   0.293285 0.239062 0.321265 -0.554639
O32   O     O_R   0.351106 0.092117 0.186691 -0.673498
H10   H     H_    0.292937 0.143008 0.123956 0.395022
C33   C     C_2   0.677772 0.869903 0.678358 0.942253
O33   O     O_2   0.754170 0.937918 0.744435 -0.588542
O34   O     O_R   0.686116 0.734280 0.691594 -0.771555
H11   H     H_    0.762518 0.704194 0.747364 0.360517
C34   C     C_2   0.308298 0.861834 0.338056 0.970870
O35   O     O_2   0.219270 0.927337 0.294954 -0.561442
O36   O     O_R   0.304057 0.727215 0.310883 -0.758352
H12   H     H_    0.219597 0.695258 0.270639 0.349104

loop_
_geom_bond_atom_site_label_1
_geom_bond_atom_site_label_2
_geom_bond_distance
_ccdc_geom_bond_type
N4    O12   1.300940 A    
O36   H12   1.014570 S    
C6    C11   1.526682 S    
C1    C16   1.469265 S    
C31   O30   1.394881 S    
C31   O29   1.219146 D    
C9    C10   1.405513 A    
O20   H4    1.014198 S    
C11   C25   1.526529 S    
C33   O33   1.219975 D    
C34   O35   1.222187 D    
O5    C3    1.323186 A    
C14   C28   1.481483 S    
O1    C1    1.308806 A    
N3    O10   1.296422 A    
N4    O11   1.298583 A    
C27   O22   1.393267 S    
C2    C15   1.476101 S    
C19   C31   1.479466 S    
C5    C6    1.378416 A    
C5    C7    1.387461 A    
C23   O13   1.222451 D    
C24   O16   1.401389 S    
C30   O28   1.395977 S    
O2    Zn1   2.059156 S    
C20   C32   1.493031 S    
C5    C12   1.485750 S    
C18   C30   1.492447 S    
C29   O26   1.398990 S    
C13   C14   1.393148 A    
C21   N1    1.402737 A    
C28   O23   1.219001 D    
C32   O31   1.213454 D    
C32   O32   1.387813 S    
O22   H5    1.013978 S    
C11   C12   1.550034 S    
C23   O14   1.399689 S    
O2    C2    1.308881 A    
C33   O34   1.378528 S    
C12   C26   1.521973 S    
C26   O20   1.390297 S    
C20   N2    1.367381 A    
C34   O36   1.379879 S    
O26   H7    1.012733 S    
O16   H2    1.013890 S    
C14   C15   1.415988 A    
O4    C2    1.318973 A    
O8    Zn2   2.047815 S    
O7    Zn2   2.066959 S    
C25   O18   1.394651 S    
C24   O15   1.218440 D    
C19   N2    1.358462 A    
O18   H3    1.013492 S    
N3    O9    1.301573 A    
C13   C16   1.411927 A    
O30   H9    1.014009 S    
Zn1   N1    2.054760 S    
C17   C29   1.485308 S    
C10   N4    1.436399 S    
O34   H11   1.012404 S    
O6    C4    1.310574 A    
C28   O24   1.396124 S    
O7    C3    1.304539 A    
O3    Zn2   2.058676 S    
O8    C4    1.309283 A    
C11   C23   1.522355 S    
C25   O17   1.223134 D    
O14   H1    1.013877 S    
O1    Zn1   2.058525 S    
C13   C27   1.481801 S    
C3    C7    1.472538 S    
O24   H6    1.012804 S    
O3    C1    1.316158 A    
Zn2   N2    2.054660 S    
C26   O19   1.223327 D    
C15   C17   1.420504 A    
C16   C18   1.418007 A    
C21   C33   1.506830 S    
C22   N1    1.398368 A    
O28   H8    1.009559 S    
C19   C21   1.449338 A    
C9    N3    1.436858 S    
C20   C22   1.446314 A    
C27   O21   1.221655 D    
C22   C34   1.505050 S    
C7    C9    1.419191 A    
C8    C10   1.417349 A    
O4    Zn2   2.058047 S    
C30   O27   1.220643 D    
O32   H10   1.014742 S    
O6    Zn1   2.066818 S    
O5    Zn1   2.047698 S    
C12   C24   1.522115 S    
C6    C8    1.407640 A    
C29   O25   1.221204 D    
C4    C8    1.454606 S    
C17   C18   1.398884 A    
