data_mof_unit_2439.cif
_audit_creation_date              2013-03-05T15:46:14-0500
_audit_creation_method            fapswitch 2.2
_symmetry_space_group_name_H-M    P1
_symmetry_Int_Tables_number       1
_space_group_crystal_system       triclinic
_cell_length_a                    10.791461
_cell_length_b                    10.978511
_cell_length_c                    9.828922
_cell_angle_alpha                 110.873067
_cell_angle_beta                  99.081025
_cell_angle_gamma                 90.369535
_cell_volume                      1071.93147412

loop_
_atom_site_label
_atom_site_type_symbol
_atom_site_description
_atom_site_fract_x
_atom_site_fract_y
_atom_site_fract_z
_atom_type_partial_charge
O1    O     O_R   0.511820 0.332340 0.577400 -0.578212
O2    O     O_R   0.474400 0.295500 0.332650 -0.543042
C1    C     C_R   0.488251 0.253541 0.441076 0.764714
O3    O     O_R   0.336400 0.518400 0.622370 -0.570631
O4    O     O_R   0.298980 0.481560 0.377620 -0.558558
C2    C     C_R   0.260118 0.504353 0.500939 0.879933
Cu1   Cu    Cu3+1 0.522160 0.521810 0.644910 1.012533
Cu2   Cu    Cu3+1 0.477840 0.478190 0.355090 1.052601
O5    O     O_R   0.525600 0.704500 0.667350 -0.545188
O6    O     O_R   0.488180 0.667660 0.422600 -0.581953
O7    O     O_R   0.701020 0.518440 0.622380 -0.569382
O8    O     O_R   0.663600 0.481600 0.377630 -0.568469
C3    C     C_R   0.508220 0.746239 0.558920 0.915050
C4    C     C_R   0.739846 0.499041 0.499194 0.848888
C5    C     C_3   0.080194 0.395508 0.545096 -0.522884
H1    H     H_    0.140177 0.394201 0.647508 0.186543
H2    H     H_    0.093590 0.301024 0.457765 0.219645
C6    C     C_3   0.941178 0.402567 0.566956 0.005085
H3    H     H_    0.939500 0.439775 0.687650 0.155219
C7    C     C_3   0.087707 0.645680 0.615360 0.420764
C8    C     C_3   0.047521 0.483121 0.339213 0.059860
C9    C     C_3   0.122207 0.511114 0.500870 -0.138782
H4    H     H_    0.076749 0.387699 0.267600 0.167241
C10   C     C_3   0.877576 0.500466 0.498974 -0.092875
C11   C     C_3   0.939014 0.642499 0.594444 -0.202180
C12   C     C_3   0.904135 0.468757 0.336876 0.078456
H5    H     H_    0.857533 0.542852 0.296931 0.148979
H6    H     H_    0.906816 0.703708 0.528112 0.211444
H7    H     H_    0.417208 0.857764 0.371205 0.205189
C13   C     C_2   0.483092 0.112707 0.410030 0.151208
C14   C     C_2   0.445366 0.065906 0.508387 0.048373
H8    H     H_    0.535336 0.954261 0.701470 0.178582
C15   C     C_2   0.501340 0.885569 0.590214 -0.273566
C16   C     C_2   0.450269 0.926698 0.482680 -0.035649
H9    H     H_    0.415340 0.418190 0.840195 0.193154
H10   H     H_    0.572208 0.591258 0.153406 0.121001
N1    N     N_2   0.444530 0.445420 0.137360 -0.117414
C17   C     C_2   0.505044 0.512682 0.079306 0.154750
H11   H     H_    0.623945 0.622252 0.936182 0.222716
N2    N     N_2   0.555520 0.554510 0.862630 -0.290345
C18   C     C_2   0.487746 0.489833 0.916023 -0.002237
N3    N     N_R   0.134122 0.761239 0.589358 0.159854
O9    O     O_R   0.233394 0.758939 0.529292 -0.353426
O10   O     O_R   0.091536 0.874567 0.653400 -0.355839
N4    N     N_3   0.396111 0.150119 0.635312 -0.554971
H12   H     H_    0.369245 0.096622 0.696332 0.264275
H13   H     H_    0.313220 0.184855 0.596112 0.208432
N5    N     N_R   0.526144 0.027831 0.278852 0.116471
O11   O     O_R   0.494015 0.044722 0.153864 -0.321445
O12   O     O_R   0.610502 0.945611 0.288060 -0.346841
N6    N     N_3   0.367588 0.337771 0.040237 -0.491184
H14   H     H_    0.282023 0.342572 0.078164 0.269471
H15   H     H_    0.408461 0.254660 0.050033 0.280329
N7    N     N_3   0.875717 0.271975 0.504273 -0.461727
H16   H     H_    0.788838 0.276786 0.539606 0.220710
H17   H     H_    0.926735 0.210865 0.549836 0.252356
N8    N     N_3   0.146751 0.659053 0.766755 -0.545478
H18   H     H_    0.106592 0.592659 0.803712 0.213691
H19   H     H_    0.137648 0.752743 0.841514 0.258415
N9    N     N_3   0.890782 0.702723 0.733881 -0.556974
H20   H     H_    0.912823 0.651928 0.805227 0.243872
H21   H     H_    0.928608 0.799072 0.787199 0.276180
N10   N     N_R   0.077538 0.579573 0.274034 0.156008
O13   O     O_R   0.023459 0.689551 0.303418 -0.322888
O14   O     O_R   0.138940 0.544423 0.163842 -0.346795
N11   N     N_R   0.848792 0.340064 0.231122 0.163236
O15   O     O_R   0.758815 0.334689 0.123590 -0.326899
O16   O     O_R   0.901189 0.232702 0.227275 -0.309394

loop_
_geom_bond_atom_site_label_1
_geom_bond_atom_site_label_2
_geom_bond_distance
_ccdc_geom_bond_type
C5    C6    1.547294 S    
N11   O16   1.301548 A    
C8    C12   1.550077 S    
N10   O14   1.301164 A    
C3    C15   1.453720 S    
N1    C17   1.307284 D    
C6    C10   1.565005 S    
C11   N9    1.473184 S    
C1    C13   1.464274 S    
C7    N3    1.479516 S    
O8    C4    1.290711 A    
Cu2   O8    1.980385 S    
H8    C15   1.086851 S    
N5    O12   1.301728 A    
N11   O15   1.301626 A    
N8    H18   1.041809 S    
C14   C16   1.460275 S    
Cu1   Cu2   2.677234 S    
C5    C9    1.566294 S    
O1    Cu1   1.941554 S    
C8    C9    1.585334 S    
C11   H6    1.114031 S    
Cu1   O7    1.976342 S    
C12   H5    1.113245 S    
C13   C14   1.356407 D    
N3    O10   1.302314 A    
O3    Cu1   1.980385 S    
H9    C18   1.084055 S    
C5    H1    1.112295 S    
C13   N5    1.443971 S    
N2    C18   1.301730 D    
C15   C16   1.335733 D    
C10   C12   1.578601 S    
O2    C1    1.292561 A    
N4    H13   1.046109 S    
C8    H4    1.114125 S    
N9    H21   1.045001 S    
O4    C2    1.285824 A    
N1    N6    1.389470 S    
O7    C4    1.290134 A    
N7    H17   1.046340 S    
C8    N10   1.476848 S    
O4    Cu2   1.976342 S    
N8    H19   1.045493 S    
N3    O9    1.298539 A    
C6    N7    1.467730 S    
C14   N4    1.444776 S    
N6    H14   1.043854 S    
C2    C9    1.490495 S    
Cu1   O5    1.937508 S    
H10   C17   1.085143 S    
C10   C11   1.580876 S    
C17   C18   1.513741 S    
Cu2   O6    1.941554 S    
O3    C2    1.297307 A    
Cu2   N1    2.011300 S    
C4    C10   1.486633 S    
H11   N2    1.030660 S    
C5    H2    1.113686 S    
O5    C3    1.291125 A    
N7    H16   1.045340 S    
C6    H3    1.111775 S    
N6    H15   1.044388 S    
C7    N8    1.478398 S    
N4    H12   1.045187 S    
Cu1   N2    2.011365 S    
H7    C16   1.087555 S    
O6    C3    1.291781 A    
N5    O11   1.300977 A    
O2    Cu2   1.937508 S    
N10   O13   1.302150 A    
C7    C9    1.594408 S    
N9    H20   1.042608 S    
O1    C1    1.293072 A    
C7    C11   1.583758 S    
C12   N11   1.476462 S    
