data_mof_unit_2785.cif
_audit_creation_date              2012-12-10T20:45:32-0500
_audit_creation_method            fapswitch 2.2
_symmetry_space_group_name_H-M    P1
_symmetry_Int_Tables_number       1
_space_group_crystal_system       triclinic
_cell_length_a                    10.78009
_cell_length_b                    10.66201
_cell_length_c                    9.877362
_cell_angle_alpha                 90.768361
_cell_angle_beta                  92.062062
_cell_angle_gamma                 90.786663
_cell_volume                      1134.32665613

loop_
_atom_site_label
_atom_site_type_symbol
_atom_type_description
_atom_site_fract_x
_atom_site_fract_y
_atom_site_fract_z
_atom_type_partial_charge
C1    C     C_R   0.498808 0.260472 0.499069 0.900848
C2    C     C_R   0.174902 0.396733 0.976861 -0.314586
C3    C     C_R   0.928853 0.453787 0.388846 -0.235862
C4    C     C_R   0.872473 0.487560 0.508548 -0.155378
C5    C     C_R   0.943964 0.523780 0.625181 -0.120598
C6    C     C_R   0.069861 0.540226 0.613582 0.570010
C7    C     C_R   0.126801 0.505475 0.493740 -0.169670
C8    C     C_R   0.055400 0.463830 0.378953 0.003659
C9    C     C_R   0.895104 0.654312 0.828122 -0.042990
C10   C     C_R   0.861819 0.664262 0.963298 -0.074467
C11   C     C_R   0.830029 0.556944 0.034279 -0.125851
C12   C     C_R   0.259846 0.502886 0.497484 0.929224
C13   C     C_R   0.833960 0.439015 0.971231 -0.175633
C14   C     C_R   0.865284 0.428795 0.835480 -0.121336
C15   C     C_R   0.895036 0.536750 0.762716 0.193545
C16   C     C_R   0.556085 0.067565 0.602157 0.005567
C17   C     C_R   0.493010 0.128834 0.498744 -0.153452
C18   C     C_R   0.417033 0.062977 0.403966 -0.298406
C19   C     C_R   0.415553 0.933124 0.406086 0.650398
C20   C     C_R   0.489717 0.871830 0.503924 -0.235762
C21   C     C_R   0.552247 0.939467 0.607809 0.086883
C22   C     C_3   0.686820 0.935783 0.653500 0.548712
C23   C     C_R   0.498717 0.739842 0.500855 1.010434
C24   C     C_3   0.691102 0.077298 0.640599 -0.591963
C25   C     C_R   0.544167 0.400485 0.071707 0.157301
C26   C     C_R   0.461517 0.601975 0.072043 -0.216459
C27   C     C_R   0.459804 0.601434 0.928341 0.723013
C28   C     C_R   0.543824 0.400273 0.929257 0.097627
C29   C     C_3   0.494928 0.268614 0.921466 -0.444724
C30   C     C_3   0.496650 0.268911 0.074998 -0.442157
C31   C     C_R   0.739907 0.495152 0.502856 0.928670
C32   C     C_R   0.169330 0.519072 0.028337 -0.173159
C33   C     C_R   0.134518 0.540856 0.160970 0.696707
C34   C     C_R   0.105311 0.439625 0.243887 -0.016076
C35   C     C_R   0.110401 0.316608 0.192237 -0.245209
C36   C     C_R   0.145427 0.294499 0.058287 0.000304
H1    H     H_    0.201545 0.381956 0.873256 0.188789
H2    H     H_    0.803547 0.565488 0.138432 0.169634
H3    H     H_    0.812377 0.355527 0.027422 0.141560
H4    H     H_    0.869228 0.336848 0.787968 0.117228
H5    H     H_    0.362130 0.111501 0.327512 0.193037
H6    H     H_    0.709428 0.129980 0.737162 0.153530
H7    H     H_    0.747604 0.110141 0.555551 0.230947
H8    H     H_    0.427748 0.682809 0.125878 0.244123
H9    H     H_    0.191441 0.597770 0.965430 0.250335
H10   H     H_    0.400112 0.261329 0.873875 0.199900
H11   H     H_    0.562699 0.202773 0.879506 0.211112
H12   H     H_    0.402936 0.261666 0.117592 0.218646
H13   H     H_    0.566418 0.204515 0.120326 0.211433
H14   H     H_    0.085349 0.238925 0.255879 0.200845
H15   H     H_    0.873810 0.421468 0.300859 0.165420
H16   H     H_    0.923283 0.737491 0.774895 0.166772
H17   H     H_    0.862066 0.754961 0.013748 0.175773
N1    N     N_R   0.499160 0.499140 0.142800 -0.149902
N2    N     N_R   0.499160 0.499180 0.857150 -0.168516
O1    O     O_R   0.500020 0.316790 0.614690 -0.629465
O2    O     O_R   0.500000 0.316760 0.385350 -0.636982
O3    O     O_R   0.316770 0.500030 0.614670 -0.563011
O4    O     O_R   0.316750 0.499990 0.385330 -0.616658
O5    O     O_R   0.500000 0.683240 0.614650 -0.538877
O6    O     O_R   0.499980 0.683210 0.385310 -0.585492
O7    O     O_R   0.683250 0.500010 0.614670 -0.623767
O8    O     O_R   0.683230 0.499970 0.385330 -0.628856
Zn1   Zn    Zn3+2 0.500010 0.500020 0.653130 1.039348
Zn2   Zn    Zn3+2 0.499990 0.499980 0.346870 0.984909
F1    F     F_    0.345301 0.868002 0.311557 -0.598906
C37   C     C_2   0.709714 0.895182 0.797217 0.371868
H18   H     H_    0.797955 0.918475 0.848261 0.047726
O9    O     O_2   0.630606 0.838214 0.857950 -0.533753
F2    F     F_    0.760827 0.874788 0.562383 -0.675701
F3    F     F_    0.411567 0.700631 0.861606 -0.582044
F4    F     F_    0.126674 0.660652 0.207829 -0.610310
C38   C     C_2   0.150943 0.165772 0.001710 0.418024
H19   H     H_    0.176664 0.151026 0.897506 0.061745
O10   O     O_2   0.127238 0.074739 0.070427 -0.507424
F5    F     F_    0.136961 0.590244 0.720804 -0.662201

loop_
_geom_bond_atom_site_label_1
_geom_bond_atom_site_label_2
_ccdc_geom_bond_type
O8    Zn2   S    
C16   C21   A    
C24   H6    S    
C32   H9    S    
C35   C36   A    
C26   H8    S    
C7    C8    A    
N1    Zn2   S    
C25   C28   A    
C26   C27   A    
C29   H11   S    
C30   H12   S    
C28   C29   S    
C1    O1    A    
C18   C19   A    
C5    C6    A    
C27   N2    A    
C19   F1    S    
C2    C32   A    
C34   C35   A    
C38   H19   S    
C10   H17   S    
O7    Zn1   S    
C33   F4    S    
C12   O4    A    
C19   C20   A    
C16   C17   A    
O1    Zn1   S    
C9    C10   A    
C12   O3    A    
C16   C24   S    
C21   C22   S    
C38   O10   D    
C31   O7    A    
C7    C12   S    
C9    H16   S    
C26   N1    A    
C28   N2    A    
C33   C34   A    
O3    Zn1   S    
C23   O5    A    
C5    C15   S    
C37   H18   S    
C31   O8    A    
C25   N1    A    
C3    C8    A    
C36   C38   S    
C18   H5    S    
C3    H15   S    
C37   O9    D    
C11   H2    S    
C29   C30   S    
C1    O2    A    
C20   C23   S    
N2    Zn1   S    
C35   H14   S    
C17   C18   A    
C8    C34   S    
C30   H13   S    
C22   C24   S    
C3    C4    A    
C27   F3    S    
C2    C36   A    
C25   C30   S    
O2    Zn2   S    
C4    C5    A    
C6    F5    S    
C6    C7    A    
C1    C17   S    
C29   H10   S    
O5    Zn1   S    
C32   C33   A    
C9    C15   A    
O4    Zn2   S    
C11   C13   A    
C2    H1    S    
C22   C37   S    
C13   H3    S    
C4    C31   S    
C10   C11   A    
C14   H4    S    
O6    Zn2   S    
C23   O6    A    
C20   C21   A    
C24   H7    S    
C14   C15   A    
C13   C14   A    
C22   F2    S    
