data_mof_unit_1825.cif
_audit_creation_date              2012-12-10T18:46:21-0500
_audit_creation_method            fapswitch 2.2
_symmetry_space_group_name_H-M    P1
_symmetry_Int_Tables_number       1
_space_group_crystal_system       triclinic
_cell_length_a                    9.882945
_cell_length_b                    10.712142
_cell_length_c                    13.187965
_cell_angle_alpha                 89.348173
_cell_angle_beta                  69.224417
_cell_angle_gamma                 88.757979
_cell_volume                      1305.07644186

loop_
_atom_site_label
_atom_site_type_symbol
_atom_type_description
_atom_site_fract_x
_atom_site_fract_y
_atom_site_fract_z
_atom_type_partial_charge
C1    C     C_R   0.499053 0.739533 0.499519 0.907957
C2    C     C_R   0.365886 0.496751 0.823594 -0.142016
C3    C     C_R   0.575383 0.930779 0.553459 -0.195348
C4    C     C_R   0.419057 0.496868 0.704668 0.866370
C5    C     C_R   0.579856 0.058269 0.552479 0.360365
C6    C     C_R   0.505140 0.126513 0.496224 -0.173127
C7    C     C_R   0.429640 0.065959 0.438572 0.447892
C8    C     C_R   0.425067 0.936727 0.442025 -0.272928
C9    C     C_R   0.497798 0.871230 0.499322 -0.135508
C10   C     C_R   0.954349 0.403878 0.454310 0.505936
C11   C     C_R   0.097211 0.404980 0.453866 -0.068189
C12   C     C_R   0.431291 0.493950 0.985290 0.053737
C13   C     C_R   0.047284 0.595312 0.546744 -0.069417
C14   C     C_R   0.903736 0.595400 0.546566 -0.108191
C15   C     C_R   0.501654 0.259761 0.499221 0.972706
C16   C     C_R   0.581286 0.500515 0.295363 0.905305
C17   C     C_R   0.772785 0.374548 0.017352 -0.170670
C18   C     C_R   0.633656 0.490812 0.177110 -0.255175
C19   C     C_R   0.234849 0.558060 0.881043 -0.230986
C20   C     C_R   0.197280 0.580523 0.991442 0.446915
C21   C     C_R   0.294183 0.548907 0.043491 -0.097701
C22   C     C_R   0.456916 0.453265 0.878756 -0.018342
C23   C     C_R   0.542616 0.474889 0.029312 0.018077
C24   C     C_R   0.664763 0.397009 0.973300 -0.099825
C25   C     C_R   0.677016 0.343146 0.874174 0.419444
C26   C     C_R   0.573481 0.370658 0.828786 -0.175746
C27   C     C_R   0.540516 0.534838 0.124435 0.377619
C28   C     C_R   0.755757 0.417054 0.119920 0.400128
Cl1   Cl    Cl    0.889801 0.371835 0.172093 -0.487998
Cl2   Cl    Cl    0.677108 0.124817 0.626193 -0.526550
Cl3   Cl    Cl    0.908551 0.273365 0.395804 -0.452843
Cl4   Cl    Cl    0.823727 0.244280 0.800993 -0.525771
Cl5   Cl    Cl    0.033047 0.657700 0.063019 -0.543055
H1    H     H_    0.368435 0.887311 0.398236 0.168813
H2    H     H_    0.317215 0.076700 0.343246 0.355540
H3    H     H_    0.487482 0.685861 0.212667 0.342771
H4    H     H_    0.171694 0.329163 0.416760 0.209129
H5    H     H_    0.081688 0.671593 0.584336 0.159173
H6    H     H_    0.830178 0.671701 0.584091 0.164298
H7    H     H_    0.868141 0.318397 0.975164 0.233094
H8    H     H_    0.163881 0.591650 0.839725 0.191947
H9    H     H_    0.257861 0.564547 0.129756 0.226547
H10   H     H_    0.584506 0.325874 0.753591 0.228014
H11   H     H_    0.631300 0.877827 0.597808 0.190792
N1    N     N_R   0.142790 0.500030 0.500030 -0.112785
N2    N     N_R   0.857180 0.499940 0.500010 -0.118084
O1    O     O_R   0.385370 0.683250 0.500010 -0.629089
O2    O     O_3   0.452837 0.639247 0.162330 -0.756084
O3    O     O_R   0.614700 0.683220 0.500010 -0.624754
O4    O     O_R   0.328400 0.499990 0.653620 -0.608475
O5    O     O_R   0.557730 0.499960 0.653620 -0.618174
O6    O     O_R   0.385300 0.316780 0.499990 -0.582585
O7    O     O_R   0.614630 0.316750 0.499990 -0.538960
O8    O     O_R   0.442270 0.500040 0.346380 -0.599432
O9    O     O_R   0.671600 0.500010 0.346380 -0.536002
O10   O     O_3   0.364960 0.134273 0.377900 -0.744550
Zn1   Zn    Zn3+2 0.346870 0.500020 0.500000 1.005039
Zn2   Zn    Zn3+2 0.653130 0.499980 0.500000 1.060751

loop_
_geom_bond_atom_site_label_1
_geom_bond_atom_site_label_2
_ccdc_geom_bond_type
C27   O2    S    
C2    C22   A    
C2    C4    S    
C23   C24   A    
C10   N2    A    
C6    C7    A    
C3    C9    A    
C23   C27   A    
O1    Zn1   S    
C19   C20   A    
O7    Zn2   S    
C20   C21   A    
C25   Cl4   S    
C25   C26   A    
C16   O9    A    
C18   C28   A    
C7    C8    A    
C14   N2    A    
O5    Zn2   S    
C8    H1    S    
C15   O6    A    
N2    Zn2   S    
C13   N1    A    
C17   C28   A    
C12   C23   A    
N1    Zn1   S    
C13   H5    S    
C7    O10   S    
C20   Cl5   S    
C15   O7    A    
C28   Cl1   S    
C26   H10   S    
H3    O2    S    
C22   C26   A    
C5    C6    A    
C14   H6    S    
C16   O8    A    
C3    H11   S    
C11   N1    A    
C17   C24   A    
O6    Zn1   S    
C18   C27   A    
C4    O5    A    
C21   H9    S    
C12   C22   A    
C1    C9    S    
C24   C25   A    
C16   C18   S    
C5    Cl2   S    
C10   C11   A    
O9    Zn2   S    
C2    C19   A    
C11   H4    S    
C1    O1    A    
H2    O10   S    
C6    C15   S    
C13   C14   A    
O4    Zn1   S    
C1    O3    A    
C12   C21   A    
C17   H7    S    
O3    Zn2   S    
C19   H8    S    
C4    O4    A    
C8    C9    A    
C3    C5    A    
O8    Zn1   S    
C10   Cl3   S    
