data_mof_unit_4127.cif
_audit_creation_date              2013-03-05T15:53:17-0500
_audit_creation_method            fapswitch 2.2
_symmetry_space_group_name_H-M    P1
_symmetry_Int_Tables_number       1
_space_group_crystal_system       triclinic
_cell_length_a                    11.534626
_cell_length_b                    10.702406
_cell_length_c                    9.941225
_cell_angle_alpha                 90.474199
_cell_angle_beta                  90.704811
_cell_angle_gamma                 92.476524
_cell_volume                      1225.94020061

loop_
_atom_site_label
_atom_site_type_symbol
_atom_site_description
_atom_site_fract_x
_atom_site_fract_y
_atom_site_fract_z
_atom_type_partial_charge
O1    O     O_R   0.500000 0.316780 0.614690 -0.598890
O2    O     O_R   0.499990 0.316750 0.385360 -0.584175
C1    C     C_R   0.510089 0.261007 0.498588 0.875931
O3    O     O_R   0.334450 0.500030 0.614670 -0.593983
O4    O     O_R   0.334440 0.500000 0.385330 -0.639724
C2    C     C_R   0.282122 0.500076 0.499168 0.885616
Zn1   Zn    Zn3+2 0.500010 0.500020 0.653130 0.958101
Zn2   Zn    Zn3+2 0.499990 0.499980 0.346870 0.974839
O5    O     O_R   0.500010 0.683250 0.614640 -0.620264
O6    O     O_R   0.500000 0.683220 0.385310 -0.619517
O7    O     O_R   0.665560 0.500000 0.614670 -0.632062
O8    O     O_R   0.665550 0.499970 0.385330 -0.610631
C3    C     C_R   0.509052 0.739641 0.500969 0.891877
C4    C     C_R   0.717924 0.500364 0.500608 0.869559
C5    C     C_1   0.161626 0.500448 0.497248 -0.149070
C6    C     C_1   0.059397 0.500696 0.497126 0.078144
C7    C     C_1   0.940692 0.500587 0.499345 0.041177
C8    C     C_1   0.838471 0.500434 0.501152 -0.175677
C9    C     C_R   0.658774 0.140415 0.698278 -0.216395
H1    H     H_    0.671885 0.240666 0.692754 0.171335
C10   C     C_R   0.711376 0.081435 0.806843 0.293686
C11   C     C_R   0.708349 0.950434 0.809190 -0.155299
H2    H     H_    0.751866 0.900335 0.887716 0.139676
C12   C     C_R   0.652458 0.881129 0.706504 -0.212828
H3    H     H_    0.662028 0.781475 0.708850 0.166193
C13   C     C_R   0.590025 0.940106 0.603205 0.105417
C14   C     C_R   0.593278 0.071538 0.598820 0.024786
C15   C     C_R   0.533316 0.129834 0.492287 -0.241475
C16   C     C_R   0.490233 0.059158 0.380229 0.312243
H4    H     H_    0.441359 0.879736 0.306775 0.210686
C17   C     C_R   0.482571 0.932265 0.389450 -0.274443
C18   C     C_R   0.526677 0.872690 0.501135 -0.173946
H5    H     H_    0.656330 0.607121 0.127694 0.137803
C19   C     C_R   0.321319 0.374578 0.140050 -0.122569
H6    H     H_    0.332879 0.345065 0.241091 0.229823
C20   C     C_R   0.214272 0.347921 0.078155 0.096542
C21   C     C_R   0.207158 0.353080 0.937847 0.200042
C22   C     C_R   0.310455 0.374088 0.864700 0.121894
C23   C     C_R   0.408545 0.438611 0.927711 0.091011
C24   C     C_R   0.410894 0.438372 0.071665 0.093567
N1    N     N_R   0.498930 0.498800 0.142780 -0.096427
C25   C     C_R   0.586081 0.558629 0.072982 -0.068088
H7    H     H_    0.656976 0.605812 0.878224 0.132350
C26   C     C_R   0.586375 0.558112 0.930155 -0.104759
N2    N     N_R   0.498900 0.498720 0.857170 -0.097167
N3    N     N_R   0.454983 0.113118 0.255154 0.203912
O9    O     O_R   0.356296 0.076552 0.199998 -0.450551
O10   O     O_R   0.533581 0.166974 0.179772 -0.387370
N4    N     N_R   0.103047 0.308966 0.869192 0.190826
O11   O     O_R   0.057121 0.198748 0.894812 -0.428559
O12   O     O_R   0.060358 0.373851 0.771931 -0.432393
N5    N     N_2   0.325380 0.291041 0.755244 -0.242458
H8    H     H_    0.256761 0.285808 0.687670 0.252331
C27   C     C_3   0.357905 0.167371 0.796326 -0.648162
H9    H     H_    0.367349 0.106988 0.706262 0.218220
H10   H     H_    0.290047 0.122690 0.860627 0.257930
H11   H     H_    0.441798 0.173332 0.852671 0.264862
N6    N     N_2   0.766200 0.156958 0.910773 -0.286899
H12   H     H_    0.804418 0.241203 0.881621 0.257468
C28   C     C_3   0.816668 0.099500 0.027771 -0.649195
H13   H     H_    0.848258 0.173361 0.100035 0.237838
H14   H     H_    0.891117 0.043403 0.998111 0.249527
H15   H     H_    0.750256 0.039370 0.079117 0.241436
N7    N     N_2   0.114181 0.320368 0.157543 -0.301614
H16   H     H_    0.035564 0.334816 0.111021 0.256573
C29   C     C_3   0.114468 0.206076 0.234190 -0.656033
H17   H     H_    0.031622 0.194233 0.289359 0.214017
H18   H     H_    0.186078 0.209865 0.309872 0.242725
H19   H     H_    0.122728 0.124341 0.165829 0.280659

loop_
_geom_bond_atom_site_label_1
_geom_bond_atom_site_label_2
_geom_bond_distance
_ccdc_geom_bond_type
O4    Zn2   1.952074 S    
C29   H18   1.109631 S    
H7    C26   1.081245 S    
C27   H10   1.111285 S    
C13   C18   1.417102 A    
C21   C22   1.414160 A    
C21   N4    1.434004 S    
C9    C14   1.418860 A    
N1    C25   1.367808 A    
C4    C8    1.390373 S    
C3    C18   1.429648 S    
C17   C18   1.387061 A    
C23   N2    1.399759 A    
C16   N3    1.436884 S    
Zn2   O8    1.942958 S    
N7    H16   1.031070 S    
N5    H8    1.031189 S    
C7    C8    1.179369 T    
O8    C4    1.288790 A    
C10   N6    1.430611 S    
C16   C17   1.361033 A    
O1    Zn1   1.994882 S    
C10   C11   1.401336 A    
C12   H3    1.077384 S    
Zn1   O7    1.952072 S    
H4    C17   1.084981 S    
C27   H9    1.109080 S    
C13   C14   1.406572 A    
O4    C2    1.289074 A    
C25   C26   1.419881 A    
C28   H13   1.110412 S    
O3    Zn1   1.942960 S    
C19   C24   1.399947 A    
H5    C25   1.081621 S    
Zn1   N2    2.028765 S    
C28   H14   1.110259 S    
C20   C21   1.397922 A    
C9    C10   1.399886 A    
N5    C27   1.451715 S    
O2    C1    1.284685 A    
C19   C20   1.390170 A    
C28   H15   1.110837 S    
C22   C23   1.434321 A    
O7    C4    1.291244 A    
C11   C12   1.392058 A    
N6    H12   1.031675 S    
C29   H19   1.111339 S    
C22   N5    1.416140 S    
N6    C28   1.447731 S    
C5    C6    1.179274 T    
C15   C16   1.414225 A    
N3    O10   1.301700 A    
Zn1   O5    2.001090 S    
C14   C15   1.421072 A    
C29   H17   1.110676 S    
Zn2   N1    2.028723 S    
C1    C15   1.441532 S    
Zn2   O6    1.994882 S    
C19   H6    1.064002 S    
C23   C24   1.431025 A    
N4    O11   1.300478 A    
O5    C3    1.288736 A    
N3    O9    1.300839 A    
C24   N1    1.366474 A    
N4    O12   1.299423 A    
C2    C5    1.389952 S    
C20   N7    1.428129 S    
O3    C2    1.290637 A    
O6    C3    1.295241 A    
C11   H2    1.081385 S    
O2    Zn2   2.001090 S    
C26   N2    1.366556 A    
C9    H1    1.078985 S    
C12   C13   1.415411 A    
C6    C7    1.369618 S    
O1    C1    1.303799 A    
C27   H11   1.111278 S    
N7    C29   1.446561 S    
