data_mof_unit_3682.cif
_audit_creation_date              2012-12-10T17:03:44-0500
_audit_creation_method            fapswitch 2.2
_symmetry_space_group_name_H-M    P1
_symmetry_Int_Tables_number       1
_space_group_crystal_system       triclinic
_cell_length_a                    10.012988
_cell_length_b                    10.748953
_cell_length_c                    13.124552
_cell_angle_alpha                 90.131373
_cell_angle_beta                  69.982578
_cell_angle_gamma                 90.101722
_cell_volume                      1327.24376447

loop_
_atom_site_label
_atom_site_type_symbol
_atom_type_description
_atom_site_fract_x
_atom_site_fract_y
_atom_site_fract_z
_atom_type_partial_charge
C1    C     C_R   0.499315 0.737379 0.502105 0.932499
C2    C     C_R   0.369346 0.482931 0.822259 -0.208527
C3    C     C_2   0.613349 0.067106 0.498853 -0.178055
C4    C     C_R   0.421078 0.493284 0.704175 0.885477
C5    C     C_2   0.506143 0.131216 0.486053 -0.324080
C6    C     C_2   0.615823 0.933203 0.492537 -0.158213
C7    C     C_2   0.495607 0.868971 0.511274 -0.329504
C8    C     C_2   0.101348 0.419539 0.444338 0.562951
C9    C     C_2   0.943000 0.409882 0.460393 -0.309649
C10   C     C_R   0.501214 0.262641 0.497255 0.927844
C11   C     C_R   0.578870 0.499481 0.295722 0.865583
C12   C     C_R   0.430509 0.472493 0.984945 0.032882
C13   C     C_R   0.769530 0.369910 0.019604 -0.174760
C14   C     C_R   0.626096 0.481296 0.179259 -0.075784
C15   C     C_R   0.235349 0.531214 0.881953 -0.262446
C16   C     C_R   0.193604 0.546530 0.993898 0.600909
C17   C     C_R   0.293448 0.518917 0.045086 -0.355709
C18   C     C_3   0.162610 0.293041 0.290404 -0.348358
C19   C     C_3   0.031724 0.639308 0.149916 -0.324759
C20   C     C_R   0.459900 0.439100 0.875952 0.085954
C21   C     C_R   0.539337 0.456939 0.029799 0.107313
C22   C     C_R   0.664132 0.388868 0.972951 0.155817
C23   C     C_R   0.680506 0.339253 0.871347 -0.254142
C24   C     C_R   0.579796 0.364140 0.823164 -0.168267
C25   C     C_R   0.528819 0.510283 0.128785 -0.235027
C26   C     C_R   0.749089 0.413874 0.123903 -0.136103
H1    H     H_    0.421451 0.088445 0.464348 0.162364
H2    H     H_    0.595859 0.322519 0.744735 0.167828
H3    H     H_    0.825186 0.390366 0.162842 0.159692
H4    H     H_    0.391376 0.911734 0.536304 0.150129
H5    H     H_    0.118122 0.367798 0.253042 0.147471
H6    H     H_    0.087438 0.213661 0.315907 0.160009
H7    H     H_    0.259978 0.258265 0.226708 0.203296
H8    H     H_    0.903806 0.325458 0.435168 0.180751
H9    H     H_    0.114113 0.709841 0.147916 0.156981
H10   H     H_    0.024832 0.565286 0.210407 0.160616
H11   H     H_    0.927680 0.687781 0.176578 0.202276
H12   H     H_    0.718138 0.887399 0.473806 0.167804
H13   H     H_    0.701901 0.112896 0.513595 0.168956
H14   H     H_    0.075359 0.552358 0.556242 0.102192
H15   H     H_    0.891736 0.582451 0.514016 0.157126
H16   H     H_    0.772544 0.283339 0.828118 0.148530
H17   H     H_    0.864545 0.317104 0.977290 0.139823
H18   H     H_    0.442065 0.571671 0.170728 0.150734
H19   H     H_    0.163306 0.560551 0.841050 0.181041
H20   H     H_    0.261915 0.528337 0.131690 0.142290
N1    N     N_2   0.148270 0.498670 0.498870 -0.222038
N2    N     N_2   0.852610 0.498640 0.498840 -0.204142
O1    O     O_R   0.386950 0.680940 0.500020 -0.623306
O2    O     O_3   0.054490 0.587189 0.046620 -0.611066
O3    O     O_R   0.613110 0.680900 0.499980 -0.613499
O4    O     O_R   0.330780 0.500000 0.653640 -0.617932
O5    O     O_R   0.556930 0.499960 0.653610 -0.598630
O6    O     O_R   0.386890 0.319100 0.500020 -0.563903
O7    O     O_R   0.613050 0.319060 0.499980 -0.627761
O8    O     O_R   0.443070 0.500040 0.346390 -0.570370
O9    O     O_R   0.669220 0.500000 0.346360 -0.618482
O10   O     O_3   0.200288 0.336258 0.378480 -0.556632
Zn1   Zn    Zn3+2 0.349000 0.500030 0.500020 0.977923
Zn2   Zn    Zn3+2 0.651000 0.499970 0.499980 0.926083

loop_
_geom_bond_atom_site_label_1
_geom_bond_atom_site_label_2
_ccdc_geom_bond_type
C12   C17   A    
H14   N1    S    
C2    C4    S    
C23   C24   A    
C6    H12   S    
C6    C7    D    
C10   O7    A    
O4    Zn1   S    
C4    O5    A    
O1    Zn1   S    
O8    Zn1   S    
C19   H10   S    
C3    C6    S    
C8    O10   S    
C12   C20   A    
C8    N1    D    
C3    H13   S    
C5    C10   S    
C11   O8    A    
C7    H4    S    
C5    H1    S    
C21   C22   A    
C14   C26   A    
C2    C15   A    
C1    O3    A    
C19   O2    S    
O7    Zn2   S    
C23   H16   S    
C4    O4    A    
C25   H18   S    
C11   C14   S    
O5    Zn2   S    
C16   O2    S    
C13   C22   A    
N2    Zn2   S    
O6    Zn1   S    
C22   C23   A    
C14   C25   A    
C9    H8    S    
C10   O6    A    
C18   H7    S    
C13   C26   A    
C18   H6    S    
C15   H19   S    
N1    Zn1   S    
C15   C16   A    
C20   C24   A    
C13   H17   S    
C17   H20   S    
C9    N2    D    
C2    C20   A    
C21   C25   A    
C26   H3    S    
C16   C17   A    
O9    Zn2   S    
C19   H9    S    
O3    Zn2   S    
C19   H11   S    
C1    C7    S    
C11   O9    A    
C1    O1    A    
C12   C21   A    
H15   N2    S    
C18   O10   S    
C24   H2    S    
C18   H5    S    
C8    C9    S    
C3    C5    D    
