data_mof_unit_659.cif
_audit_creation_date              2012-12-11T17:01:23-0500
_audit_creation_method            fapswitch 2.2
_symmetry_space_group_name_H-M    P1
_symmetry_Int_Tables_number       1
_space_group_crystal_system       triclinic
_cell_length_a                    19.37588
_cell_length_b                    7.107099
_cell_length_c                    17.5964
_cell_angle_alpha                 89.980859
_cell_angle_beta                  108.560767
_cell_angle_gamma                 90.028529
_cell_volume                      2297.09925667

loop_
_atom_site_label
_atom_site_type_symbol
_atom_type_description
_atom_site_fract_x
_atom_site_fract_y
_atom_site_fract_z
_atom_type_partial_charge
O1    O     O_R   0.413720 0.494330 0.415730 -0.538441
O2    O     O_R   0.586280 0.994330 0.584270 -0.538644
O3    O     O_R   0.560210 0.819300 0.430070 -0.539608
O4    O     O_R   0.439790 0.319300 0.569930 -0.544277
C1    C     C_R   0.581592 0.655437 0.414624 0.719757
C2    C     C_R   0.418727 0.155234 0.585761 0.719828
O5    O     O_R   0.412670 0.823730 0.406310 -0.525737
O6    O     O_R   0.587330 0.323730 0.593690 -0.525683
O7    O     O_R   0.437690 0.998790 0.560340 -0.539465
O8    O     O_R   0.562310 0.498790 0.439660 -0.543129
C3    C     C_R   0.385549 0.655205 0.383212 0.707148
C4    C     C_R   0.614450 0.155220 0.616789 0.707686
O9    O     O_3   0.508380 0.662350 0.550560 -0.356854
O10   O     O_3   0.491620 0.162350 0.449440 -0.357387
V1    V     V_3+5 0.498450 0.935370 0.490620 1.490191
V2    V     V_3+5 0.501550 0.435370 0.509380 1.484014
C5    C     C_R   0.697326 0.994021 0.739954 0.130901
C6    C     C_R   0.302702 0.494258 0.259960 0.130362
C7    C     C_R   0.681585 0.147483 0.687152 -0.132222
C8    C     C_R   0.318413 0.647491 0.312854 -0.131330
C9    C     C_R   0.731350 0.298625 0.705298 -0.128728
C10   C     C_R   0.268640 0.798522 0.294772 -0.128965
H1    H     H_    0.721285 0.421824 0.667319 0.132147
H2    H     H_    0.278697 0.921599 0.332804 0.131204
C11   C     C_R   0.797115 0.287143 0.769508 -0.176414
C12   C     C_R   0.202874 0.787053 0.230555 -0.175373
H3    H     H_    0.835211 0.402933 0.779479 0.129400
H4    H     H_    0.164761 0.902708 0.220642 0.128695
C13   C     C_R   0.815529 0.123194 0.816948 -0.109247
C14   C     C_R   0.184484 0.623253 0.183031 -0.108217
C15   C     C_R   0.762593 0.981823 0.802704 0.073258
C16   C     C_R   0.237450 0.482089 0.197190 0.071300
C17   C     C_3   0.768172 0.775009 0.792017 -0.447142
C18   C     C_3   0.231935 0.275153 0.207702 -0.446782
C19   C     C_3   0.696199 0.788031 0.723995 0.113313
C20   C     C_3   0.303887 0.288174 0.275767 0.113246
H5    H     H_    0.765152 0.694473 0.845024 0.211198
H6    H     H_    0.235008 0.195038 0.154638 0.211003
H7    H     H_    0.814875 0.738129 0.771099 0.140932
H8    H     H_    0.185226 0.237796 0.228557 0.141385
H9    H     H_    0.700554 0.754896 0.663956 0.084733
H10   H     H_    0.299512 0.254609 0.335769 0.085340
C21   C     C_R   0.325996 0.988035 0.633481 -0.211882
C22   C     C_R   0.676874 0.802288 0.365224 -0.214039
C23   C     C_R   0.369912 0.147148 0.635755 -0.079974
C24   C     C_R   0.631179 0.648305 0.365548 -0.079676
C25   C     C_R   0.365978 0.300455 0.684934 -0.201945
C26   C     C_R   0.633358 0.488644 0.319079 -0.202150
C27   C     C_R   0.319057 0.295634 0.731410 0.080994
C28   C     C_R   0.679814 0.483238 0.271926 0.082322
C29   C     C_R   0.274432 0.136783 0.727823 0.056141
C30   C     C_R   0.725993 0.637535 0.272676 0.056053
C31   C     C_R   0.277822 0.982670 0.678530 0.094159
C32   C     C_R   0.724771 0.797082 0.319897 0.093960
C33   C     C_R   0.315843 0.447112 0.781337 -0.167824
C34   C     C_R   0.680827 0.326505 0.223808 -0.170937
C35   C     C_R   0.268165 0.442470 0.826629 -0.176807
C36   C     C_R   0.727807 0.321396 0.177672 -0.174189
C37   C     C_R   0.222863 0.286232 0.822823 0.086140
C38   C     C_R   0.774731 0.472765 0.178921 0.085532
C39   C     C_R   0.226251 0.132159 0.773516 0.057264
C40   C     C_R   0.773514 0.632259 0.226168 0.056892
C41   C     C_R   0.181563 0.973418 0.769842 0.092425
C42   C     C_R   0.819735 0.786480 0.226992 0.093848
C43   C     C_R   0.184847 0.821825 0.720000 -0.190177
C44   C     C_R   0.818664 0.943313 0.275032 -0.193123
C45   C     C_R   0.232576 0.826365 0.674779 -0.193601
C46   C     C_R   0.771645 0.948508 0.321103 -0.191594
C47   C     C_R   0.174579 0.280985 0.867756 -0.206482
C48   C     C_R   0.822711 0.467514 0.133666 -0.205914
C49   C     C_R   0.130403 0.122184 0.865221 -0.080610
C50   C     C_R   0.868611 0.621274 0.133573 -0.079277
C51   C     C_R   0.134443 0.968847 0.816078 -0.219990
C52   C     C_R   0.866343 0.780913 0.180037 -0.220140
H11   H     H_    0.328266 0.869693 0.595478 0.119876
H12   H     H_    0.675971 0.925369 0.401300 0.118520
H13   H     H_    0.399832 0.423345 0.687503 0.149251
H14   H     H_    0.598090 0.369862 0.318653 0.148772
H15   H     H_    0.349950 0.569876 0.785031 0.148945
H16   H     H_    0.645525 0.207211 0.222163 0.149178
H17   H     H_    0.266475 0.561707 0.864365 0.141524
H18   H     H_    0.727738 0.198291 0.141329 0.143123
H19   H     H_    0.172377 0.399307 0.905794 0.130489
H20   H     H_    0.823550 0.344496 0.097537 0.129733
H21   H     H_    0.100487 0.846077 0.813276 0.127977
H22   H     H_    0.901671 0.899655 0.180646 0.126713
H23   H     H_    0.150724 0.699085 0.716281 0.131946
H24   H     H_    0.853974 0.062597 0.276691 0.131502
H25   H     H_    0.234291 0.707089 0.637072 0.128919
H26   H     H_    0.771690 0.071653 0.357416 0.130582
O11   O     O_R   0.937800 0.775460 0.060470 -0.537104
O12   O     O_R   0.062200 0.275460 0.939530 -0.538881
O13   O     O_R   0.087350 0.441340 0.093710 -0.539084
O14   O     O_R   0.912650 0.941340 0.906290 -0.538891
C53   C     C_R   0.114710 0.610330 0.116403 0.700645
C54   C     C_R   0.885296 0.110308 0.883589 0.701387
O15   O     O_R   0.939820 0.446010 0.069950 -0.543728
O16   O     O_R   0.060180 0.946010 0.930050 -0.542817
O17   O     O_R   0.913690 0.271230 0.915700 -0.538292
O18   O     O_R   0.086310 0.771230 0.084300 -0.537775
C55   C     C_R   0.918454 0.614214 0.084710 0.706597
C56   C     C_R   0.081247 0.114390 0.914917 0.707275
O19   O     O_3   0.991670 0.603050 0.949510 -0.375681
O20   O     O_3   0.008330 0.103050 0.050490 -0.375701
V3    V     V_3+5 0.001550 0.329940 0.009370 1.399836
V4    V     V_3+5 0.998450 0.829940 0.990630 1.402026
Br1   Br    Br    0.616218 0.666074 0.748773 -0.522267
Br2   Br    Br    0.383947 0.166974 0.250971 -0.523390

loop_
_geom_bond_atom_site_label_1
_geom_bond_atom_site_label_2
_ccdc_geom_bond_type
C44   C46   A    
C41   C43   A    
C2    C23   S    
C20   Br2   S    
C20   H10   S    
O1    C3    A    
O2    C4    A    
C2    O7    A    
O20   V4    S    
C25   C27   A    
O5    C3    A    
C17   H7    S    
C18   H8    S    
C7    C9    A    
C36   H18   S    
C44   H24   S    
C17   C19   S    
C35   C37   A    
C32   C46   A    
C50   C55   S    
C36   C38   A    
C54   O17   A    
C45   H25   S    
C38   C40   A    
C26   H14   S    
C47   C49   A    
C40   C42   A    
O13   V3    S    
C21   C31   A    
C22   C24   A    
C27   C29   A    
C29   C39   A    
C46   H26   S    
C15   C17   S    
C48   H20   S    
C18   C20   S    
O12   C56   A    
O15   V3    S    
O5    V1    S    
O6    V2    S    
C21   H11   S    
O11   V4    S    
O11   C55   A    
C19   H9    S    
O20   V3    S    
C30   C32   A    
C43   H23   S    
C23   C25   A    
C11   C13   A    
O17   V3    S    
C24   C26   A    
C3    C8    S    
C37   C39   A    
C50   C52   A    
C49   C51   A    
C53   O18   A    
C41   C51   A    
C43   C45   A    
O16   C56   A    
C28   C34   A    
C29   C31   A    
C42   C44   A    
O4    V2    S    
C14   C53   S    
C47   H19   S    
C33   H15   S    
C28   C30   A    
C38   C48   A    
O6    C4    A    
C27   C33   A    
C39   C41   A    
O19   V3    S    
O1    V2    S    
C52   H22   S    
O14   C54   A    
O2    V1    S    
C21   C23   A    
C51   H21   S    
C37   C47   A    
O4    C2    A    
C49   C56   S    
C8    C10   A    
C12   C14   A    
C33   C35   A    
C5    C15   A    
C10   H2    S    
C6    C16   A    
C25   H13   S    
O3    V1    S    
C9    C11   A    
O14   V4    S    
C18   H6    S    
O18   V4    S    
O3    C1    A    
C34   H16   S    
C13   C54   S    
C48   C50   A    
C11   H3    S    
C1    C24   S    
C12   H4    S    
O16   V4    S    
C9    H1    S    
O7    V1    S    
C1    O8    A    
C13   C15   A    
C30   C40   A    
C14   C16   A    
C4    C7    S    
C26   C28   A    
C5    C7    A    
C34   C36   A    
O19   V4    S    
C6    C8    A    
C31   C45   A    
C35   H17   S    
C17   H5    S    
C19   Br1   S    
C22   C32   A    
O12   V3    S    
O13   C53   A    
C10   C12   A    
O9    V2    S    
C42   C52   A    
O10   V1    S    
O8    V2    S    
C5    C19   S    
C22   H12   S    
C6    C20   S    
O15   C55   A    
C16   C18   S    
