data_mof_unit_2201.cif
_audit_creation_date              2012-12-11T14:24:52-0500
_audit_creation_method            fapswitch 2.2
_symmetry_space_group_name_H-M    P1
_symmetry_Int_Tables_number       1
_space_group_crystal_system       triclinic
_cell_length_a                    19.494737
_cell_length_b                    11.218296
_cell_length_c                    18.394565
_cell_angle_alpha                 89.612784
_cell_angle_beta                  90.886081
_cell_angle_gamma                 89.887631
_cell_volume                      4022.2681134

loop_
_atom_site_label
_atom_site_type_symbol
_atom_type_description
_atom_site_fract_x
_atom_site_fract_y
_atom_site_fract_z
_atom_type_partial_charge
C1    C     C_R   0.713987 0.332756 0.138710 0.550192
C2    C     C_R   0.226819 0.846960 0.060133 -0.010295
C3    C     C_R   0.616350 0.484980 0.458087 -0.056508
C4    C     C_R   0.930002 0.025026 0.488722 -0.085138
C5    C     C_R   0.076436 0.050757 0.505116 -0.108702
C6    C     C_R   0.419644 0.554709 0.492223 -0.097365
C7    C     C_R   0.570734 0.539194 0.503233 -0.095212
C8    C     C_R   0.935718 0.996926 0.415693 -0.065993
C9    C     C_R   0.066679 0.015564 0.576860 -0.113773
C10   C     C_R   0.429184 0.522883 0.420241 -0.079949
C11   C     C_R   0.563818 0.504852 0.575280 -0.096158
C12   C     C_R   0.891490 0.913409 0.386722 -0.048955
C13   C     C_R   0.261516 0.380441 0.935848 -0.006610
C14   C     C_R   0.109665 0.930154 0.606966 -0.044121
C15   C     C_R   0.390889 0.430909 0.392051 -0.066356
C16   C     C_R   0.611171 0.426432 0.604815 -0.041040
C17   C     C_R   0.772685 0.859489 0.397555 0.034114
C18   C     C_R   0.227486 0.866097 0.599963 -0.001298
C19   C     C_R   0.274572 0.363853 0.397950 0.013491
C20   C     C_R   0.731559 0.375104 0.596539 0.019731
C21   C     C_R   0.712763 0.336098 0.363579 0.566636
C22   C     C_R   0.287088 0.336242 0.635837 0.574086
C23   C     C_R   0.211863 0.834212 0.363664 0.577629
C24   C     C_R   0.725644 0.344259 0.059481 -0.010717
C25   C     C_R   0.789241 0.831521 0.636399 0.579855
C26   C     C_R   0.531884 0.156026 0.351992 0.551267
C27   C     C_R   0.468030 0.156008 0.647845 0.543663
C28   C     C_R   0.031504 0.656172 0.352033 0.556479
C29   C     C_R   0.968475 0.655987 0.648109 0.532686
C30   C     C_R   0.748084 0.952732 0.342998 0.582404
C31   C     C_R   0.252597 0.955660 0.654621 0.545475
C32   C     C_R   0.248113 0.454279 0.343718 0.558516
C33   C     C_R   0.753702 0.458667 0.652988 0.552009
C34   C     C_3   0.528048 0.256171 0.969933 -0.100281
C35   C     C_R   0.716432 0.796702 0.980690 0.019726
C36   C     C_3   0.472132 0.261018 0.028583 -0.098012
C37   C     C_3   0.029086 0.757106 0.969590 -0.100281
C38   C     C_3   0.973177 0.758527 0.028327 -0.100030
C39   C     C_3   0.565864 0.156555 0.012960 -0.117596
C40   C     C_3   0.430715 0.164190 0.987891 -0.116470
C41   C     C_3   0.068351 0.658494 0.012093 -0.119643
C42   C     C_3   0.933117 0.660436 0.987310 -0.117787
C43   C     C_3   0.509280 0.161493 0.070395 0.046138
C44   C     C_3   0.487468 0.159526 0.930734 0.048376
C45   C     C_3   0.011694 0.660317 0.069475 0.048049
C46   C     C_R   0.283949 0.798379 0.020599 0.020070
C47   C     C_3   0.989692 0.659344 0.929876 0.046199
C48   C     C_2   0.552708 0.923425 0.648409 0.634555
C49   C     C_2   0.443841 0.927115 0.353473 0.698387
C50   C     C_2   0.054644 0.423763 0.640094 0.611825
C51   C     C_2   0.928101 0.447560 0.354849 0.573979
C52   C     C_2   0.670039 0.793572 0.546988 0.625058
C53   C     C_2   0.333323 0.825816 0.456933 0.628586
C54   C     C_2   0.164395 0.282547 0.539366 0.619588
C55   C     C_2   0.796335 0.180226 0.458788 0.641005
C56   C     C_2   0.059204 0.139131 0.107049 0.555145
C57   C     C_R   0.205720 0.328534 0.975254 0.016068
C58   C     C_2   0.933182 0.123122 0.883624 0.557860
C59   C     C_2   0.564698 0.627698 0.117522 0.562939
C60   C     C_2   0.437711 0.633514 0.885570 0.554498
C61   C     C_R   0.782401 0.294939 0.019616 0.019011
C62   C     C_R   0.715607 0.813711 0.057129 -0.001279
C63   C     C_R   0.284313 0.814487 0.944087 -0.004615
C64   C     C_R   0.209619 0.328727 0.052195 -0.001630
C65   C     C_R   0.273027 0.366302 0.857246 0.547784
C66   C     C_R   0.783075 0.311869 0.943096 -0.002685
C67   C     C_R   0.821342 0.923349 0.052373 -0.152648
C68   C     C_R   0.179593 0.929242 0.948995 -0.153791
C69   C     C_R   0.317537 0.432029 0.049532 -0.157513
C70   C     C_R   0.678056 0.424134 0.947577 -0.153661
C71   C     C_R   0.827041 0.898639 0.979704 -0.168351
C72   C     C_R   0.173720 0.903064 0.021313 -0.169070
C73   C     C_R   0.318397 0.422896 0.975445 -0.160805
C74   C     C_R   0.672109 0.398645 0.020273 -0.168019
C75   C     C_R   0.660096 0.733382 0.950144 -0.131032
C76   C     C_R   0.214339 0.833553 0.138764 0.550131
C77   C     C_R   0.341264 0.737217 0.051783 -0.128554
C78   C     C_R   0.146537 0.276730 0.942977 -0.129287
C79   C     C_R   0.838836 0.231425 0.050388 -0.129728
C80   C     C_R   0.098441 0.216313 0.985523 -0.159989
C81   C     C_R   0.888763 0.180172 0.006377 -0.170646
C82   C     C_R   0.609748 0.682756 0.994295 -0.170112
C83   C     C_R   0.392386 0.688457 0.008179 -0.171891
C84   C     C_R   0.614795 0.688139 0.069880 0.056446
C85   C     C_R   0.386995 0.692825 0.932567 0.050425
C86   C     C_R   0.107606 0.205697 0.060824 0.057952
C87   C     C_R   0.785500 0.833501 0.861510 0.550343
C88   C     C_R   0.883393 0.184877 0.930779 0.052357
C89   C     C_R   0.668495 0.752162 0.100611 -0.074426
C90   C     C_R   0.331936 0.753500 0.901207 -0.080310
C91   C     C_R   0.163380 0.261638 0.093379 -0.073312
C92   C     C_R   0.829765 0.249696 0.899771 -0.074129
C93   C     C_R   0.531446 0.155515 0.145849 0.540938
C94   C     C_R   0.467414 0.154724 0.854820 0.546560
C95   C     C_R   0.032230 0.655266 0.145347 0.539347
C96   C     C_R   0.968155 0.654772 0.854340 0.537108
C97   C     C_R   0.762169 0.893002 0.089182 0.008491
C98   C     C_3   0.468415 0.064482 0.030849 -0.109886
C99   C     C_R   0.237836 0.894544 0.911635 0.001956
C100  C     C_R   0.259723 0.397845 0.087106 0.005303
C101  C     C_R   0.737103 0.392469 0.910847 0.006979
C102  C     C_R   0.497467 0.156672 0.575433 0.019120
C103  C     C_R   0.501487 0.156967 0.423845 0.022761
C104  C     C_R   0.998859 0.656045 0.575940 0.012792
C105  C     C_R   0.000505 0.659333 0.424057 0.022753
C106  C     C_R   0.506504 0.046936 0.538048 0.023949
C107  C     C_R   0.493983 0.047380 0.461913 0.020706
C108  C     C_R   0.002083 0.547951 0.536840 0.012143
C109  C     C_3   0.524562 0.059708 0.972660 -0.107269
C110  C     C_R   0.986066 0.551839 0.461821 0.006290
C111  C     C_R   0.502154 0.262840 0.462000 -0.148233
C112  C     C_R   0.493289 0.262131 0.536047 -0.152623
C113  C     C_R   0.009086 0.762628 0.463817 -0.152857
C114  C     C_R   0.001278 0.761722 0.538127 -0.156757
C115  C     C_R   0.519280 0.935528 0.574273 0.151482
C116  C     C_R   0.481427 0.937230 0.425638 0.156018
C117  C     C_R   0.012340 0.436319 0.571750 0.153627
C118  C     C_R   0.963716 0.446203 0.427042 0.082351
C119  C     C_R   0.990233 0.333932 0.537076 -0.065282
C120  C     C_3   0.972290 0.561964 0.029538 -0.105351
C121  C     C_R   0.971648 0.337861 0.463871 -0.117253
C122  C     C_R   0.509591 0.830832 0.536142 -0.084269
C123  C     C_R   0.495515 0.832354 0.462143 -0.060491
C124  C     C_R   0.789550 0.828674 0.551545 -0.051306
C125  C     C_R   0.213540 0.840103 0.446985 -0.079045
C126  C     C_R   0.284522 0.342050 0.551966 -0.071340
C127  C     C_R   0.718015 0.350083 0.445219 -0.074008
C128  C     C_R   0.842523 0.878040 0.507719 0.022087
C129  C     C_R   0.162339 0.898288 0.488734 -0.011372
C130  C     C_R   0.336420 0.399402 0.510124 -0.011662
C131  C     C_3   0.028329 0.560545 0.971185 -0.109119
C132  C     C_R   0.666570 0.407911 0.486642 0.006756
C133  C     C_R   0.837635 0.871879 0.429870 0.024647
C134  C     C_R   0.164426 0.888035 0.565723 0.015916
C135  C     C_R   0.336524 0.386741 0.433209 0.003478
C136  C     C_R   0.668022 0.394320 0.563100 0.023871
C137  C     C_R   0.725970 0.790952 0.435306 0.196617
C138  C     C_R   0.273284 0.794053 0.563653 0.177483
C139  C     C_R   0.230234 0.289045 0.432993 0.209732
C140  C     C_R   0.778997 0.307060 0.560448 0.198427
C141  C     C_R   0.743870 0.964483 0.152458 0.508655
C142  C     C_R   0.773392 0.845338 0.940640 -0.010420
C143  C     C_R   0.256167 0.964534 0.847654 0.520709
C144  C     C_R   0.243660 0.464602 0.152471 0.515541
C145  C     C_R   0.756027 0.464169 0.847513 0.519271
C146  C     C_R   0.732872 0.781753 0.511638 0.059315
C147  C     C_R   0.269707 0.792183 0.487053 0.015849
C148  C     C_R   0.231497 0.286131 0.510072 0.038551
C149  C     C_R   0.767899 0.286725 0.486471 -0.028455
C150  C     C_R   0.890721 0.958949 0.535226 -0.045695
C151  C     C_R   0.117068 0.984895 0.460138 -0.069045
C152  C     C_R   0.380521 0.486867 0.538026 -0.077719
Cl1   Cl    Cl    0.650277 0.742611 0.390201 -0.606123
Cl2   Cl    Cl    0.347095 0.741271 0.610840 -0.597438
Cl3   Cl    Cl    0.163544 0.224296 0.380382 -0.569329
Cl4   Cl    Cl    0.845771 0.234071 0.609798 -0.573783
Cr1   Cr    Cr6+3 0.772820 0.169820 0.252640 1.042763
Cr2   Cr    Cr6+3 0.383280 0.011130 0.749340 1.118662
Cr3   Cr    Cr6+3 0.116720 0.511130 0.250660 1.123373
Cr4   Cr    Cr6+3 0.883280 0.511130 0.749340 1.105068
Cr5   Cr    Cr6+3 0.227180 0.169820 0.747360 1.041671
Cr6   Cr    Cr6+3 0.272820 0.669820 0.252640 1.048591
Cr7   Cr    Cr6+3 0.727180 0.669820 0.747360 1.025288
Cr8   Cr    Cr6+3 0.615040 0.323610 0.249150 1.050204
Cr9   Cr    Cr6+3 0.384960 0.323610 0.750850 1.051335
Cr10  Cr    Cr6+3 0.115040 0.823610 0.249150 1.044296
Cr11  Cr    Cr6+3 0.884960 0.823610 0.750850 1.051700
Cr12  Cr    Cr6+3 0.616720 0.011130 0.250660 1.110442
H1    H     H_    0.621810 0.152452 0.025049 0.118606
H2    H     H_    0.966504 0.255758 0.434756 0.158997
H3    H     H_    0.516614 0.747569 0.564219 0.131437
H4    H     H_    0.490520 0.751351 0.432384 0.162279
H5    H     H_    0.896657 0.985214 0.590410 0.193020
H6    H     H_    0.112210 0.011956 0.404950 0.213525
H7    H     H_    0.383177 0.516255 0.592659 0.216693
H8    H     H_    0.612236 0.515863 0.403372 0.212706
H9    H     H_    0.951649 0.103335 0.510515 0.118167
H10   H     H_    0.052837 0.129387 0.482407 0.145456
H11   H     H_    0.441936 0.632463 0.514756 0.145241
H12   H     H_    0.374786 0.167100 0.975470 0.125643
H13   H     H_    0.543678 0.611836 0.480967 0.117491
H14   H     H_    0.969973 0.046195 0.380871 0.139892
H15   H     H_    0.029447 0.059397 0.610595 0.117972
H16   H     H_    0.463629 0.571404 0.385400 0.147941
H17   H     H_    0.525166 0.544443 0.609183 0.124022
H18   H     H_    0.891040 0.899571 0.328440 0.119525
H19   H     H_    0.106850 0.911339 0.664743 0.125671
H20   H     H_    0.394521 0.411480 0.334552 0.127102
H21   H     H_    0.609471 0.406178 0.662473 0.126739
H22   H     H_    0.550761 0.332907 0.941353 0.137445
H23   H     H_    0.124305 0.656416 0.024273 0.115689
H24   H     H_    0.450943 0.342046 0.053562 0.144380
H25   H     H_    0.051520 0.835076 0.941946 0.141298
H26   H     H_    0.951689 0.837779 0.054825 0.136966
H27   H     H_    0.443402 0.986854 0.057140 0.139573
H28   H     H_    0.546600 0.978052 0.948359 0.140421
H29   H     H_    0.948479 0.482850 0.055469 0.139734
H30   H     H_    0.051283 0.480458 0.946090 0.132935
H31   H     H_    0.861915 0.973116 0.078821 0.141204
H32   H     H_    0.139965 0.984042 0.923787 0.157518
H33   H     H_    0.360304 0.474918 0.076816 0.143318
H34   H     H_    0.877168 0.659316 0.975190 0.116874
H35   H     H_    0.637834 0.475688 0.921149 0.142369
H36   H     H_    0.651862 0.721037 0.893016 0.180741
H37   H     H_    0.350142 0.725985 0.109004 0.179666
H38   H     H_    0.134537 0.284854 0.885820 0.155839
H39   H     H_    0.847581 0.219400 0.107556 0.184296
H40   H     H_    0.873731 0.924688 0.953547 0.197190
H41   H     H_    0.127671 0.931392 0.047530 0.206772
H42   H     H_    0.364903 0.449732 0.949498 0.202928
H43   H     H_    0.625627 0.425756 0.046367 0.199896
H44   H     H_    0.053663 0.179450 0.959617 0.179274
H45   H     H_    0.510082 0.345699 0.434126 0.142155
H46   H     H_    0.930594 0.133385 0.031726 0.186710
H47   H     H_    0.567607 0.636452 0.969222 0.183447
H48   H     H_    0.435404 0.644359 0.033726 0.183692
H49   H     H_    0.674466 0.751568 0.159244 0.176112
H50   H     H_    0.325739 0.751667 0.842609 0.174145
H51   H     H_    0.171611 0.250612 0.151458 0.174518
H52   H     H_    0.823636 0.249870 0.841150 0.179843
H53   H     H_    0.556564 0.835543 0.744552 0.339145
H54   H     H_    0.426210 0.831209 0.262565 0.339423
H55   H     H_    0.066963 0.343411 0.737988 0.333561
H56   H     H_    0.481232 0.343362 0.562957 0.144164
H57   H     H_    0.911938 0.365897 0.258663 0.348272
H58   H     H_    0.613478 0.724024 0.627569 0.345286
H59   H     H_    0.322473 0.994533 0.496698 0.307333
H60   H     H_    0.102035 0.220828 0.616321 0.332637
H61   H     H_    0.862410 0.269527 0.399151 0.319037
H62   H     H_    0.996841 0.998387 0.119003 0.325440
H63   H     H_    0.006840 0.998574 0.874094 0.327129
H64   H     H_    0.494131 0.498717 0.129658 0.326271
H65   H     H_    0.506566 0.501526 0.873385 0.326194
H66   H     H_    0.022347 0.843205 0.436734 0.144930
H67   H     H_    0.995169 0.842218 0.567034 0.140541
H68   H     H_    0.995994 0.250215 0.565076 0.129652
O1    O     O_R   0.788190 0.043000 0.172520 -0.555258
O2    O     O_R   0.454170 0.051610 0.669840 -0.481504
O3    O     O_R   0.045830 0.551610 0.330160 -0.463104
O4    O     O_R   0.954170 0.551610 0.669840 -0.483712
O5    O     O_R   0.681920 0.959720 0.327070 -0.430933
O6    O     O_R   0.318080 0.959720 0.672930 -0.438598
O7    O     O_R   0.181920 0.459720 0.327070 -0.428258
O8    O     O_R   0.818080 0.459720 0.672930 -0.447365
O9    O     O_3   0.668190 0.168190 0.250820 -0.321044
O10   O     O_3   0.331810 0.168190 0.749180 -0.309534
O11   O     O_3   0.168190 0.668190 0.250820 -0.328941
O12   O     O_R   0.211810 0.043000 0.827480 -0.536917
O13   O     O_3   0.831810 0.668190 0.749180 -0.327066
O14   O     O_R   0.766240 0.292300 0.176860 -0.513229
O15   O     O_R   0.233760 0.292300 0.823140 -0.511449
O16   O     O_R   0.266240 0.792300 0.176860 -0.512999
O17   O     O_R   0.733760 0.792300 0.823140 -0.509099
O18   O     O_R   0.670310 0.409160 0.168720 -0.475234
O19   O     O_R   0.329690 0.409160 0.831280 -0.489128
O20   O     O_R   0.170310 0.909160 0.168720 -0.477212
O21   O     O_R   0.829690 0.909160 0.831280 -0.471456
O22   O     O_R   0.556160 0.251900 0.173380 -0.518170
O23   O     O_R   0.288190 0.543000 0.172520 -0.553838
O24   O     O_R   0.443840 0.251900 0.826620 -0.505162
O25   O     O_R   0.056160 0.751900 0.173380 -0.521315
O26   O     O_R   0.943840 0.751900 0.826620 -0.517086
O27   O     O_R   0.545410 0.050140 0.168240 -0.497635
O28   O     O_R   0.454590 0.050140 0.831760 -0.496375
O29   O     O_R   0.045410 0.550140 0.168240 -0.494525
O30   O     O_R   0.954590 0.550140 0.831760 -0.497749
O31   O     O_R   0.681530 0.958350 0.176970 -0.509416
O32   O     O_R   0.318470 0.958350 0.823030 -0.501523
O33   O     O_R   0.181530 0.458350 0.176970 -0.505212
O34   O     O_R   0.711810 0.543000 0.827480 -0.553546
O35   O     O_R   0.818470 0.458350 0.823030 -0.501489
O36   O     O_R   0.788610 0.044480 0.334450 -0.461869
O37   O     O_R   0.211390 0.044480 0.665550 -0.486155
O38   O     O_R   0.288610 0.544480 0.334450 -0.507176
O39   O     O_R   0.711390 0.544480 0.665550 -0.501227
O40   O     O_R   0.766630 0.293670 0.326970 -0.466650
O41   O     O_R   0.233370 0.293670 0.673030 -0.422117
O42   O     O_R   0.266630 0.793670 0.326970 -0.419850
O43   O     O_R   0.733370 0.793670 0.673030 -0.438126
O44   O     O_R   0.670730 0.410640 0.330640 -0.493256
O45   O     O_R   0.556550 0.253260 0.323480 -0.534541
O46   O     O_R   0.329270 0.410640 0.669360 -0.499211
O47   O     O_R   0.170730 0.910640 0.330640 -0.492197
O48   O     O_R   0.829270 0.910640 0.669360 -0.473475
O49   O     O_2   0.595137 0.996651 0.668959 -0.469462
O50   O     O_R   0.531611 0.832949 0.695813 -0.683755
O51   O     O_2   0.404939 0.006549 0.332703 -0.485098
O52   O     O_R   0.454164 0.827513 0.309474 -0.654345
O53   O     O_2   0.104155 0.488682 0.650427 -0.495333
O54   O     O_R   0.035168 0.342158 0.693849 -0.682354
O55   O     O_2   0.889858 0.530229 0.338161 -0.524404
O56   O     O_R   0.443450 0.253260 0.676520 -0.537308
O57   O     O_R   0.938916 0.354823 0.305802 -0.664698
O58   O     O_2   0.647470 0.894105 0.549697 -0.489882
O59   O     O_R   0.644362 0.699615 0.587098 -0.673945
O60   O     O_2   0.364674 0.756105 0.419655 -0.473651
O61   O     O_R   0.354710 0.943526 0.467259 -0.687750
O62   O     O_2   0.122517 0.350609 0.512904 -0.516872
O63   O     O_R   0.148207 0.205548 0.595193 -0.645660
O64   O     O_2   0.770695 0.086123 0.476771 -0.455342
O65   O     O_R   0.851313 0.185222 0.412496 -0.654107
O66   O     O_2   0.049375 0.171341 0.169467 -0.492281
O67   O     O_R   0.056550 0.753260 0.323480 -0.542131
O68   O     O_R   0.026701 0.037109 0.080919 -0.738887
O69   O     O_2   0.936706 0.149716 0.819158 -0.484715
O70   O     O_R   0.975513 0.033134 0.912090 -0.737747
O71   O     O_2   0.558477 0.659386 0.180613 -0.490847
O72   O     O_R   0.525548 0.532756 0.091348 -0.744941
O73   O     O_2   0.445822 0.668752 0.823199 -0.489917
O74   O     O_R   0.474815 0.534982 0.911359 -0.741854
O75   O     O_R   0.943450 0.753260 0.676520 -0.542844
O76   O     O_R   0.545830 0.051610 0.330160 -0.492825

loop_
_geom_bond_atom_site_label_1
_geom_bond_atom_site_label_2
_ccdc_geom_bond_type
C94   O28   A    
C105  C110  A    
C24   C61   A    
C6    H11   S    
C50   C117  S    
C10   H16   S    
C4    H9    S    
C25   O43   A    
C110  C118  A    
C22   O41   A    
C141  O31   A    
C99   C143  S    
C117  C119  A    
C60   O74   S    
C106  C107  A    
C51   C118  S    
C109  H28   S    
C38   C45   S    
H54   O52   S    
C40   H12   S    
C102  C112  A    
C30   O5    A    
C70   C74   A    
C96   O26   A    
H65   O74   S    
H63   O70   S    
C138  Cl2   S    
C98   C109  S    
H60   O63   S    
C17   C30   S    
C112  H56   S    
C19   C32   S    
C57   C78   A    
C23   O42   A    
C39   C109  S    
C96   O30   A    
C113  H66   S    
Cr7   O34   S    
C137  C146  A    
C59   C84   S    
Cr5   O12   S    
C100  C144  S    
C41   C131  S    
C7    H13   S    
Cr1   O36   S    
C47   C131  S    
Cr11  O26   S    
C37   H25   S    
C51   O55   D    
C37   C38   S    
C77   H37   S    
C48   O49   D    
C56   C86   S    
C36   C40   S    
C68   C72   A    
C120  H29   S    
C137  Cl1   S    
Cr5   O37   S    
Cr2   O2    S    
C20   C33   S    
C45   C120  S    
C128  C150  A    
C13   C73   A    
Cr2   O28   S    
C130  C152  A    
C76   O16   A    
C21   O40   A    
C1    O18   A    
C52   C146  S    
Cr9   O46   S    
C111  H45   S    
C58   C88   S    
C46   C77   A    
C85   C90   A    
C4    C150  A    
C74   H43   S    
C3    C7    A    
C5    C151  A    
C106  C115  A    
C39   H1    S    
C40   C98   S    
C14   H19   S    
Cr7   O43   S    
C79   H39   S    
C65   O19   A    
C81   C88   A    
C44   C94   S    
C16   H21   S    
C82   H47   S    
C69   C100  A    
C125  C129  A    
C3    H8    S    
C95   O25   A    
C19   C139  A    
C41   C45   S    
C17   C137  A    
C18   C31   S    
Cr11  O21   S    
C64   C91   A    
C27   O2    A    
Cr3   O33   S    
Cr4   O30   S    
C116  C123  A    
C31   O6    A    
C111  C112  A    
C87   O21   A    
Cr1   O40   S    
C59   O71   D    
C83   H48   S    
C70   C101  A    
C101  C145  S    
C105  C113  A    
C28   O3    A    
C78   C80   A    
C13   C57   A    
C143  O12   A    
C18   C138  A    
Cr2   O6    S    
Cr6   O11   S    
C63   C99   A    
C94   O24   A    
C26   O45   A    
C80   C86   A    
C37   C47   S    
C54   O62   D    
C123  H4    S    
C8    C12   A    
C80   H44   S    
C121  H2    S    
C52   O59   S    
C151  H6    S    
C66   C101  A    
Cr10  O47   S    
C55   C149  S    
C119  C121  A    
C139  C148  A    
C41   H23   S    
C34   C39   S    
C34   H22   S    
C30   O36   A    
C22   O46   A    
C66   C92   A    
C124  C146  A    
C20   C136  A    
C129  C134  A    
C29   C104  S    
C145  O34   A    
C28   O67   A    
C5    C9    A    
C62   C97   A    
C72   H41   S    
C139  Cl3   S    
C132  C136  A    
Cr4   O8    S    
C50   O53   D    
Cr8   O9    S    
Cr9   O56   S    
C71   C142  A    
C27   O56   A    
C42   H34   S    
H62   O68   S    
C45   C95   S    
C54   C148  S    
C29   O4    A    
C36   H24   S    
C108  C117  A    
Cr8   O18   S    
Cr9   O10   S    
C103  C107  A    
C75   C82   A    
C114  H67   S    
C23   O47   A    
C15   H20   S    
C27   C102  S    
C46   C63   A    
Cr12  O9    S    
Cr5   O41   S    
C127  C149  A    
Cr6   O38   S    
C42   C120  S    
C61   C79   A    
C108  C110  A    
C18   C134  A    
C34   C36   S    
C37   C41   S    
C76   O20   A    
C107  C116  A    
C90   H50   S    
C35   C142  A    
C40   C44   S    
C150  H5    S    
C1    C24   S    
C122  H3    S    
H55   O54   S    
Cr1   O9    S    
C140  C149  A    
C16   C136  A    
C49   O52   S    
C120  C131  S    
H61   O65   S    
C130  C135  A    
Cr7   O39   S    
C129  C151  A    
C58   O69   D    
C67   H31   S    
C86   C91   A    
C95   O29   A    
C126  C130  A    
C19   C135  A    
C62   C89   A    
C103  C111  A    
C143  O32   A    
Cr7   O17   S    
C144  O23   A    
C152  H7    S    
C48   O50   S    
C56   O66   D    
C26   O76   A    
C47   C96   S    
C69   C73   A    
C53   O60   D    
C124  C128  A    
C6    C152  A    
C44   C109  S    
C2    C72   A    
Cr4   O13   S    
Cr3   O7    S    
C3    C132  A    
C131  H30   S    
C125  C147  A    
C60   O73   D    
Cr5   O15   S    
C126  C148  A    
C33   O39   A    
Cr11  O75   S    
C38   H26   S    
Cr9   O19   S    
C9    C14   A    
C78   H38   S    
C9    H15   S    
C26   C103  S    
C11   C16   A    
Cr12  O5    S    
C28   C105  S    
C12   H18   S    
C97   C141  S    
Cr1   O1    S    
C71   H40   S    
C83   C85   A    
Cr6   O23   S    
C31   O37   A    
Cr12  O31   S    
C104  C108  A    
C2    C76   S    
C113  C114  A    
C8    H14   S    
C70   H35   S    
Cr4   O35   S    
C6    C10   A    
C60   C85   S    
H58   O59   S    
C145  O35   A    
C20   C140  A    
C144  O33   A    
Cr10  O67   S    
C56   O68   S    
H57   O57   S    
C43   C93   S    
Cr8   O45   S    
C67   C71   A    
C87   C142  S    
H53   O50   S    
C67   C97   A    
C93   O22   A    
C119  H68   S    
C64   C100  A    
C49   C116  S    
Cr3   O3    S    
C36   C43   S    
C29   O75   A    
Cr12  O76   S    
C54   O63   S    
C69   H33   S    
Cr8   O22   S    
C43   C98   S    
C53   O61   S    
C4    C8    A    
Cr1   O14   S    
Cr6   O42   S    
C13   C65   S    
C2    C46   A    
C7    C11   A    
C35   C75   A    
Cr10  O11   S    
C38   C42   S    
C10   C15   A    
C22   C126  S    
C15   C135  A    
C77   C83   A    
C53   C147  S    
Cr10  O25   S    
C92   H52   S    
C127  C132  A    
Cr6   O16   S    
C61   C66   A    
C88   C92   A    
Cr10  O20   S    
H59   O61   S    
C50   O54   S    
Cr11  O48   S    
C23   C125  S    
C115  C122  A    
C59   O72   S    
Cr12  O27   S    
C5    H10   S    
Cr2   O32   S    
C73   H42   S    
Cr7   O13   S    
C34   C44   S    
C21   O44   A    
C79   C81   A    
C1    O14   A    
C55   O65   S    
C39   C43   S    
C14   C134  A    
C118  C121  A    
C81   H46   S    
C138  C147  A    
C25   O48   A    
Cr3   O11   S    
C48   C115  S    
C104  C114  A    
C140  Cl4   S    
C12   C133  A    
C65   O15   A    
C32   O7    A    
C21   C127  S    
C84   C89   A    
C57   C64   A    
C49   O51   D    
C141  O1    A    
Cr4   O4    S    
C11   H17   S    
C75   H36   S    
Cr3   O29   S    
C82   C84   A    
Cr11  O13   S    
Cr9   O24   S    
C68   H32   S    
C68   C99   A    
Cr5   O10   S    
C58   O70   S    
C128  C133  A    
C17   C133  A    
C24   C74   A    
H64   O72   S    
C63   C90   A    
C98   H27   S    
C102  C106  A    
C35   C62   A    
C42   C47   S    
C91   H51   S    
C25   C124  S    
C51   O57   S    
C32   O38   A    
C89   H49   S    
C55   O64   D    
C87   O17   A    
Cr8   O44   S    
C33   O8    A    
Cr2   O10   S    
C52   O58   D    
C122  C123  A    
C93   O27   A    
