data_mof_unit_1834.cif
_audit_creation_date              2013-03-05T16:43:03-0500
_audit_creation_method            fapswitch 2.2
_symmetry_space_group_name_H-M    P1
_symmetry_Int_Tables_number       1
_space_group_crystal_system       triclinic
_cell_length_a                    10.653433
_cell_length_b                    10.667347
_cell_length_c                    9.920143
_cell_angle_alpha                 89.043931
_cell_angle_beta                  89.077528
_cell_angle_gamma                 91.802119
_cell_volume                      1126.49304917

loop_
_atom_site_label
_atom_site_type_symbol
_atom_site_description
_atom_site_fract_x
_atom_site_fract_y
_atom_site_fract_z
_atom_type_partial_charge
O1    O     O_R   0.500020 0.316790 0.614690 -0.617936
O2    O     O_R   0.500000 0.316760 0.385350 -0.580148
C1    C     C_R   0.511121 0.261004 0.500168 0.906206
O3    O     O_R   0.314800 0.500000 0.614670 -0.619968
O4    O     O_R   0.314790 0.499960 0.385330 -0.634539
C2    C     C_R   0.257734 0.501717 0.500402 0.869368
Zn1   Zn    Zn3+2 0.500010 0.500020 0.653130 1.015345
Zn2   Zn    Zn3+2 0.499990 0.499980 0.346870 1.060079
O5    O     O_R   0.500000 0.683240 0.614650 -0.593623
O6    O     O_R   0.499980 0.683210 0.385310 -0.583510
O7    O     O_R   0.685210 0.500040 0.614670 -0.640150
O8    O     O_R   0.685200 0.500000 0.385330 -0.576094
C3    C     C_R   0.503704 0.740353 0.499228 0.959562
C4    C     C_R   0.742050 0.501946 0.499094 0.893377
C5    C     C_3   0.065842 0.387834 0.577492 -0.347863
H1    H     H_    0.090015 0.397044 0.685003 0.226906
C6    C     C_3   0.922327 0.382126 0.567009 -0.430811
H2    H     H_    0.879908 0.369492 0.669892 0.214582
H3    H     H_    0.114691 0.632383 0.671225 0.213601
H4    H     H_    0.905061 0.602452 0.687273 0.148258
C7    C     C_3   0.075746 0.624649 0.568217 -0.392088
C8    C     C_3   0.073106 0.502629 0.352750 -0.386905
C9    C     C_3   0.121038 0.504236 0.499883 0.020371
H5    H     H_    0.113883 0.584110 0.293490 0.214561
H6    H     H_    0.101458 0.414922 0.303232 0.196385
C10   C     C_3   0.878359 0.504363 0.498229 -0.032488
C11   C     C_3   0.930884 0.619174 0.578832 0.146846
C12   C     C_3   0.931105 0.508017 0.351654 -0.295781
H7    H     H_    0.892736 0.427157 0.293814 0.225896
H8    H     H_    0.903979 0.594614 0.298346 0.278318
C13   C     C_R   0.537564 0.063733 0.620524 -0.026207
C14   C     C_R   0.542445 0.131454 0.499701 -0.199400
C15   C     C_R   0.570834 0.068556 0.378660 0.302267
C16   C     C_R   0.556464 0.938405 0.378472 -0.140792
H9    H     H_    0.564811 0.890172 0.284081 0.251959
C17   C     C_R   0.526597 0.872781 0.498914 -0.153059
C18   C     C_R   0.532544 0.935694 0.620778 0.083555
C19   C     C_3   0.449068 0.930022 0.744977 0.479804
C20   C     C_3   0.453414 0.072753 0.741414 -0.409944
H10   H     H_    0.362803 0.115413 0.716025 0.245548
H11   H     H_    0.503939 0.116176 0.826963 0.251997
C21   C     C_R   0.420598 0.422228 0.074061 0.190428
N1    N     N_R   0.499150 0.499140 0.142800 -0.165111
C22   C     C_R   0.593244 0.561559 0.066846 0.356799
C23   C     C_R   0.590346 0.563242 0.923414 -0.084149
H12   H     H_    0.661860 0.615150 0.865189 0.219645
N2    N     N_R   0.499150 0.499180 0.857150 -0.157580
C24   C     C_R   0.424961 0.415875 0.932819 0.123343
C25   C     C_3   0.284889 0.393430 0.931179 0.084531
C26   C     C_3   0.281706 0.415204 0.082640 -0.506509
H13   H     H_    0.233052 0.462917 0.870700 0.143291
H14   H     H_    0.242029 0.506944 0.108669 0.194171
H15   H     H_    0.246083 0.334012 0.145315 0.240563
H16   H     H_    0.110890 0.708597 0.509302 0.242750
N3    N     N_R   0.877632 0.738722 0.536342 0.216258
O9    O     O_R   0.808401 0.799417 0.620737 -0.333774
O10   O     O_R   0.905376 0.789776 0.419120 -0.331492
N4    N     N_R   0.610106 0.134063 0.256569 0.235596
O11   O     O_R   0.698663 0.220778 0.260036 -0.382115
O12   O     O_R   0.573018 0.093944 0.140166 -0.306503
N5    N     N_R   0.323718 0.873349 0.722194 0.203690
O13   O     O_R   0.281831 0.778827 0.796360 -0.350993
O14   O     O_R   0.255410 0.913157 0.623569 -0.401089
N6    N     N_R   0.509917 0.878996 0.864950 0.218144
O15   O     O_R   0.628833 0.854488 0.861779 -0.331906
O16   O     O_R   0.450951 0.878369 0.980872 -0.292504
N7    N     N_R   0.699875 0.620713 0.127968 0.221523
O17   O     O_R   0.684670 0.706968 0.216650 -0.333126
O18   O     O_R   0.809745 0.612765 0.069940 -0.401115
H17   H     H_    0.105719 0.299951 0.538616 0.211836
N8    N     N_R   0.251301 0.261917 0.903201 0.219170
O19   O     O_R   0.303213 0.171720 0.970220 -0.332139
O20   O     O_R   0.153989 0.234556 0.830922 -0.378781
H18   H     H_    0.892399 0.299085 0.507463 0.223662

loop_
_geom_bond_atom_site_label_1
_geom_bond_atom_site_label_2
_geom_bond_distance
_ccdc_geom_bond_type
O4    Zn2   2.003520 S    
C26   H14   1.110848 S    
N1    C22   1.390284 A    
C8    H5    1.113892 S    
C5    C6    1.533500 S    
C18   C19   1.507107 S    
H4    C11   1.116118 S    
Zn1   N2    2.023650 S    
C10   C12   1.549820 S    
C13   C14   1.388489 A    
Zn2   N1    2.024735 S    
C7    H16   1.112689 S    
Zn2   O8    2.015685 S    
C19   N5    1.470838 S    
C14   C15   1.418234 A    
C25   C26   1.524187 S    
N3    O9    1.300907 A    
C12   H8    1.105403 S    
C6    H2    1.113896 S    
C7    C11   1.544379 S    
N8    O19   1.302907 A    
C20   H11   1.112055 S    
C8    C12   1.515903 S    
C23   H12   1.081337 S    
C4    C10   1.451458 S    
Zn1   O7    2.003518 S    
C10   C11   1.567303 S    
C1    C14   1.431900 S    
C24   C25   1.504276 S    
C21   C26   1.480222 S    
O3    Zn1   2.015687 S    
O4    C2    1.285304 A    
C6    C10   1.550566 S    
N6    O15   1.301578 A    
C5    C9    1.545296 S    
C17   C18   1.393829 A    
H3    C7    1.112405 S    
O8    C4    1.289528 A    
O2    C1    1.285031 A    
C16   C17   1.401662 A    
N3    O10   1.301489 A    
C7    C9    1.549122 S    
N5    O13   1.301335 A    
O7    C4    1.287527 A    
C11   N3    1.470052 S    
C15   C16   1.392027 A    
N4    O11   1.301585 A    
C26   H15   1.111068 S    
C25   H13   1.111722 S    
C21   N1    1.353627 A    
C2    C9    1.457465 S    
O1    Zn1   1.997667 S    
N4    O12   1.301244 A    
C5    H1    1.106435 S    
C5    H17   1.113517 S    
N2    C24   1.375606 A    
C13   C18   1.365162 A    
C19   C20   1.521611 S    
C22   C23   1.423526 A    
C3    C17   1.425917 S    
N5    O14   1.302157 A    
C16   H9    1.079681 S    
C25   N8    1.468951 S    
C23   N2    1.355291 A    
N8    O20   1.298442 A    
C20   H10   1.110851 S    
Zn1   O5    1.985141 S    
C19   N6    1.469145 S    
O5    C3    1.287448 A    
C8    C9    1.554255 S    
C12   H7    1.114545 S    
C22   N7    1.430436 S    
C21   C24   1.404001 A    
N7    O18   1.301844 A    
C6    H18   1.114019 S    
C15   N4    1.437809 S    
O3    C2    1.295016 A    
O6    C3    1.293500 A    
Zn2   O6    1.997667 S    
O2    Zn2   1.985141 S    
N7    O17   1.295603 A    
C13   C20   1.491904 S    
O1    C1    1.296709 A    
C8    H6    1.111855 S    
N6    O16   1.301269 A    
