data_mof_unit_4331.cif
_audit_creation_date              2012-12-11T16:56:18-0500
_audit_creation_method            fapswitch 2.2
_symmetry_space_group_name_H-M    P1
_symmetry_Int_Tables_number       1
_space_group_crystal_system       triclinic
_cell_length_a                    6.9781
_cell_length_b                    14.519612
_cell_length_c                    16.200787
_cell_angle_alpha                 90.462563
_cell_angle_beta                  90.013406
_cell_angle_gamma                 89.968019
_cell_volume                      1641.39867978

loop_
_atom_site_label
_atom_site_type_symbol
_atom_type_description
_atom_site_fract_x
_atom_site_fract_y
_atom_site_fract_z
_atom_type_partial_charge
O1    O     O_R   0.505830 0.583360 0.413880 -0.517980
O2    O     O_R   0.175830 0.595460 0.585520 -0.545978
O3    O     O_R   0.005520 0.416640 0.586120 -0.544311
C1    C     C_R   0.344511 0.617433 0.614380 0.683075
O4    O     O_R   0.176120 0.594390 0.414490 -0.544897
O5    O     O_R   0.005810 0.415570 0.413870 -0.541553
C2    C     C_R   0.344875 0.615577 0.385457 0.728527
O6    O     O_R   0.505540 0.584430 0.586130 -0.540149
O7    O     O_3   0.339200 0.441330 0.500000 -0.374574
V1    V     V_3+5 0.064350 0.510880 0.500000 1.412274
O8    O     O_R   0.676100 0.404540 0.414480 -0.531628
C3    C     C_R   0.845134 0.382576 0.385803 0.750969
O9    O     O_R   0.675810 0.405610 0.585510 -0.543151
C4    C     C_R   0.845028 0.383770 0.613602 0.728726
V2    V     V_3+5 0.564340 0.489120 0.500000 1.435251
O10   O     O_3   0.839360 0.558670 0.500000 -0.369816
C5    C     C_2   0.721467 0.208822 0.785959 -0.129759
C6    C     C_2   0.885617 0.181728 0.822603 -0.309640
H1    H     H_    0.586347 0.180088 0.806772 0.137048
H2    H     H_    0.022383 0.209770 0.803858 0.128111
C7    C     C_2   0.709115 0.277332 0.717981 -0.135277
C8    C     C_2   0.861578 0.315520 0.680468 -0.307312
H3    H     H_    0.565929 0.296274 0.698008 0.134644
H4    H     H_    0.005890 0.297235 0.698585 0.129473
C9    C     C_R   0.727313 0.181862 0.242338 0.099921
C10   C     C_R   0.882383 0.180620 0.187392 -0.109067
C11   C     C_R   0.034136 0.242104 0.203476 -0.172565
H5    H     H_    0.157023 0.243620 0.162983 0.138325
C12   C     C_R   0.022758 0.306775 0.268581 -0.144986
H6    H     H_    0.137885 0.355879 0.276471 0.139712
C13   C     C_R   0.858971 0.312106 0.319373 -0.096438
C14   C     C_R   0.715622 0.246121 0.306536 0.086012
C15   C     C_3   0.505997 0.259411 0.293909 -0.402729
C16   C     C_3   0.518560 0.188996 0.224274 -0.394952
H7    H     H_    0.471735 0.330002 0.272309 0.192748
H8    H     H_    0.420467 0.235244 0.347393 0.167719
H9    H     H_    0.490723 0.218525 0.162315 0.178956
H10   H     H_    0.441012 0.123939 0.237645 0.164251
C17   C     C_R   0.509573 0.746479 0.691813 0.100029
C18   C     C_R   0.352461 0.687368 0.681802 -0.108722
C19   C     C_R   0.200193 0.697489 0.738279 -0.174383
H11   H     H_    0.076508 0.653123 0.733480 0.133540
C20   C     C_R   0.212410 0.759986 0.805269 -0.174090
H12   H     H_    0.096410 0.762868 0.849426 0.133169
C21   C     C_R   0.378007 0.813763 0.818284 -0.108667
C22   C     C_R   0.522029 0.808011 0.758246 0.101160
C23   C     C_3   0.730900 0.790582 0.768612 -0.414498
C24   C     C_3   0.717415 0.723975 0.696023 -0.398506
H13   H     H_    0.763238 0.756135 0.828033 0.174748
H14   H     H_    0.818423 0.852643 0.755256 0.172104
H15   H     H_    0.742730 0.651000 0.713232 0.170099
H16   H     H_    0.796536 0.747706 0.640585 0.171513
C25   C     C_R   0.519253 0.737143 0.304996 0.043901
C26   C     C_R   0.354462 0.684747 0.318470 -0.074672
C27   C     C_R   0.200321 0.698468 0.264395 -0.157820
H17   H     H_    0.077005 0.655010 0.269266 0.179614
C28   C     C_R   0.211414 0.762202 0.199417 -0.162496
H18   H     H_    0.093482 0.767128 0.156468 0.139997
C29   C     C_R   0.378452 0.814388 0.186382 -0.079909
C30   C     C_R   0.529736 0.802454 0.242122 0.044033
C31   C     C_3   0.731733 0.777754 0.222879 -0.428690
C32   C     C_3   0.717382 0.703814 0.288288 0.114175
H19   H     H_    0.831017 0.834568 0.240136 0.140575
H20   H     H_    0.749257 0.750836 0.158868 0.207092
H21   H     H_    0.813504 0.715179 0.342112 0.100139
O11   O     O_R   0.229930 0.912420 0.917160 -0.540285
O12   O     O_R   0.559420 0.902500 0.088780 -0.538131
O13   O     O_R   0.729660 0.081330 0.089380 -0.536602
C33   C     C_R   0.390520 0.880455 0.117109 0.694103
O14   O     O_R   0.559650 0.901420 0.917750 -0.539121
O15   O     O_R   0.729880 0.080250 0.917130 -0.537018
C34   C     C_R   0.390677 0.879257 0.889059 0.697385
O16   O     O_R   0.229700 0.913500 0.089410 -0.542626
O17   O     O_3   0.396250 0.055540 0.003280 -0.371271
V3    V     V_3+5 0.671130 0.986010 0.003260 1.405775
O18   O     O_R   0.059600 0.091310 0.917720 -0.544035
C35   C     C_R   0.890891 0.113141 0.889593 0.745471
O19   O     O_R   0.059370 0.092380 0.088750 -0.544445
C36   C     C_R   0.890568 0.114582 0.117234 0.698046
V4    V     V_3+5 0.171120 0.007820 0.003230 1.394964
O20   O     O_3   0.896130 0.938240 0.003240 -0.372649
Br1   Br    Br    0.721496 0.579694 0.240050 -0.591973

loop_
_geom_bond_atom_site_label_1
_geom_bond_atom_site_label_2
_ccdc_geom_bond_type
C27   H17   S    
C11   C12   A    
C16   H9    S    
C19   H11   S    
C1    O6    A    
C23   H13   S    
C21   C22   A    
O13   V3    S    
C10   C11   A    
O5    C3    A    
C15   H7    S    
O19   V4    S    
C28   C29   A    
V2    O10   S    
C15   H8    S    
C31   H19   S    
O1    C2    A    
C22   C23   S    
O8    V2    S    
C24   H15   S    
O11   C34   A    
C13   C14   A    
C33   O16   A    
O1    V2    S    
O7    V1    S    
C9    C16   S    
C9    C14   A    
C32   Br1   S    
C29   C30   A    
O17   V4    S    
C7    C8    D    
C21   C34   S    
C19   C20   A    
C25   C30   A    
C5    C6    D    
C23   H14   S    
C7    H3    S    
O17   V3    S    
C1    C18   S    
O18   C35   A    
C17   C18   A    
O4    C2    A    
O19   C36   A    
V3    O20   S    
C9    C10   A    
C25   C26   A    
C5    C7    S    
C30   C31   S    
O12   C33   A    
C31   H20   S    
O2    C1    A    
C20   H12   S    
C12   H6    S    
C25   C32   S    
C23   C24   S    
C15   C16   S    
C20   C21   A    
O3    C4    A    
C29   C33   S    
C17   C22   A    
C18   C19   A    
O6    V2    S    
O9    V2    S    
C3    C13   S    
C8    H4    S    
O12   V3    S    
O2    V1    S    
O15   C35   A    
C26   C27   A    
C32   H21   S    
C16   H10   S    
O18   V4    S    
V4    O20   S    
O5    V1    S    
O8    C3    A    
O11   V4    S    
C10   C36   S    
C14   C15   S    
C4    C8    S    
C27   C28   A    
O7    V2    S    
O4    V1    S    
C12   C13   A    
O3    V1    S    
V1    O10   S    
O15   V3    S    
C28   H18   S    
O13   C36   A    
C6    C35   S    
C5    H1    S    
O16   V4    S    
C6    H2    S    
C31   C32   S    
C24   H16   S    
O14   V3    S    
O14   C34   A    
C2    C26   S    
O9    C4    A    
C17   C24   S    
C11   H5    S    
