data_mof_unit_4885.cif
_audit_creation_date              2012-12-11T17:44:05-0500
_audit_creation_method            fapswitch 2.2
_symmetry_space_group_name_H-M    P1
_symmetry_Int_Tables_number       1
_space_group_crystal_system       triclinic
_cell_length_a                    20.161015
_cell_length_b                    23.003079
_cell_length_c                    6.919571
_cell_angle_alpha                 89.999594
_cell_angle_beta                  86.462158
_cell_angle_gamma                 89.999892
_cell_volume                      3202.94212699

loop_
_atom_site_label
_atom_site_type_symbol
_atom_type_description
_atom_site_fract_x
_atom_site_fract_y
_atom_site_fract_z
_atom_type_partial_charge
O1    O     O_R   0.751270 0.447300 0.600030 -0.541728
O2    O     O_R   0.248730 0.947300 0.399970 -0.541726
O3    O     O_R   0.613530 0.440160 0.952150 -0.540006
O4    O     O_R   0.386470 0.940160 0.047850 -0.540006
O5    O     O_R   0.613050 0.552700 0.122560 -0.534538
O6    O     O_R   0.386950 0.052700 0.877440 -0.534538
C1    C     C_R   0.592526 0.424817 0.786777 0.678865
C2    C     C_R   0.407474 0.924817 0.213224 0.678850
O7    O     O_R   0.750780 0.440350 0.929820 -0.535203
O8    O     O_R   0.249220 0.940350 0.070180 -0.535204
O9    O     O_R   0.751280 0.552900 0.100070 -0.521978
O10   O     O_R   0.248720 0.052900 0.899930 -0.521976
C3    C     C_R   0.774630 0.426575 0.756468 0.746393
C4    C     C_R   0.225372 0.926573 0.243533 0.746385
O11   O     O_R   0.613040 0.447100 0.622520 -0.545218
O12   O     O_R   0.386960 0.947100 0.377480 -0.545219
O13   O     O_3   0.682160 0.536920 0.777780 -0.349758
O14   O     O_3   0.317840 0.036920 0.222220 -0.349760
V1    V     V_3+5 0.682160 0.493150 0.052630 1.506677
V2    V     V_3+5 0.317840 0.993150 0.947370 1.506672
O15   O     O_R   0.750790 0.559840 0.429870 -0.537301
O16   O     O_R   0.249210 0.059840 0.570130 -0.537303
C5    C     C_R   0.774868 0.573416 0.256541 0.764709
C6    C     C_R   0.225130 0.073414 0.743457 0.764732
O17   O     O_R   0.613540 0.559650 0.452200 -0.539645
O18   O     O_R   0.386460 0.059650 0.547800 -0.539644
C7    C     C_R   0.595607 0.577742 0.284983 0.691931
C8    C     C_R   0.404401 0.077737 0.715013 0.691935
V3    V     V_3+5 0.682160 0.506850 0.552630 1.496062
V4    V     V_3+5 0.317840 0.006850 0.447370 1.496061
O19   O     O_3   0.682150 0.463080 0.277610 -0.373934
O20   O     O_3   0.317850 0.963080 0.722390 -0.373937
C9    C     C_R   0.575642 0.862690 0.093498 -0.043816
C10   C     C_R   0.424370 0.362669 0.906541 -0.043793
H1    H     H_    0.525551 0.943500 0.053212 0.130219
H2    H     H_    0.474449 0.443483 0.946847 0.130229
C11   C     C_R   0.462401 0.882637 0.209128 -0.127534
C12   C     C_R   0.537603 0.382632 0.790873 -0.127547
C13   C     C_R   0.478139 0.601363 0.336425 -0.188878
C14   C     C_R   0.521877 0.101350 0.663646 -0.188889
C15   C     C_R   0.423766 0.638301 0.337589 -0.029265
C16   C     C_R   0.576254 0.138285 0.662515 -0.029265
C17   C     C_R   0.432788 0.697233 0.297982 -0.123957
C18   C     C_R   0.567228 0.197220 0.702063 -0.123965
C19   C     C_R   0.496989 0.721656 0.263402 0.088661
C20   C     C_R   0.503025 0.221647 0.736592 0.088662
C21   C     C_R   0.551795 0.682231 0.235408 0.003972
C22   C     C_R   0.448216 0.182223 0.764571 0.003984
C23   C     C_R   0.506660 0.783314 0.236057 0.047830
C24   C     C_R   0.493353 0.283306 0.763927 0.047816
C25   C     C_R   0.569878 0.804050 0.160191 -0.016594
C26   C     C_R   0.430133 0.304039 0.839783 -0.016603
C27   C     C_R   0.624088 0.764927 0.144976 -0.094520
C28   C     C_R   0.375919 0.264921 0.854945 -0.094526
C29   C     C_R   0.613416 0.704872 0.159844 -0.132806
C30   C     C_R   0.386589 0.204867 0.840100 -0.132813
C31   C     C_R   0.455665 0.825303 0.283560 0.282488
C32   C     C_R   0.544348 0.325298 0.716447 0.282508
C33   C     C_R   0.521494 0.899836 0.112764 -0.229260
C34   C     C_R   0.478510 0.399823 0.887260 -0.229264
C35   C     C_R   0.541909 0.621692 0.282511 -0.092095
C36   C     C_R   0.458103 0.121684 0.717490 -0.092096
H3    H     H_    0.470508 0.555748 0.371374 0.117357
H4    H     H_    0.529509 0.055733 0.628738 0.117348
H5    H     H_    0.388210 0.722315 0.284002 0.171107
H6    H     H_    0.611807 0.222303 0.716051 0.171114
C37   C     C_R   0.170177 0.882659 0.263838 -0.163119
C38   C     C_R   0.829827 0.382663 0.736163 -0.163111
C39   C     C_R   0.159671 0.844702 0.108792 -0.183974
C40   C     C_R   0.840343 0.344713 0.891221 -0.183982
C41   C     C_R   0.111069 0.800822 0.123167 0.362525
C42   C     C_R   0.888945 0.300833 0.876842 0.362510
C43   C     C_R   0.068679 0.796024 0.294809 0.315992
C44   C     C_R   0.931326 0.296029 0.705185 0.315994
C45   C     C_R   0.079027 0.833596 0.449175 -0.196025
C46   C     C_R   0.920968 0.333595 0.550808 -0.196035
C47   C     C_R   0.128381 0.876741 0.435643 -0.087687
C48   C     C_R   0.871615 0.376740 0.564344 -0.087692
C49   C     C_R   0.888398 0.699522 0.374947 -0.142015
C50   C     C_R   0.111598 0.199518 0.625051 -0.142014
C51   C     C_R   0.838832 0.656601 0.388214 -0.249706
C52   C     C_R   0.161163 0.156597 0.611782 -0.249706
C53   C     C_R   0.931754 0.703791 0.206751 0.379449
C54   C     C_R   0.068243 0.203787 0.793250 0.379444
N1    N     N_2   0.017694 0.752986 0.322018 -0.284728
N2    N     N_2   0.982312 0.252993 0.677971 -0.284724
N3    N     N_2   0.981760 0.747897 0.182099 -0.225170
N4    N     N_2   0.018237 0.247892 0.817908 -0.225132
C55   C     C_R   0.830025 0.617456 0.235686 -0.108923
C56   C     C_R   0.169972 0.117452 0.764311 -0.108921
H7    H     H_    0.805777 0.654625 0.517794 0.164961
H8    H     H_    0.194217 0.154621 0.482200 0.164958
H9    H     H_    0.047394 0.829556 0.581120 0.184792
H10   H     H_    0.952595 0.329551 0.418852 0.184811
C57   C     C_R   0.873363 0.621819 0.065870 -0.163631
C58   C     C_R   0.126636 0.121814 0.934130 -0.163637
C59   C     C_R   0.923410 0.665689 0.051268 0.314170
C60   C     C_R   0.076589 0.165684 0.948735 0.314171
H11   H     H_    0.191391 0.847403 0.976880 0.163811
H12   H     H_    0.808629 0.347418 0.023144 0.163819
C61   C     C_1   0.891296 0.740658 0.531788 0.420175
N5    N     N_1   0.893509 0.773640 0.657542 -0.276650
C62   C     C_1   0.108702 0.240655 0.468211 0.420196
N6    N     N_1   0.106490 0.273639 0.342459 -0.276654
C63   C     C_1   0.132968 0.915209 0.599325 0.377523
N7    N     N_1   0.136394 0.945988 0.730658 -0.351711
C64   C     C_1   0.867023 0.415205 0.400655 0.377516
N8    N     N_1   0.863593 0.445982 0.269316 -0.351712
C65   C     C_1   0.868811 0.580274 0.909862 0.348741
N9    N     N_1   0.865407 0.547218 0.784742 -0.346286
C66   C     C_1   0.131187 0.080268 0.090136 0.348742
N10   N     N_1   0.134591 0.047210 0.215253 -0.346287
O21   O     O_3   0.108833 0.762656 0.969908 -0.620546
H13   H     H_    0.089431 0.725463 0.017796 0.346320
O22   O     O_3   0.891191 0.262673 0.030113 -0.620538
H14   H     H_    0.910558 0.225469 0.982202 0.346299
O23   O     O_3   0.966584 0.672455 0.889139 -0.618308
H15   H     H_    0.953575 0.647142 0.782519 0.301579
O24   O     O_3   0.033416 0.172451 0.110866 -0.618297
H16   H     H_    0.046430 0.147141 0.217491 0.301575
C67   C     C_1   0.692611 0.784955 0.120881 0.334924
N11   N     N_1   0.747365 0.800222 0.102768 -0.290020
C68   C     C_1   0.307395 0.284959 0.878898 0.334968
N12   N     N_1   0.252643 0.300237 0.896891 -0.290042
C69   C     C_1   0.633080 0.885558 0.982865 0.331105
N13   N     N_1   0.678610 0.904324 0.893623 -0.286057
C70   C     C_1   0.366949 0.385503 0.017353 0.331114
N14   N     N_1   0.321435 0.404237 0.106753 -0.286102
O25   O     O_3   0.403104 0.810454 0.412200 -0.659440
H17   H     H_    0.370744 0.842565 0.427890 0.287180
O26   O     O_3   0.596923 0.310447 0.587851 -0.659444
H18   H     H_    0.629276 0.342564 0.572141 0.287179
C71   C     C_1   0.357837 0.615407 0.377994 0.328265
N15   N     N_1   0.304890 0.597019 0.410438 -0.292084
C72   C     C_1   0.642188 0.115383 0.622247 0.328255
N16   N     N_1   0.695139 0.096989 0.589920 -0.292073
C73   C     C_1   0.660558 0.669980 0.045526 0.276927
N17   N     N_1   0.698817 0.645301 0.945243 -0.320605
C74   C     C_1   0.339441 0.169981 0.954424 0.276948
N18   N     N_1   0.301180 0.145306 0.054712 -0.320613

loop_
_geom_bond_atom_site_label_1
_geom_bond_atom_site_label_2
_ccdc_geom_bond_type
C53   N3    S    
C28   C68   S    
C61   N5    T    
O13   V3    S    
C18   H6    S    
C66   N10   T    
C37   C47   A    
O4    C2    A    
V1    O19   S    
C17   H5    S    
C15   C71   S    
C52   H8    S    
C60   O24   S    
C13   C15   A    
C42   O22   S    
O9    V1    S    
C44   C46   A    
C31   O25   S    
C46   C48   A    
O21   H13   S    
O3    C1    A    
N2    N4    D    
O12   V4    S    
O22   H14   S    
C14   C36   A    
C41   O21   S    
O17   V3    S    
H1    C33   S    
C19   C21   A    
C39   C41   A    
O7    C3    A    
C7    C35   S    
C46   H10   S    
O5    C7    A    
O7    V1    S    
O6    C8    A    
C18   C20   A    
C10   C70   S    
C23   C25   A    
C58   C60   A    
C24   C26   A    
C64   N8    T    
C5    C55   S    
O3    V1    S    
O14   V4    S    
V4    O20   S    
C50   C54   A    
C68   N12   T    
C51   C55   A    
C14   C16   A    
C9    C33   A    
C73   N17   T    
C2    O12   A    
C12   C32   A    
C10   C34   A    
C15   C17   A    
C16   C18   A    
O1    V3    S    
C26   C28   A    
O11   V3    S    
C20   C22   A    
C27   C29   A    
C38   C48   A    
C13   C35   A    
C58   C66   S    
C28   C30   A    
C50   C62   S    
C24   C32   A    
C72   N16   T    
C42   C44   A    
O8    C4    A    
O8    V2    S    
C49   C51   A    
C30   C74   S    
C1    O11   A    
O15   V3    S    
C48   C64   S    
C37   C39   A    
O4    V2    S    
C55   C57   A    
C45   C47   A    
C22   C36   A    
C19   C23   A    
C32   O26   S    
C4    C37   S    
O10   V2    S    
C9    C69   S    
C52   C56   A    
C44   N2    S    
C17   C19   A    
C43   N1    S    
C67   N11   T    
C11   C33   A    
C12   C34   A    
C39   H11   S    
C50   C52   A    
O18   V4    S    
O15   C5    A    
C57   C65   S    
C71   N15   T    
O16   C6    A    
C9    C25   A    
C2    C11   S    
C43   C45   A    
O26   H18   S    
C13   H3    S    
C45   H9    S    
C21   C29   A    
O25   H17   S    
V2    O20   S    
C22   C30   A    
O10   C6    A    
O16   V4    S    
C10   C26   A    
C49   C61   S    
C54   N4    S    
H2    C34   S    
C6    C56   S    
C21   C35   A    
C23   C31   A    
O24   H16   S    
C57   C59   A    
C56   C58   A    
O5    V1    S    
O17   C7    A    
O6    V2    S    
C63   N7    T    
C20   C24   A    
O18   C8    A    
C29   C73   S    
O2    V4    S    
C54   C60   A    
C40   H12   S    
C47   C63   S    
V3    O19   S    
C27   C67   S    
O23   H15   S    
C49   C53   A    
C74   N18   T    
C69   N13   T    
C14   H4    S    
O9    C5    A    
O13   V1    S    
C1    C12   S    
O14   V2    S    
C59   O23   S    
O2    C4    A    
C51   H7    S    
N1    N3    D    
O1    C3    A    
C38   C40   A    
C53   C59   A    
C41   C43   A    
C62   N6    T    
C16   C72   S    
C40   C42   A    
C25   C27   A    
C65   N9    T    
C11   C31   A    
C70   N14   T    
C3    C38   S    
C8    C36   S    
