data_mof_unit_4620.cif
_audit_creation_date              2012-12-11T17:45:28-0500
_audit_creation_method            fapswitch 2.2
_symmetry_space_group_name_H-M    P1
_symmetry_Int_Tables_number       1
_space_group_crystal_system       triclinic
_cell_length_a                    14.921244
_cell_length_b                    14.975842
_cell_length_c                    15.124409
_cell_angle_alpha                 110.874871
_cell_angle_beta                  108.269506
_cell_angle_gamma                 108.859672
_cell_volume                      2613.62027396

loop_
_atom_site_label
_atom_site_type_symbol
_atom_type_description
_atom_site_fract_x
_atom_site_fract_y
_atom_site_fract_z
_atom_type_partial_charge
C1    C     C_R   0.909900 0.196387 0.995611 -0.134747
C2    C     C_R   0.686280 0.247299 0.777737 -0.143221
C3    C     C_R   0.791042 0.591162 0.098105 -0.133837
C4    C     C_R   0.298493 0.803092 0.209583 0.184968
C5    C     C_R   0.007893 0.406257 0.703687 -0.161300
C6    C     C_R   0.700739 0.500167 0.071447 0.043227
C7    C     C_R   0.066159 0.494644 0.699161 0.034595
C8    C     C_R   0.679003 0.223407 0.677406 0.047079
C9    C     C_R   0.954718 0.785348 0.962641 -0.009460
C10   C     C_R   0.665818 0.279012 0.237965 -0.113538
C11   C     C_R   0.774417 0.355774 0.314170 -0.112708
C12   C     C_R   0.302284 0.860740 0.305874 -0.014060
C13   C     C_R   0.853779 0.323420 0.324549 0.112178
C14   C     C_R   0.823006 0.213570 0.258140 -0.200242
C15   C     C_R   0.714962 0.138226 0.179088 -0.117382
C16   C     C_R   0.222180 0.407187 0.975413 -0.141788
C17   C     C_R   0.636287 0.170761 0.169519 -0.080533
C18   C     C_R   0.989111 0.397497 0.507261 -0.231838
C19   C     C_R   0.077915 0.486158 0.605663 0.066989
C20   C     C_R   0.157722 0.571903 0.608760 0.037880
C21   C     C_R   0.139942 0.569484 0.511695 -0.243425
C22   C     C_R   0.042981 0.488309 0.416631 0.077915
C23   C     C_R   0.323270 0.498462 0.052642 -0.002154
C24   C     C_R   0.966321 0.401243 0.414303 0.013070
C25   C     C_R   0.289290 0.773899 0.730571 -0.132021
C26   C     C_R   0.377858 0.862970 0.828959 -0.089712
C27   C     C_R   0.432755 0.845554 0.909015 -0.022804
C28   C     C_R   0.047731 0.590252 0.314232 -0.102657
C29   C     C_R   0.399834 0.739121 0.890338 -0.069030
C30   C     C_R   0.314424 0.649474 0.790667 -0.185729
C31   C     C_R   0.256201 0.665994 0.710558 0.106035
C32   C     C_R   0.116516 0.024370 0.318373 -0.112960
C33   C     C_R   0.215455 0.026764 0.339681 -0.128411
C34   C     C_R   0.022205 0.495661 0.321000 0.048081
C35   C     C_R   0.286112 0.052215 0.442768 0.117431
C36   C     C_R   0.257389 0.078593 0.524934 -0.175806
C37   C     C_R   0.158641 0.077286 0.503506 -0.115742
C38   C     C_R   0.088027 0.049646 0.400142 -0.080463
C39   C     C_R   0.485375 0.139145 0.555673 -0.249482
C40   C     C_R   0.311891 0.590175 0.068752 -0.129018
C41   C     C_R   0.583554 0.139412 0.575349 0.069939
C42   C     C_R   0.587322 0.051759 0.502527 0.013206
C43   C     C_R   0.493006 0.963876 0.415384 -0.191002
C44   C     C_R   0.394912 0.962046 0.395579 0.091172
C45   C     C_R   0.701532 0.409173 0.006731 -0.139674
C46   C     C_R   0.389325 0.050512 0.464356 0.030493
C47   C     C_R   0.740801 0.063819 0.464645 -0.171286
C48   C     C_R   0.838963 0.063212 0.489676 -0.132548
C49   C     C_R   0.879237 0.035684 0.566588 -0.073933
C50   C     C_R   0.821204 0.008639 0.618474 -0.096111
C51   C     C_R   0.724700 0.011457 0.595808 -0.123487
C52   C     C_R   0.962447 0.405859 0.218610 -0.114722
C53   C     C_R   0.685183 0.041052 0.520323 0.113548
C54   C     C_3   0.530786 0.480658 0.965403 -0.457530
C55   C     C_3   0.427236 0.480153 0.959818 -0.390010
C56   C     C_R   0.093150 0.587679 0.789243 -0.087143
C57   C     C_3   0.538048 0.404340 0.088761 -0.375621
C58   C     C_3   0.631179 0.609625 0.169987 0.065832
C59   C     C_3   0.603443 0.499254 0.076281 0.308783
C60   C     C_3   0.426134 0.499239 0.067122 0.359134
C61   C     C_3   0.435516 0.408058 0.088802 -0.387008
C62   C     C_3   0.526427 0.610521 0.162498 -0.456865
C63   C     C_R   0.084410 0.950229 0.669419 -0.102536
C64   C     C_R   0.210169 0.799164 0.304263 -0.174617
C65   C     C_R   0.004071 0.929209 0.699805 -0.163303
C66   C     C_R   0.028326 0.992709 0.807300 0.090308
C67   C     C_R   0.781955 0.260087 0.690114 -0.102344
C68   C     C_R   0.136048 0.074323 0.884676 -0.097658
C69   C     C_R   0.216663 0.093170 0.854201 -0.099810
C70   C     C_R   0.190726 0.032064 0.746704 -0.105796
C71   C     C_R   0.927736 0.854968 0.838298 -0.176899
C72   C     C_R   0.903002 0.837409 0.914276 0.064032
C73   C     C_R   0.845831 0.886554 0.951606 0.030700
C74   C     C_R   0.838235 0.966702 0.929411 -0.229950
C75   C     C_R   0.907235 0.016021 0.896145 0.041005
C76   C     C_R   0.999463 0.196614 0.902888 -0.156951
C77   C     C_R   0.948740 0.954566 0.842748 0.018016
C78   C     C_R   0.934151 0.750581 0.031005 -0.178979
C79   C     C_R   0.704800 0.778595 0.982129 -0.158888
C80   C     C_R   0.655634 0.774578 0.046448 -0.165542
C81   C     C_R   0.704149 0.861320 0.151938 -0.075685
C82   C     C_R   0.802665 0.952712 0.193718 -0.117343
C83   C     C_R   0.851402 0.958601 0.129495 -0.193484
C84   C     C_R   0.803496 0.870898 0.023689 0.122110
C85   C     C_R   0.941064 0.132493 0.932367 0.064457
C86   C     C_R   0.037782 0.765285 0.951051 0.203313
H1    H     H_    0.852063 0.170190 0.021812 0.090794
H2    H     H_    0.796220 0.439292 0.367372 0.142895
H3    H     H_    0.883362 0.187509 0.266741 0.112977
H4    H     H_    0.691860 0.054385 0.126047 0.129796
H5    H     H_    0.926645 0.332107 0.503948 0.131222
H6    H     H_    0.199768 0.633082 0.510575 0.124696
H7    H     H_    0.245055 0.789610 0.671371 0.113165
H8    H     H_    0.402323 0.945623 0.844039 0.105946
H9    H     H_    0.499514 0.914487 0.986222 0.110928
H10   H     H_    0.011561 0.048119 0.383734 0.098508
H11   H     H_    0.202380 0.322212 0.938280 0.100412
H12   H     H_    0.147545 0.670187 0.815549 0.164065
H13   H     H_    0.062417 0.002659 0.238222 0.122588
H14   H     H_    0.236508 0.007924 0.275511 0.147701
H15   H     H_    0.136636 0.097209 0.566850 0.107248
H16   H     H_    0.484033 0.207558 0.611891 0.131219
H17   H     H_    0.495981 0.893231 0.364817 0.144553
H18   H     H_    0.885084 0.086307 0.451479 0.098088
H19   H     H_    0.955613 0.036219 0.586221 0.110132
H20   H     H_    0.850876 0.987228 0.677779 0.112573
H21   H     H_    0.091649 0.674353 0.379766 0.097093
H22   H     H_    0.508830 0.400452 0.898715 0.169360
H23   H     H_    0.805191 0.256502 0.628842 0.114073
H24   H     H_    0.574462 0.543922 0.949948 0.164263
H25   H     H_    0.419638 0.544282 0.942389 0.152174
H26   H     H_    0.356982 0.399794 0.890676 0.162319
H27   H     H_    0.512695 0.323336 0.021269 0.141619
H28   H     H_    0.363261 0.327424 0.026348 0.141281
H29   H     H_    0.676773 0.678426 0.162511 0.111692
H30   H     H_    0.526521 0.679172 0.150073 0.141749
H31   H     H_    0.373904 0.674129 0.122049 0.129994
H32   H     H_    0.524381 0.626864 0.239332 0.196361
H33   H     H_    0.588870 0.411625 0.164933 0.184564
H34   H     H_    0.878368 0.754459 0.060807 0.136726
H35   H     H_    0.439811 0.424060 0.168129 0.175241
H36   H     H_    0.253599 0.046322 0.723938 0.092802
H37   H     H_    0.064698 0.901227 0.586469 0.128820
H38   H     H_    0.300127 0.152004 0.914264 0.102499
H39   H     H_    0.953044 0.803763 0.793251 0.156510
H40   H     H_    0.791003 0.000613 0.954890 0.125608
H41   H     H_    0.933709 0.320844 0.194085 0.110283
H42   H     H_    0.664611 0.711915 0.899473 0.119127
H43   H     H_    0.579375 0.704632 0.014548 0.109918
H44   H     H_    0.665051 0.858255 0.200979 0.128734
H45   H     H_    0.620626 0.226997 0.796147 0.096532
H46   H     H_    0.838840 0.020982 0.274091 0.102233
H47   H     H_    0.924076 0.033363 0.160430 0.112618
H48   H     H_    0.183043 0.824666 0.362470 0.123250
H49   H     H_    0.019328 0.169542 0.839104 0.107469
H50   H     H_    0.647043 0.324470 0.976730 0.087958
H51   H     H_    0.438313 0.726113 0.954152 0.116238
H52   H     H_    0.290826 0.567602 0.777804 0.117487
H53   H     H_    0.310743 0.098744 0.605014 0.100700
H54   H     H_    0.710745 0.086748 0.405967 0.140003
H55   H     H_    0.682063 0.993146 0.638717 0.112628
H56   H     H_    0.820906 0.675939 0.155000 0.120801
H57   H     H_    0.923185 0.861533 0.639967 0.145244
H58   H     H_    0.158367 0.119370 0.969193 0.124912
H59   H     H_    0.985809 0.321727 0.654185 0.104605
H60   H     H_    0.552279 0.111911 0.109986 0.128267
H61   H     H_    0.604097 0.302658 0.233210 0.119498
I1    I     I_    0.164579 0.867926 0.938404 -0.464798
I2    I     I_    0.390182 0.874231 0.146316 -0.512633
I3    I     I_    0.736844 0.647384 0.329248 -0.532411
N1    N     N_R   0.947080 0.293830 0.002870 -0.041774
N2    N     N_R   0.153670 0.443180 0.946090 -0.039942
N3    N     N_R   0.002360 0.556820 0.208890 -0.038601
N4    N     N_R   0.210070 0.556820 0.002870 -0.030317
N5    N     N_R   0.945960 0.443180 0.152110 -0.041581
N6    N     N_R   0.151710 0.706170 0.208890 -0.051579
N7    N     N_R   0.004320 0.293830 0.946090 -0.037427
N8    N     N_R   0.789930 0.443180 0.997130 -0.037069
N9    N     N_R   0.054040 0.556820 0.847890 -0.043490
N10   N     N_R   0.848290 0.293830 0.791110 -0.043714
N11   N     N_R   0.995680 0.706170 0.053910 -0.051534
N12   N     N_R   0.052920 0.706170 0.997130 -0.053191
N13   N     N_R   0.791050 0.293830 0.847890 -0.041839
N14   N     N_R   0.846330 0.556820 0.053910 -0.040994
N15   N     N_R   0.997640 0.443180 0.791110 -0.044266
N16   N     N_R   0.208950 0.706170 0.152110 -0.058730
Ni1   Ni    Ni4+2 0.869690 0.369690 0.000000 0.212965
Ni2   Ni    Ni4+2 0.130310 0.630310 0.000000 0.260511
Ni3   Ni    Ni4+2 0.000970 0.369690 0.869780 0.209742
Ni4   Ni    Ni4+2 0.999030 0.630310 0.130220 0.225209

loop_
_geom_bond_atom_site_label_1
_geom_bond_atom_site_label_2
_ccdc_geom_bond_type
C25   C31   A    
C66   C68   A    
C79   H42   S    
C63   C65   A    
C25   H7    S    
C30   H52   S    
C6    C45   A    
C55   H26   S    
C27   C29   A    
C41   C42   A    
C27   H9    S    
C35   C36   A    
C9    C72   S    
C56   H12   S    
C3    C6    A    
N4    Ni2   S    
N11   N12   A    
C39   C41   A    
C52   N5    A    
C4    I2    S    
C26   C27   A    
C29   C30   A    
C18   C24   A    
C18   H5    S    
N1    N7    A    
C61   H35   S    
C36   C37   A    
N13   Ni1   S    
C56   N9    A    
C32   C38   A    
C42   C53   S    
C30   C31   A    
C12   C64   A    
N1    Ni1   S    
C16   H11   S    
C57   C59   S    
C10   C17   A    
C23   C40   A    
C48   H18   S    
N9    Ni2   S    
C54   H24   S    
C60   C62   S    
C18   C19   A    
C73   C74   A    
C1    H1    S    
C13   C14   A    
N7    Ni3   S    
N14   Ni4   S    
C52   H41   S    
C83   C84   A    
N5    Ni1   S    
C68   C69   A    
N3    Ni4   S    
N10   Ni3   S    
C1    N1    A    
C67   N10   A    
C86   N12   A    
C5    N15   A    
C4    C12   A    
C28   N3    A    
C73   C84   S    
N8    N14   A    
C10   H61   S    
C47   C53   A    
C49   H19   S    
C40   H31   S    
C28   C34   A    
C55   C60   S    
N16   Ni2   S    
C79   C84   A    
C40   N4    A    
C3    H56   S    
C7    C56   A    
C62   H32   S    
C76   H49   S    
C44   C46   A    
N8    Ni1   S    
C81   C82   A    
C54   C59   S    
C51   H55   S    
N15   Ni3   S    
C23   C60   S    
C22   C34   S    
C64   H48   S    
C76   N7    A    
C5    H59   S    
C74   C75   A    
C2    H45   S    
N10   N13   A    
C8    C41   S    
C5    C7    A    
C72   C73   A    
C57   H27   S    
C69   H38   S    
C25   C26   A    
C82   C83   A    
N9    N15   A    
C13   C24   S    
C60   C61   S    
C51   C53   A    
C47   H54   S    
C78   H34   S    
C43   C44   A    
C14   H3    S    
C62   H30   S    
C37   C38   A    
C9    C86   A    
C70   H36   S    
C47   C48   A    
C63   C70   A    
N6    N16   A    
C11   H2    S    
C50   C51   A    
C16   N2    A    
C75   C77   A    
C58   C62   S    
C8    C67   A    
C39   C46   A    
N12   Ni2   S    
N11   Ni4   S    
C3    N14   A    
C48   C49   A    
N2    N4    A    
C65   C66   A    
C16   C23   A    
C7    C19   S    
C26   H8    S    
C58   H29   S    
C22   C24   A    
C1    C85   A    
N3    N5    A    
C42   C43   A    
C82   H46   S    
C71   C77   A    
C39   H16   S    
C75   C85   S    
C15   C17   A    
C66   C77   S    
C54   C55   S    
C45   H50   S    
C80   H43   S    
C55   H25   S    
C6    C59   S    
C2    C8    A    
C45   N8    A    
C80   C81   A    
C86   I1    S    
C2    N13   A    
C63   H37   S    
C57   C61   S    
C54   H22   S    
C29   H51   S    
C64   N6    A    
C34   C52   A    
C32   H13   S    
C57   H33   S    
C33   H14   S    
C32   C33   A    
C19   C20   A    
C17   H60   S    
C58   C59   S    
C71   C72   A    
C12   C44   S    
C15   H4    S    
C37   H15   S    
N2    Ni3   S    
C11   C13   A    
C67   H23   S    
C81   H44   S    
C74   H40   S    
C65   H57   S    
N6    Ni4   S    
C33   C35   A    
C4    N16   A    
C68   H58   S    
C9    C78   A    
C69   C70   A    
C36   H53   S    
C43   H17   S    
C83   H47   S    
C10   C11   A    
C79   C80   A    
C20   C21   A    
C78   N11   A    
C49   C50   A    
C38   H10   S    
C61   H28   S    
C50   H20   S    
C14   C15   A    
C71   H39   S    
C28   H21   S    
C21   C22   A    
C35   C46   S    
C76   C85   A    
C21   H6    S    
C58   I3    S    
C20   C31   S    
