data_mof_unit_4349.cif
_audit_creation_date              2012-12-10T17:44:36-0500
_audit_creation_method            fapswitch 2.2
_symmetry_space_group_name_H-M    P1
_symmetry_Int_Tables_number       1
_space_group_crystal_system       triclinic
_cell_length_a                    9.967737
_cell_length_b                    10.722132
_cell_length_c                    15.442274
_cell_angle_alpha                 93.49876
_cell_angle_beta                  67.72031
_cell_angle_gamma                 89.690962
_cell_volume                      1523.61323718

loop_
_atom_site_label
_atom_site_type_symbol
_atom_type_description
_atom_site_fract_x
_atom_site_fract_y
_atom_site_fract_z
_atom_type_partial_charge
C1    C     C_R   0.502841 0.739272 0.493064 0.862713
C2    C     C_R   0.743736 0.497414 0.026568 0.140141
C3    C     C_R   0.605141 0.450721 0.078141 0.044272
C4    C     C_R   0.409130 0.497149 0.675750 0.846577
C5    C     C_R   0.836855 0.531839 0.073012 -0.169439
C6    C     C_R   0.790149 0.528321 0.169915 -0.227047
C7    C     C_R   0.559951 0.450657 0.175653 -0.236395
C8    C     C_R   0.265288 0.887581 0.465244 -0.155904
C9    C     C_R   0.130866 0.949465 0.491532 -0.144782
C10   C     C_R   0.105025 0.063368 0.543917 -0.181637
C11   C     C_R   0.218566 0.121590 0.560447 -0.158774
C12   C     C_R   0.436305 0.438258 0.901368 0.122215
C13   C     C_R   0.359596 0.064976 0.525109 0.103875
C14   C     C_R   0.376129 0.939762 0.491432 0.086020
C15   C     C_R   0.502244 0.872795 0.487008 -0.132235
C16   C     C_R   0.494724 0.261390 0.508511 0.878942
C17   C     C_R   0.620776 0.935843 0.493533 -0.222540
C18   C     C_R   0.614791 0.063491 0.505916 -0.215864
C19   C     C_R   0.486302 0.128999 0.519263 -0.129135
C20   C     C_R   0.785587 0.677799 0.612670 -0.156105
C21   C     C_R   0.815103 0.773924 0.664946 -0.279015
C22   C     C_R   0.948616 0.777539 0.670207 -0.232587
C23   C     C_R   0.310249 0.370060 0.945748 0.155746
C24   C     C_R   0.055996 0.685313 0.623010 0.137696
C25   C     C_R   0.035619 0.589964 0.558415 0.079683
C26   C     C_R   0.892220 0.588759 0.556125 0.135008
C27   C     C_R   0.961098 0.416031 0.445708 -0.188921
C28   C     C_R   0.591277 0.498103 0.323955 0.867793
C29   C     C_R   0.104430 0.416121 0.445038 0.153020
C30   C     C_R   0.356473 0.470650 0.774398 -0.074682
C31   C     C_R   0.649603 0.491569 0.221608 -0.060753
C32   C     C_R   0.211784 0.348054 0.901577 -0.197373
C33   C     C_R   0.239340 0.392904 0.813582 -0.200929
C34   C     C_R   0.545890 0.446365 0.938902 0.031316
C35   C     C_R   0.446344 0.500405 0.822438 -0.218288
C36   C     C_R   0.510582 0.415397 0.032419 0.027858
C37   C     C_R   0.382381 0.349079 0.076653 -0.208894
C38   C     C_R   0.286090 0.323720 0.032502 -0.244063
C39   C     C_R   0.690451 0.479148 0.885278 0.018047
C40   C     C_R   0.786584 0.509786 0.930056 0.019464
H1    H     H_    0.190854 0.270310 0.067373 0.146139
H2    H     H_    0.966912 0.849594 0.716558 0.152887
H3    H     H_    0.861761 0.558686 0.204594 0.161016
H4    H     H_    0.117985 0.291520 0.932853 0.142149
H5    H     H_    0.173258 0.363127 0.774863 0.138435
H6    H     H_    0.527876 0.569219 0.794912 0.162964
H7    H     H_    0.719140 0.886869 0.488485 0.175876
H8    H     H_    0.281221 0.800534 0.423037 0.166867
H9    H     H_    0.998632 0.108784 0.568755 0.139437
H10   H     H_    0.214460 0.778837 0.647392 0.178510
H11   H     H_    0.136790 0.670500 0.722668 0.156564
H12   H     H_    0.944820 0.564324 0.035161 0.172511
H13   H     H_    0.219799 0.338134 0.316070 0.144254
H14   H     H_    0.171660 0.237582 0.401458 0.178307
H15   H     H_    0.906510 0.645915 0.855043 0.184690
H16   H     H_    0.980494 0.500269 0.820121 0.184588
H17   H     H_    0.357444 0.310355 0.143635 0.138962
H18   H     H_    0.825648 0.395895 0.760876 0.182995
H19   H     H_    0.790972 0.550363 0.759009 0.198106
H20   H     H_    0.045516 0.907162 0.473671 0.145207
H21   H     H_    0.194532 0.210230 0.601407 0.153522
H22   H     H_    0.711694 0.110635 0.503977 0.169078
H23   H     H_    0.933826 0.347353 0.401166 0.144450
H24   H     H_    0.675164 0.674955 0.621942 0.216635
H25   H     H_    0.731004 0.842135 0.706012 0.166195
H26   H     H_    0.451447 0.425454 0.218007 0.158175
N1    N     N_R   0.856800 0.501200 0.500850 -0.115255
N2    N     N_R   0.142390 0.501280 0.500880 -0.109677
N3    N     N_3   0.175143 0.688124 0.651612 -0.361805
N4    N     N_3   0.210755 0.326783 0.384751 -0.393006
N5    N     N_3   0.924894 0.560570 0.878586 -0.478272
N6    N     N_3   0.744832 0.466552 0.784686 -0.456528
O1    O     O_R   0.385310 0.683220 0.500000 -0.611174
O2    O     O_R   0.614640 0.683250 0.500010 -0.640481
O3    O     O_R   0.319840 0.499980 0.632240 -0.604676
O4    O     O_R   0.549160 0.500000 0.632250 -0.621137
O5    O     O_R   0.385360 0.316750 0.499990 -0.604251
O6    O     O_R   0.614690 0.316780 0.500000 -0.614461
O7    O     O_R   0.450840 0.500000 0.367750 -0.597707
O8    O     O_R   0.680160 0.500020 0.367760 -0.610351
Zn1   Zn    Zn3+2 0.346880 0.499980 0.499990 0.951034
Zn2   Zn    Zn3+2 0.653120 0.500020 0.500010 0.934201

loop_
_geom_bond_atom_site_label_1
_geom_bond_atom_site_label_2
_ccdc_geom_bond_type
C40   N5    S    
C27   C29   A    
C33   H5    S    
C12   C23   A    
C30   C35   A    
N2    Zn1   S    
C36   C37   A    
H10   N3    S    
C18   C19   A    
C3    C7    A    
C5    C6    A    
C16   O5    A    
C28   O7    A    
C4    O3    A    
C8    C9    A    
C39   N6    S    
C5    H12   S    
H15   N5    S    
C1    C15   S    
C9    C10   A    
C16   O6    A    
H19   N6    S    
C6    C31   A    
C1    O2    A    
C13   C14   A    
C10   H9    S    
C25   N2    A    
O2    Zn2   S    
H13   N4    S    
O1    Zn1   S    
C24   N3    S    
C7    C31   A    
C13   C19   A    
C34   C39   A    
C24   C25   A    
C38   H1    S    
O8    Zn2   S    
O4    Zn2   S    
C39   C40   A    
O7    Zn1   S    
O3    Zn1   S    
C25   C26   A    
C20   H24   S    
C8    H8    S    
C37   C38   A    
C29   N2    A    
O6    Zn2   S    
H14   N4    S    
O5    Zn1   S    
H16   N5    S    
C17   C18   A    
C32   H4    S    
C12   C35   A    
C27   H23   S    
C6    H3    S    
C22   C24   A    
C2    C5    A    
C26   N1    A    
C12   C34   A    
C29   N4    S    
C15   C17   A    
C8    C14   A    
C30   C33   A    
C21   H25   S    
C28   C31   S    
C18   H22   S    
C17   H7    S    
C11   H21   S    
C23   C38   A    
C9    H20   S    
C1    O1    A    
C23   C32   A    
C2    C3    A    
C32   C33   A    
C7    H26   S    
C11   C13   A    
H18   N6    S    
C22   H2    S    
C20   C26   A    
C3    C36   A    
C16   C19   S    
C34   C36   A    
C28   O8    A    
C37   H17   S    
C4    O4    A    
C27   N1    A    
C10   C11   A    
C2    C40   A    
C20   C21   A    
N1    Zn2   S    
C14   C15   A    
H11   N3    S    
C21   C22   A    
C35   H6    S    
C4    C30   S    
