data_mof_unit_1768.cif
_audit_creation_date              2012-12-11T14:17:51-0500
_audit_creation_method            fapswitch 2.2
_symmetry_space_group_name_H-M    P1
_symmetry_Int_Tables_number       1
_space_group_crystal_system       triclinic
_cell_length_a                    6.948038
_cell_length_b                    13.840572
_cell_length_c                    20.421975
_cell_angle_alpha                 102.608871
_cell_angle_beta                  89.170933
_cell_angle_gamma                 90.806212
_cell_volume                      1916.19225687

loop_
_atom_site_label
_atom_site_type_symbol
_atom_type_description
_atom_site_fract_x
_atom_site_fract_y
_atom_site_fract_z
_atom_type_partial_charge
O1    O     O_R   0.506860 0.599390 0.449240 -0.545867
O2    O     O_R   0.180220 0.594600 0.586780 -0.546118
O3    O     O_R   0.004500 0.400610 0.550760 -0.536944
C1    C     C_R   0.348395 0.614260 0.614059 0.740005
O4    O     O_R   0.177490 0.611290 0.451970 -0.525443
O5    O     O_R   0.001750 0.417420 0.414990 -0.496847
C2    C     C_R   0.347828 0.636876 0.434927 0.775788
O6    O     O_R   0.509610 0.582580 0.585010 -0.551536
O7    O     O_3   0.337420 0.436370 0.488020 -0.353474
V1    V     V_3+5 0.064680 0.511800 0.502220 1.566178
O8    O     O_R   0.671710 0.405400 0.413220 -0.525704
C3    C     C_R   0.841373 0.386295 0.385614 0.830495
O9    O     O_R   0.674440 0.388710 0.548030 -0.551566
C4    C     C_R   0.840740 0.364356 0.565865 0.709664
V2    V     V_3+5 0.564010 0.488200 0.497780 1.540433
O10   O     O_3   0.841140 0.563630 0.511980 -0.391868
C5    C     C_R   0.729917 0.123600 0.611193 -0.116226
H1    H     H_    0.723433 0.178851 0.521538 0.113140
H2    H     H_    0.739344 0.993994 0.686307 0.147572
H3    H     H_    0.681775 0.050386 0.585665 0.120616
C6    C     C_R   0.836114 0.287972 0.604813 -0.054365
C7    C     C_R   0.846175 0.305778 0.925671 -0.089898
C8    C     C_R   0.805846 0.380346 0.892320 0.002952
C9    C     C_R   0.794251 0.359320 0.822904 -0.113236
C10   C     C_R   0.826111 0.263081 0.784849 0.047143
C11   C     C_R   0.846214 0.183839 0.818724 -0.035019
C12   C     C_R   0.821442 0.242091 0.713570 0.046711
C13   C     C_R   0.766395 0.145377 0.679993 0.060580
C14   C     C_R   0.765793 0.069015 0.714096 -0.214726
C15   C     C_R   0.837501 0.085461 0.778988 0.390246
C16   C     C_R   0.874441 0.311325 0.674106 0.076595
C17   C     C_R   0.758091 0.195720 0.574432 -0.192228
C18   C     C_R   0.863854 0.207444 0.890308 -0.111325
H4    H     H_    0.852161 0.323918 0.980004 0.169376
H5    H     H_    0.749994 0.418098 0.799426 0.153882
H6    H     H_    0.778450 0.454723 0.920376 0.189511
C19   C     C_2   0.996224 0.315481 0.272614 0.478759
C20   C     C_2   0.851862 0.316951 0.318832 -0.400468
H7    H     H_    0.734641 0.263559 0.308170 0.118359
C21   C     C_2   0.005192 0.240241 0.208180 -0.155482
C22   C     C_2   0.853784 0.188586 0.178140 -0.316969
H8    H     H_    0.143145 0.230961 0.182318 0.194069
H9    H     H_    0.711054 0.201974 0.199924 0.156018
C23   C     C_2   0.210928 0.764436 0.792330 0.010278
C24   C     C_2   0.366532 0.815419 0.820020 -0.184918
H10   H     H_    0.076829 0.770949 0.820814 0.180328
H11   H     H_    0.502927 0.809063 0.793192 0.116325
C25   C     C_2   0.205846 0.702049 0.722770 -0.080066
C26   C     C_2   0.361036 0.678132 0.682252 -0.274817
H12   H     H_    0.065139 0.674072 0.704704 0.146483
H13   H     H_    0.504109 0.701735 0.699716 0.121416
C27   C     C_R   0.368699 0.887858 0.394269 -0.141840
H14   H     H_    0.355178 0.833781 0.484989 0.111241
H15   H     H_    0.382381 0.014470 0.316405 0.145977
H16   H     H_    0.372326 0.964536 0.421270 0.117817
C28   C     C_R   0.360912 0.714745 0.396983 -0.058957
C29   C     C_R   0.322636 0.690358 0.074852 0.303527
C30   C     C_R   0.271645 0.620313 0.113142 0.371368
C31   C     C_R   0.290498 0.645063 0.182562 -0.252010
C32   C     C_R   0.341574 0.741055 0.217293 -0.018487
C33   C     C_R   0.356716 0.817918 0.180696 -0.018043
C34   C     C_R   0.359804 0.763450 0.288690 0.098749
C35   C     C_R   0.368564 0.863252 0.323779 0.106541
C36   C     C_R   0.374999 0.938177 0.288635 -0.191408
C37   C     C_R   0.372316 0.917778 0.218776 0.109408
C38   C     C_R   0.368825 0.689720 0.326791 -0.135163
C39   C     C_R   0.360096 0.813861 0.430654 -0.189690
C40   C     C_R   0.352133 0.790730 0.108582 -0.263363
H17   H     H_    0.385704 0.612659 0.303207 0.182999
H18   H     H_    0.251515 0.588880 0.209432 0.246903
O11   O     O_R   0.203230 0.917310 0.915020 -0.497281
O12   O     O_R   0.535500 0.888690 0.048040 -0.525563
O13   O     O_R   0.711080 0.082610 0.085000 -0.546159
C41   C     C_R   0.365785 0.865511 0.067347 0.855818
O14   O     O_R   0.532630 0.905370 0.913230 -0.523583
O15   O     O_R   0.708190 0.099410 0.949230 -0.549675
C42   C     C_R   0.365079 0.882289 0.887243 0.885329
O16   O     O_R   0.206120 0.900510 0.050790 -0.544707
O17   O     O_3   0.375360 0.063570 0.011990 -0.383566
V3    V     V_3+5 0.648170 0.988200 0.997780 1.652068
O18   O     O_R   0.038240 0.111390 0.951940 -0.515228
C43   C     C_R   0.871184 0.132650 0.931329 0.809138
O19   O     O_R   0.041120 0.094710 0.086750 -0.543165
C44   C     C_R   0.871037 0.117359 0.112822 0.775235
V4    V     V_3+5 0.148810 0.011930 0.002180 1.667815
O20   O     O_3   0.871750 0.936430 0.988010 -0.350441
S1    S     S_3+6 0.348057 0.654677 0.985295 0.021792
O21   O     O_2   0.166137 0.679843 0.954024 -0.342500
O22   O     O_2   0.513658 0.709756 0.961720 -0.359164
O23   O     O_3   0.391453 0.533170 0.958586 -0.440370
H19   H     H_    0.386998 0.520847 0.908973 0.372935
S2    S     S_3+6 0.162180 0.504181 0.078363 0.100546
O24   O     O_2   0.315355 0.428071 0.056045 -0.263509
O25   O     O_2   0.035258 0.470984 0.129719 -0.302855
O26   O     O_3   0.026084 0.512703 0.012693 -0.461242
H20   H     H_    0.925004 0.560960 0.031642 0.349611
I1    I     I_    0.377679 0.051916 0.185183 -0.462188
I2    I     I_    0.055364 0.437885 0.711635 -0.430603
S3    S     S_3+6 0.972087 0.987218 0.795400 -0.057670
O27   O     O_2   0.163516 0.027631 0.822547 -0.344079
O28   O     O_2   0.868232 0.938511 0.844707 -0.376843
O29   O     O_3   0.010583 0.902652 0.723718 -0.515265
H21   H     H_    0.898404 0.856796 0.719543 0.316854
S4    S     S_3+6 0.183393 0.405564 0.283961 -0.006598
O30   O     O_2   0.094931 0.506081 0.305437 -0.350469
O31   O     O_2   0.318012 0.388983 0.337261 -0.355178
O32   O     O_3   0.309966 0.400306 0.212399 -0.469625
H22   H     H_    0.414769 0.352834 0.213373 0.347009

loop_
_geom_bond_atom_site_label_1
_geom_bond_atom_site_label_2
_ccdc_geom_bond_type
S1    O21   D    
O26   H20   S    
O11   C42   A    
C1    O6    A    
S4    O31   D    
O18   C43   A    
C29   C30   A    
V4    O20   S    
C6    C16   A    
C34   C35   A    
C4    C6    S    
C13   C14   A    
C19   C20   D    
C19   C21   S    
O5    C3    A    
C20   H7    S    
C38   H17   S    
C40   C41   S    
V2    O10   S    
C5    H3    S    
C32   C34   A    
C16   I2    S    
V3    O20   S    
O11   V4    S    
O8    V2    S    
O19   C44   A    
C26   H13   S    
C8    C9    A    
O1    V2    S    
O14   V3    S    
O13   C44   A    
C27   H16   S    
C21   H8    S    
C31   C32   A    
O9    C4    A    
C3    C20   S    
C22   H9    S    
C2    C28   S    
S4    O30   D    
C23   H10   S    
C24   H11   S    
C7    H4    S    
C6    C17   A    
C9    H5    S    
C34   C38   A    
C12   C16   A    
C9    C10   A    
O12   C41   A    
O15   C43   A    
O4    C2    A    
C30   C31   A    
C22   C44   S    
C15   S3    S    
S2    O26   S    
C29   S1    S    
C32   C33   A    
O2    C1    A    
C14   C15   A    
C11   C18   A    
S3    O27   D    
O32   H22   S    
S2    O25   D    
O14   C42   A    
O3    C4    A    
O16   V4    S    
C21   C22   D    
O19   V4    S    
C11   C15   A    
O6    V2    S    
O9    V2    S    
H1    C17   S    
C29   C40   A    
O2    V1    S    
O17   V4    S    
C23   C24   D    
O7    V1    S    
C7    C18   A    
C25   C26   D    
S3    O28   D    
O1    C2    A    
C5    C13   A    
O15   V3    S    
C27   C39   A    
C35   C36   A    
C27   C35   A    
O5    V1    S    
C19   S4    S    
O8    C3    A    
C10   C12   A    
C28   C39   A    
C1    C26   S    
C36   C37   A    
S1    O22   D    
C10   C11   A    
C37   I1    S    
O4    V1    S    
O12   V3    S    
O3    V1    S    
V1    O10   S    
C33   C40   A    
O23   H19   S    
H15   C36   S    
C28   C38   A    
C25   H12   S    
S2    O24   D    
O13   V3    S    
O7    V2    S    
O29   H21   S    
H14   C39   S    
C18   C43   S    
C31   H18   S    
O17   V3    S    
C33   C37   A    
S3    O29   S    
C8    H6    S    
C41   O16   A    
S1    O23   S    
C12   C13   A    
C5    C17   A    
C7    C8    A    
C24   C42   S    
C30   S2    S    
S4    O32   S    
O18   V4    S    
C23   C25   S    
H2    C14   S    
