data_mof_unit_2690.cif
_audit_creation_date              2012-12-10T19:08:06-0500
_audit_creation_method            fapswitch 2.2
_symmetry_space_group_name_H-M    P1
_symmetry_Int_Tables_number       1
_space_group_crystal_system       triclinic
_cell_length_a                    9.069931
_cell_length_b                    10.850901
_cell_length_c                    9.605521
_cell_angle_alpha                 90.948535
_cell_angle_beta                  89.358543
_cell_angle_gamma                 91.077895
_cell_volume                      944.993008441

loop_
_atom_site_label
_atom_site_type_symbol
_atom_type_description
_atom_site_fract_x
_atom_site_fract_y
_atom_site_fract_z
_atom_type_partial_charge
C1    C     C_R   0.495509 0.262614 0.498915 0.807769
C2    C     C_R   0.485767 0.933792 0.371503 -0.206434
C3    C     C_R   0.482816 0.871212 0.499042 -0.097046
C4    C     C_R   0.455499 0.939173 0.621064 0.108382
C5    C     C_3   0.533396 0.941020 0.757053 -0.454071
C6    C     C_3   0.527146 0.080183 0.756209 -0.455586
C7    C     C_R   0.629022 0.508843 0.072493 0.177416
C8    C     C_R   0.376216 0.471377 0.076506 -0.115157
C9    C     C_R   0.376858 0.465396 0.928788 0.048004
C10   C     C_R   0.628939 0.509975 0.925973 0.131934
C11   C     C_3   0.744725 0.610065 0.924521 0.214261
C12   C     C_R   0.220867 0.499902 0.500451 0.854788
C13   C     C_3   0.745862 0.606601 0.083403 -0.514527
C14   C     C_R   0.497549 0.737777 0.500560 0.801139
C15   C     C_R   0.779124 0.500162 0.499570 0.843507
C16   C     C_1   0.065592 0.499987 0.500698 -0.161964
C17   C     C_1   0.934398 0.500085 0.499431 -0.187280
C18   C     C_R   0.452437 0.066180 0.619408 0.178610
C19   C     C_R   0.478071 0.129617 0.496246 -0.097914
C20   C     C_R   0.483521 0.062349 0.370106 -0.219283
Cu1   Cu    Cu3+1 0.499990 0.499980 0.640670 0.999949
Cu2   Cu    Cu3+1 0.500010 0.500020 0.359330 0.950174
H1    H     H_    0.494800 0.108444 0.271293 0.171957
H2    H     H_    0.850192 0.570319 0.124716 0.195828
H3    H     H_    0.706447 0.691742 0.136841 0.210615
H4    H     H_    0.497794 0.884447 0.273209 0.169100
H5    H     H_    0.464502 0.899988 0.841319 0.201960
H6    H     H_    0.648141 0.908155 0.746183 0.253898
H7    H     H_    0.453121 0.118654 0.838349 0.227246
H8    H     H_    0.637676 0.125860 0.748147 0.199069
H9    H     H_    0.276844 0.446491 0.133389 0.169281
H10   H     H_    0.849632 0.581343 0.874180 0.175555
N1    N     N_R   0.500920 0.500930 0.147930 -0.184411
N2    N     N_R   0.500930 0.500890 0.852020 -0.214157
O1    O     O_R   0.500000 0.319640 0.618810 -0.553518
O2    O     O_R   0.500020 0.319680 0.381230 -0.590441
O3    O     O_R   0.288380 0.499980 0.618770 -0.561783
O4    O     O_R   0.288400 0.500020 0.381190 -0.593593
O5    O     O_R   0.499980 0.680320 0.618770 -0.546709
O6    O     O_R   0.500000 0.680360 0.381190 -0.589861
O7    O     O_R   0.711600 0.499980 0.618810 -0.575660
O8    O     O_R   0.711620 0.500020 0.381230 -0.576767
O9    O     O_3   0.693588 0.721349 0.873355 -0.709460
H11   H     H_    0.600185 0.740868 0.923197 0.326590
C21   C     C_2   0.246070 0.405809 0.866166 0.870892
O10   O     O_2   0.259150 0.312665 0.794201 -0.596161
O11   O     O_R   0.106092 0.451093 0.897290 -0.805166
H12   H     H_    0.024614 0.400896 0.850591 0.319024

loop_
_geom_bond_atom_site_label_1
_geom_bond_atom_site_label_2
_ccdc_geom_bond_type
C7    C10   A    
O9    H11   S    
C9    C21   S    
Cu1   O1    S    
C5    H6    S    
C11   C13   S    
C15   O8    A    
C19   C20   A    
Cu1   O5    S    
C20   H1    S    
Cu2   O6    S    
C2    C3    A    
C4    C18   A    
C10   N2    A    
C21   O10   D    
C11   O9    S    
C7    N1    A    
C1    O1    A    
Cu2   O8    S    
C3    C14   S    
Cu1   O7    S    
C5    C6    S    
Cu1   Cu2   S    
C6    H8    S    
C11   H10   S    
C8    N1    A    
C21   O11   S    
C1    O2    A    
C12   O4    A    
C9    N2    A    
C6    C18   S    
C1    C19   S    
C16   C17   T    
C10   C11   S    
C2    C20   A    
C3    C4    A    
Cu2   O4    S    
O11   H12   S    
C7    C13   S    
C6    H7    S    
Cu1   O3    S    
C15   O7    A    
C2    H4    S    
C18   C19   A    
C12   O3    A    
C15   C17   S    
Cu2   N1    S    
C8    C9    A    
Cu1   N2    S    
C14   O5    A    
C5    H5    S    
C8    H9    S    
C14   O6    A    
Cu2   O2    S    
C12   C16   S    
C13   H2    S    
C4    C5    S    
C13   H3    S    
