data_mof_unit_1514.cif
_audit_creation_date              2012-12-10T18:33:32-0500
_audit_creation_method            fapswitch 2.2
_symmetry_space_group_name_H-M    P1
_symmetry_Int_Tables_number       1
_space_group_crystal_system       triclinic
_cell_length_a                    8.706477
_cell_length_b                    15.119942
_cell_length_c                    13.959957
_cell_angle_alpha                 91.420465
_cell_angle_beta                  99.053333
_cell_angle_gamma                 91.15504
_cell_volume                      1813.71854174

loop_
_atom_site_label
_atom_site_type_symbol
_atom_type_description
_atom_site_fract_x
_atom_site_fract_y
_atom_site_fract_z
_atom_type_partial_charge
C1    C     C_R   0.498385 0.329869 0.498879 0.776092
C2    C     C_R   0.499451 0.669917 0.500712 0.768765
C3    C     C_R   0.649468 0.516927 0.125888 -0.296522
C4    C     C_R   0.442331 0.419384 0.881039 -0.295964
C5    C     C_R   0.634168 0.525028 0.225412 0.049326
C6    C     C_R   0.431620 0.429376 0.779403 0.047991
C7    C     C_R   0.376137 0.467023 0.189578 0.291140
C8    C     C_R   0.581142 0.562781 0.806541 0.301064
C9    C     C_R   0.392595 0.455702 0.090874 -0.290412
C10   C     C_R   0.597120 0.551835 0.907843 -0.283701
C11   C     C_R   0.526903 0.481358 0.056416 0.112928
C12   C     C_R   0.526993 0.481452 0.947480 0.107928
C13   C     C_R   0.203587 0.500446 0.474761 0.880629
C14   C     C_R   0.796466 0.500146 0.525297 0.872100
C15   C     C_2   0.036950 0.501852 0.461429 -0.365086
C16   C     C_2   0.963246 0.500099 0.538890 -0.369357
C17   C     C_R   0.476551 0.096104 0.581126 -0.174439
C18   C     C_R   0.405388 0.900054 0.420387 -0.173355
C19   C     C_R   0.479594 0.187900 0.581831 -0.183689
C20   C     C_R   0.408131 0.808140 0.422203 -0.177408
C21   C     C_R   0.493808 0.233031 0.496905 -0.027375
C22   C     C_R   0.495175 0.766257 0.500636 -0.013955
C23   C     C_R   0.502992 0.184882 0.410845 -0.195541
C24   C     C_R   0.581376 0.817045 0.576302 -0.214504
C25   C     C_R   0.500552 0.092773 0.410302 -0.168833
C26   C     C_R   0.579403 0.908800 0.574398 -0.160569
C27   C     C_R   0.488377 0.047901 0.495681 0.106233
C28   C     C_R   0.490847 0.950950 0.496674 0.104337
Cu1   Cu    Cu3+1 0.500000 0.499990 0.596430 0.928872
Cu2   Cu    Cu3+1 0.500000 0.500010 0.403570 0.927428
H1    H     H_    0.974868 0.504663 0.387809 0.156182
H2    H     H_    0.025349 0.498096 0.612694 0.172014
H3    H     H_    0.464360 0.062720 0.647375 0.125568
H4    H     H_    0.335274 0.931294 0.360123 0.125712
H5    H     H_    0.470689 0.223367 0.649020 0.144555
H6    H     H_    0.341060 0.769702 0.362906 0.139651
H7    H     H_    0.513614 0.218234 0.344342 0.149148
H8    H     H_    0.654125 0.786374 0.635235 0.141141
H9    H     H_    0.511168 0.056685 0.343772 0.125934
H10   H     H_    0.649265 0.946855 0.632862 0.126301
H11   H     H_    0.757661 0.538428 0.103856 0.130651
H12   H     H_    0.384805 0.362804 0.907133 0.132975
H13   H     H_    0.731755 0.552279 0.275438 0.128686
H14   H     H_    0.367759 0.379633 0.731165 0.127737
H15   H     H_    0.295015 0.430721 0.038713 0.130377
H16   H     H_    0.658891 0.601899 0.956906 0.130325
N1    N     N_R   0.500000 0.500020 0.258690 -0.175402
N2    N     N_R   0.500000 0.499980 0.741310 -0.176645
O1    O     O_R   0.500010 0.371450 0.581430 -0.592375
O2    O     O_R   0.499990 0.628550 0.418570 -0.579719
O3    O     O_R   0.500010 0.371460 0.418560 -0.594848
O4    O     O_R   0.499990 0.628540 0.581440 -0.597041
O5    O     O_R   0.274840 0.499990 0.562640 -0.574356
O6    O     O_R   0.725160 0.500010 0.437360 -0.583756
O7    O     O_R   0.274840 0.500000 0.399770 -0.602347
O8    O     O_R   0.725160 0.500000 0.600230 -0.595767
C29   C     C_3   0.211371 0.446770 0.208083 -0.367177
C30   C     C_3   0.191984 0.354012 0.248026 -0.315374
C31   C     C_3   0.020529 0.327153 0.241955 -0.875883
H17   H     H_    0.959558 0.375848 0.282337 0.258760
H18   H     H_    0.962785 0.322885 0.165064 0.253886
H19   H     H_    0.010918 0.261274 0.274251 0.246134
H20   H     H_    0.248387 0.304646 0.205420 0.201151
H21   H     H_    0.246954 0.351129 0.324496 0.253097
H22   H     H_    0.163433 0.501369 0.246914 0.200018
H23   H     H_    0.129663 0.447884 0.138259 0.157102
C32   C     C_3   0.648389 0.650168 0.778624 -0.383952
C33   C     C_3   0.806179 0.641772 0.742613 -0.287594
C34   C     C_3   0.924802 0.712895 0.787711 -0.919334
H24   H     H_    0.951040 0.705727 0.867591 0.258163
H25   H     H_    0.034390 0.705634 0.757203 0.253144
H26   H     H_    0.879412 0.779923 0.771546 0.253376
H27   H     H_    0.856926 0.576156 0.760430 0.227247
H28   H     H_    0.789758 0.649335 0.662972 0.227068
H29   H     H_    0.561053 0.686591 0.730799 0.194474
H30   H     H_    0.665616 0.696660 0.842701 0.166873

loop_
_geom_bond_atom_site_label_1
_geom_bond_atom_site_label_2
_ccdc_geom_bond_type
C14   O8    A    
Cu2   O3    S    
C1    C21   S    
C29   H23   S    
Cu1   O1    S    
C9    H15   S    
Cu2   O6    S    
C6    N2    A    
C19   C21   A    
C24   C26   A    
C33   H28   S    
C15   C16   D    
C34   H25   S    
C16   H2    S    
C2    O2    A    
C17   C19   A    
C33   C34   S    
C2    C22   S    
C24   H8    S    
C4    C12   A    
C18   C20   A    
C9    C11   A    
Cu2   O2    S    
C31   H17   S    
C6    H14   S    
C17   H3    S    
C10   C12   A    
C13   O5    A    
C30   H21   S    
C31   H18   S    
Cu1   N2    S    
C32   C33   S    
C17   C27   A    
Cu2   N1    S    
C18   C28   A    
C4    C6    A    
C33   H27   S    
C23   H7    S    
Cu1   O5    S    
C7    N1    A    
C34   H26   S    
C8    N2    A    
C10   H16   S    
Cu1   Cu2   S    
C1    O3    A    
C18   H4    S    
C2    O4    A    
C14   O6    A    
C20   C22   A    
C13   C15   S    
C22   C24   A    
C32   H29   S    
C30   H20   S    
C7    C9    A    
C3    H11   S    
C31   H19   S    
C29   H22   S    
C3    C5    A    
C11   C12   S    
C15   H1    S    
Cu1   O8    S    
C25   C27   A    
Cu2   O7    S    
C26   C28   A    
C21   C23   A    
C30   C31   S    
C19   H5    S    
C25   H9    S    
C26   H10   S    
C29   C30   S    
C4    H12   S    
C5    N1    A    
C14   C16   S    
C23   C25   A    
C5    H13   S    
C34   H24   S    
C3    C11   A    
C20   H6    S    
C8    C32   S    
C8    C10   A    
C27   C28   S    
C32   H30   S    
C1    O1    A    
C7    C29   S    
C13   O7    A    
Cu1   O4    S    
