data_mof_unit_1979.cif
_audit_creation_date              2012-12-10T16:44:38-0500
_audit_creation_method            fapswitch 2.2
_symmetry_space_group_name_H-M    P1
_symmetry_Int_Tables_number       1
_space_group_crystal_system       triclinic
_cell_length_a                    15.000442
_cell_length_b                    8.641983
_cell_length_c                    7.452581
_cell_angle_alpha                 103.149747
_cell_angle_beta                  93.630845
_cell_angle_gamma                 91.031246
_cell_volume                      938.361810242

loop_
_atom_site_label
_atom_site_type_symbol
_atom_type_description
_atom_site_fract_x
_atom_site_fract_y
_atom_site_fract_z
_atom_type_partial_charge
C1    C     C_R   0.497372 0.199767 0.453206 0.871894
C2    C     C_R   0.502628 0.800232 0.546794 0.871893
C3    C     C_R   0.032836 0.217456 0.322480 0.133338
C4    C     C_R   0.967164 0.782545 0.677509 0.133333
C5    C     C_2   0.495931 0.031639 0.426937 -0.379166
C6    C     C_2   0.504069 0.968361 0.573063 -0.379166
C7    C     C_R   0.329115 0.497223 0.502836 0.802738
C8    C     C_R   0.670885 0.502777 0.497164 0.802735
C9    C     C_R   0.818472 0.639202 0.604843 0.179425
C10   C     C_R   0.181528 0.360797 0.395153 0.179431
C11   C     C_R   0.767261 0.510856 0.492085 -0.102192
C12   C     C_R   0.232739 0.489143 0.507915 -0.102198
C13   C     C_R   0.807987 0.382041 0.384921 -0.279904
C14   C     C_R   0.192013 0.617957 0.615077 -0.279905
C15   C     C_R   0.900491 0.373884 0.394889 0.073350
C16   C     C_R   0.099508 0.626115 0.605106 0.073351
C17   C     C_R   0.953291 0.504586 0.497755 -0.000365
C18   C     C_R   0.046709 0.495414 0.502238 -0.000366
C19   C     C_R   0.912540 0.644253 0.594661 0.020881
C20   C     C_R   0.087459 0.355747 0.405331 0.020892
C21   C     C_R   0.939859 0.233154 0.309299 -0.197661
C22   C     C_R   0.060141 0.766846 0.690693 -0.197661
Cu1   Cu    Cu3+1 0.510010 0.517380 0.684380 0.940040
Cu2   Cu    Cu3+1 0.489990 0.482620 0.315620 0.940042
H1    H     H_    0.767027 0.282470 0.304136 0.146570
H2    H     H_    0.232972 0.717528 0.695864 0.146573
H3    H     H_    0.896753 0.133622 0.237439 0.156732
H4    H     H_    0.103247 0.866379 0.762553 0.156738
H5    H     H_    0.488155 0.959708 0.286336 0.180775
H6    H     H_    0.511845 0.040291 0.713664 0.180775
H7    H     H_    0.430619 0.379118 0.948773 0.223496
H8    H     H_    0.569381 0.620882 0.051227 0.223490
N1    N     N_2   0.474890 0.456420 0.038520 -0.217701
N2    N     N_2   0.525110 0.543580 0.961480 -0.217706
O1    O     O_R   0.506510 0.286130 0.619770 -0.581660
O2    O     O_R   0.493490 0.713870 0.380230 -0.581659
O3    O     O_R   0.489600 0.256770 0.308360 -0.588661
O4    O     O_R   0.510400 0.743230 0.691640 -0.588662
O5    O     O_R   0.378710 0.514640 0.655720 -0.590915
O6    O     O_R   0.621290 0.485360 0.344280 -0.590916
O7    O     O_R   0.361800 0.485290 0.344300 -0.575389
O8    O     O_R   0.638200 0.514710 0.655700 -0.575396
N3    N     N_2   0.776235 0.755882 0.736866 -0.456017
H9    H     H_    0.713996 0.788769 0.695004 0.253339
C23   C     C_3   0.782099 0.730474 0.922959 -0.680471
H10   H     H_    0.758404 0.836791 0.019717 0.210429
H11   H     H_    0.852187 0.710736 0.967298 0.227549
H12   H     H_    0.740432 0.625407 0.931402 0.253648
N4    N     N_2   0.223766 0.244124 0.263124 -0.456008
H13   H     H_    0.286003 0.211232 0.304990 0.253343
C24   C     C_3   0.217909 0.269553 0.077040 -0.680595
H14   H     H_    0.241636 0.163287 0.980295 0.210460
H15   H     H_    0.259544 0.374644 0.068628 0.253671
H16   H     H_    0.147831 0.289238 0.032666 0.227557
C25   C     C_3   0.072764 0.052438 0.266338 -0.354841
C26   C     C_3   0.008072 0.909116 0.242607 -0.891426
H17   H     H_    0.965262 0.921599 0.360088 0.269358
H18   H     H_    0.965465 0.895164 0.113364 0.248241
H19   H     H_    0.046438 0.799142 0.233379 0.259928
H20   H     H_    0.105111 0.039492 0.134768 0.232432
H21   H     H_    0.124828 0.040735 0.374981 0.212236
C27   C     C_3   0.927236 0.947564 0.733647 -0.354843
C28   C     C_3   0.991928 0.090884 0.757376 -0.891427
H22   H     H_    0.034532 0.104841 0.886622 0.248244
H23   H     H_    0.034740 0.078398 0.639899 0.269356
H24   H     H_    0.953563 0.200858 0.766596 0.259928
H25   H     H_    0.875172 0.959265 0.625002 0.212238
H26   H     H_    0.894889 0.960512 0.865218 0.232429

loop_
_geom_bond_atom_site_label_1
_geom_bond_atom_site_label_2
_ccdc_geom_bond_type
C15   C21   A    
N3    H9    S    
H7    N1    S    
C27   C28   S    
C24   H14   S    
C10   C20   A    
C1    O3    A    
C4    C19   A    
Cu1   O4    S    
C4    C22   A    
C2    O4    A    
Cu1   O1    S    
Cu2   N1    S    
C1    C5    S    
C26   H19   S    
C27   H26   S    
C25   C26   S    
Cu1   N2    S    
C24   H16   S    
N4    C24   S    
C28   H23   S    
Cu2   O3    S    
C21   H3    S    
C28   H24   S    
C3    C20   A    
N3    C23   S    
C22   H4    S    
C25   H20   S    
C14   H2    S    
Cu2   O7    S    
C9    C11   A    
C13   H1    S    
Cu2   O2    S    
Cu1   O8    S    
C10   C12   A    
C27   H25   S    
C8    C11   S    
Cu1   O5    S    
C25   H21   S    
C7    O7    A    
C17   C19   A    
C8    O8    A    
C17   C18   A    
C18   C20   A    
C13   C15   A    
C5    C6    D    
C14   C16   A    
C7    C12   S    
C3    C21   A    
C9    N3    S    
Cu1   Cu2   S    
C28   H22   S    
C5    H5    S    
C4    C27   S    
C12   C14   A    
C11   C13   A    
N1    N2    D    
C26   H17   S    
C1    O1    A    
C16   C18   A    
N4    H13   S    
C23   H11   S    
C2    O2    A    
C8    O6    A    
C15   C17   A    
C7    O5    A    
C16   C22   A    
C23   H12   S    
Cu2   O6    S    
C23   H10   S    
C10   N4    S    
C3    C25   S    
C6    H6    S    
C2    C6    S    
C9    C19   A    
C26   H18   S    
C24   H15   S    
H8    N2    S    
