data_mof_unit_3792.cif
_audit_creation_date              2013-03-05T16:13:16-0500
_audit_creation_method            fapswitch 2.2
_symmetry_space_group_name_H-M    P1
_symmetry_Int_Tables_number       1
_space_group_crystal_system       triclinic
_cell_length_a                    10.623327
_cell_length_b                    9.849053
_cell_length_c                    15.003218
_cell_angle_alpha                 89.991779
_cell_angle_beta                  89.980709
_cell_angle_gamma                 91.03041
_cell_volume                      1569.52840445

loop_
_atom_site_label
_atom_site_type_symbol
_atom_site_description
_atom_site_fract_x
_atom_site_fract_y
_atom_site_fract_z
_atom_type_partial_charge
O1    O     O_R   0.316770 0.614620 0.499990 -0.628013
O2    O     O_R   0.683230 0.385380 0.500010 -0.627641
O3    O     O_R   0.683230 0.614620 0.500010 -0.577757
O4    O     O_R   0.316770 0.385380 0.499990 -0.576973
N1    N     N_R   0.500000 0.857200 0.500000 -0.094152
N2    N     N_R   0.500000 0.142800 0.500000 -0.092041
C1    C     C_R   0.260415 0.498587 0.500103 1.034658
C2    C     C_R   0.739583 0.501406 0.500239 1.035341
O5    O     O_R   0.499990 0.614660 0.369060 -0.628559
O6    O     O_R   0.500010 0.385340 0.630940 -0.624748
O7    O     O_R   0.500010 0.614660 0.630940 -0.621388
O8    O     O_R   0.499990 0.385340 0.369060 -0.620789
C3    C     C_R   0.499473 0.499996 0.327759 0.957922
C4    C     C_R   0.500416 0.500011 0.672075 0.954214
Zn1   Zn    Zn3+2 0.500000 0.653120 0.500000 1.021195
Zn2   Zn    Zn3+2 0.500000 0.346880 0.500000 1.024049
H1    H     H_    0.634261 0.128948 0.604017 0.142571
H2    H     H_    0.365745 0.871064 0.395982 0.148617
H3    H     H_    0.365736 0.123853 0.395999 0.160243
H4    H     H_    0.634318 0.876159 0.603962 0.165824
C5    C     C_R   0.574595 0.073344 0.557794 -0.045443
C6    C     C_R   0.425412 0.926662 0.442202 -0.050987
C7    C     C_R   0.425404 0.070511 0.442206 -0.043728
C8    C     C_R   0.574618 0.929495 0.557778 -0.043561
C9    C     C_R   0.064902 0.487129 0.418528 0.201124
C10   C     C_R   0.935048 0.512486 0.582091 0.200285
C11   C     C_R   0.934729 0.493820 0.418293 0.210244
C12   C     C_R   0.065308 0.506169 0.582298 0.212182
C13   C     C_R   0.533701 0.618206 0.093700 -0.142285
C14   C     C_R   0.552076 0.391169 0.905656 -0.133182
C15   C     C_R   0.446453 0.608506 0.905407 -0.137958
C16   C     C_R   0.463376 0.381701 0.093842 -0.140661
H5    H     H_    0.562752 0.709533 0.058444 0.147370
H6    H     H_    0.594518 0.307655 0.940963 0.150664
H7    H     H_    0.403546 0.691953 0.940498 0.151620
H8    H     H_    0.434377 0.290300 0.058681 0.146857
C17   C     C_R   0.533075 0.618551 0.185683 -0.109897
C18   C     C_R   0.552016 0.390893 0.813642 -0.113839
C19   C     C_R   0.447876 0.609077 0.813425 -0.104321
C20   C     C_R   0.464245 0.381487 0.185846 -0.101088
H9    H     H_    0.560985 0.710606 0.220530 0.174855
H10   H     H_    0.593840 0.306815 0.778494 0.161226
H11   H     H_    0.406424 0.693215 0.778123 0.173656
H12   H     H_    0.436576 0.289448 0.220835 0.171538
C21   C     C_R   0.498859 0.500017 0.231825 -0.001261
C22   C     C_R   0.500251 0.500048 0.767698 0.008525
C23   C     C_R   0.498572 0.499897 0.047771 0.106941
C24   C     C_R   0.498928 0.499778 0.951542 0.098676
C25   C     C_R   0.872003 0.505695 0.500072 -0.360504
C26   C     C_R   0.127993 0.494256 0.500482 -0.359897
N3    N     N_R   0.133145 0.478305 0.336034 0.226201
O9    O     O_R   0.209251 0.378467 0.322267 -0.410402
O10   O     O_R   0.113917 0.565595 0.272588 -0.322932
N4    N     N_R   0.866737 0.520136 0.664653 0.224114
O11   O     O_R   0.788855 0.618356 0.678478 -0.397889
O12   O     O_R   0.887017 0.432866 0.727935 -0.330535
N5    N     N_R   0.866129 0.485525 0.335864 0.232140
O13   O     O_R   0.789381 0.581262 0.313768 -0.399267
O14   O     O_R   0.885694 0.386528 0.280419 -0.313642
N6    N     N_R   0.133987 0.514925 0.664698 0.228150
O15   O     O_R   0.211681 0.419993 0.686657 -0.389696
O16   O     O_R   0.113775 0.613693 0.720196 -0.325968

loop_
_geom_bond_atom_site_label_1
_geom_bond_atom_site_label_2
_geom_bond_distance
_ccdc_geom_bond_type
O4    Zn2   1.989784 S    
H3    C7    1.081937 S    
C9    N3    1.437588 S    
O1    Zn1   1.976398 S    
C17   C21   1.399515 A    
C13   H5    1.083459 S    
C9    C11   1.385620 A    
H2    C6    1.081862 S    
O2    Zn2   1.976398 S    
C10   C12   1.386311 A    
C23   C24   1.443749 S    
C19   C22   1.398133 A    
C16   C20   1.380380 A    
O5    Zn1   2.000762 S    
C4    C22   1.434664 S    
O6    Zn2   2.000759 S    
C10   C25   1.402235 A    
C3    C21   1.439346 S    
N5    O13   1.300578 A    
N1    C8    1.366427 A    
O7    Zn1   2.000653 S    
C13   C23   1.398801 A    
O4    C1    1.274998 A    
O8    Zn2   2.000656 S    
N2    C7    1.366420 A    
C16   H8    1.083446 S    
C14   C24   1.399518 A    
C16   C23   1.398827 A    
C15   C19   1.380127 A    
C18   H10   1.083714 S    
N4    O12   1.301220 A    
C15   C24   1.399336 A    
C12   N6    1.437525 S    
C17   H9    1.083436 S    
C20   C21   1.399604 A    
O7    C4    1.286828 A    
C15   H7    1.083444 S    
C18   C22   1.398076 A    
N5    O14   1.301255 A    
N1    Zn1   2.009995 S    
C14   H6    1.083437 S    
N2    Zn2   2.009995 S    
N3    O9    1.300684 A    
C10   N4    1.438073 S    
C20   H12   1.083458 S    
O3    Zn1   1.989784 S    
O8    C3    1.288104 A    
C14   C18   1.380511 A    
N6    O16   1.301271 A    
O3    C2    1.275052 A    
C11   N5    1.437244 S    
C5    C8    1.416776 A    
C13   C17   1.380057 A    
O5    C3    1.288163 A    
N4    O11   1.300812 A    
C19   H11   1.083653 S    
O2    C2    1.280494 A    
O1    C1    1.280559 A    
N2    C5    1.366596 A    
C12   C26   1.402244 A    
C2    C25   1.406615 S    
H4    C8    1.081893 S    
C6    C7    1.416777 A    
C9    C26   1.401747 A    
N1    C6    1.366615 A    
C11   C25   1.401934 A    
C1    C26   1.406653 S    
O6    C4    1.287042 A    
N6    O15   1.300711 A    
N3    O10   1.301215 A    
H1    C5    1.081911 S    
