data_mof_unit_334.cif
_audit_creation_date              2012-12-10T17:22:12-0500
_audit_creation_method            fapswitch 2.2
_symmetry_space_group_name_H-M    P1
_symmetry_Int_Tables_number       1
_space_group_crystal_system       triclinic
_cell_length_a                    15.886483
_cell_length_b                    10.763133
_cell_length_c                    9.635947
_cell_angle_alpha                 93.465628
_cell_angle_beta                  89.016338
_cell_angle_gamma                 92.238364
_cell_volume                      1643.18540884

loop_
_atom_site_label
_atom_site_type_symbol
_atom_type_description
_atom_site_fract_x
_atom_site_fract_y
_atom_site_fract_z
_atom_type_partial_charge
C1    C     C_R   0.495031 0.262335 0.495738 0.803021
C2    C     C_3   0.947901 0.417388 0.612134 -0.169123
C3    C     C_3   0.917276 0.507369 0.502637 0.147842
C4    C     C_3   0.954593 0.643236 0.534805 -0.216578
C5    C     C_3   0.053068 0.641345 0.547582 -0.198322
C6    C     C_1   0.824607 0.505615 0.498643 -0.072316
C7    C     C_1   0.175744 0.505395 0.505303 -0.065687
C8    C     C_1   0.251128 0.503719 0.503960 -0.125447
C9    C     C_R   0.333463 0.106297 0.482487 -0.006948
C10   C     C_R   0.261148 0.044470 0.531357 -0.150437
C11   C     C_R   0.267357 0.935369 0.598840 -0.179810
C12   C     C_R   0.340573 0.501629 0.501290 0.827283
C13   C     C_R   0.344753 0.879176 0.606033 -0.050223
C14   C     C_R   0.418107 0.934292 0.543421 0.043600
C15   C     C_R   0.414056 0.058149 0.502875 0.042449
C16   C     C_R   0.490815 0.127284 0.484464 -0.098319
C17   C     C_R   0.567354 0.068182 0.475804 -0.205083
C18   C     C_R   0.569285 0.940291 0.484063 -0.011435
C19   C     C_R   0.494783 0.872359 0.516466 -0.112516
C20   C     C_R   0.624094 0.645275 0.145875 -0.133819
C21   C     C_R   0.689677 0.699926 0.070074 -0.213829
C22   C     C_R   0.681413 0.708821 0.927857 -0.188721
C23   C     C_R   0.496201 0.737261 0.504612 0.769816
C24   C     C_R   0.603385 0.676601 0.869221 0.037644
C25   C     C_R   0.554045 0.581359 0.929673 0.140598
C26   C     C_R   0.558365 0.574738 0.077469 0.193790
C27   C     C_R   0.445812 0.426395 0.070869 -0.076807
C28   C     C_R   0.446402 0.424545 0.923345 0.053715
C29   C     C_R   0.659521 0.500900 0.499043 0.822695
C30   C     C_3   0.045684 0.414550 0.609337 -0.399393
C31   C     C_3   0.051256 0.467024 0.358613 -0.424167
C32   C     C_3   0.953271 0.463180 0.356266 -0.188448
C33   C     C_1   0.749107 0.503418 0.497494 -0.124714
C34   C     C_3   0.083549 0.507694 0.506165 0.213226
Cu1   Cu    Cu3+1 0.499990 0.499990 0.640660 0.986517
Cu2   Cu    Cu3+1 0.500010 0.500010 0.359340 0.967581
H1    H     H_    0.076240 0.534018 0.282977 0.175119
N1    N     N_R   0.500800 0.501210 0.147910 -0.196639
N2    N     N_R   0.500820 0.501290 0.852040 -0.213863
O1    O     O_R   0.499990 0.319640 0.618810 -0.568714
O2    O     O_R   0.500000 0.319660 0.381240 -0.569943
O3    O     O_R   0.379430 0.499990 0.618840 -0.569018
O4    O     O_R   0.379440 0.500020 0.381260 -0.560840
O5    O     O_R   0.500000 0.680340 0.618760 -0.582205
O6    O     O_R   0.500010 0.680360 0.381190 -0.591240
O7    O     O_R   0.620560 0.499980 0.618740 -0.567381
O8    O     O_R   0.620570 0.500010 0.381160 -0.595342
H2    H     H_    0.922493 0.321506 0.584318 0.143548
H3    H     H_    0.072313 0.435635 0.714722 0.185221
C35   C     C_1   0.915973 0.448862 0.754346 0.276375
N3    N     N_1   0.890943 0.473188 0.865809 -0.256999
H4    H     H_    0.941374 0.698274 0.443938 0.129953
H5    H     H_    0.625652 0.122239 0.461411 0.145927
C36   C     C_1   0.319945 0.198906 0.384726 0.204627
N4    N     N_1   0.306326 0.269593 0.303167 -0.293343
H6    H     H_    0.199395 0.080918 0.517176 0.142025
H7    H     H_    0.211112 0.894189 0.645180 0.158188
C37   C     C_1   0.347972 0.783602 0.704030 0.279644
N5    N     N_1   0.348950 0.709740 0.786369 -0.236833
C38   C     C_1   0.649388 0.881331 0.466573 0.218039
N6    N     N_1   0.713508 0.834234 0.452929 -0.313037
H8    H     H_    0.401754 0.366122 0.123591 0.169028
H9    H     H_    0.064902 0.318681 0.576365 0.165980
H10   H     H_    0.627265 0.662738 0.255384 0.207768
H11   H     H_    0.742724 0.746230 0.123300 0.182704
H12   H     H_    0.725384 0.770522 0.875749 0.182757
C39   C     C_1   0.560609 0.789076 0.845731 0.282901
N7    N     N_1   0.527233 0.880915 0.830771 -0.275475
C40   C     C_1   0.386503 0.342118 0.850306 0.330279
N8    N     N_1   0.338043 0.275549 0.792495 -0.289569
H13   H     H_    0.076628 0.374733 0.324731 0.190016
C41   C     C_1   0.920203 0.337794 0.308313 0.266200
N9    N     N_1   0.894283 0.239726 0.270816 -0.269588
H14   H     H_    0.933291 0.527775 0.278111 0.148986
C42   C     C_1   0.084359 0.686080 0.686770 0.247048
N10   N     N_1   0.108786 0.720659 0.795358 -0.270705
H15   H     H_    0.081529 0.706577 0.472905 0.121048
C43   C     C_1   0.912110 0.710334 0.653547 0.306117
N11   N     N_1   0.879125 0.763196 0.746040 -0.276398

loop_
_geom_bond_atom_site_label_1
_geom_bond_atom_site_label_2
_ccdc_geom_bond_type
C20   H10   S    
C23   O6    A    
C19   C23   S    
Cu1   Cu2   S    
C3    C6    S    
C7    C8    T    
C32   C41   S    
C29   O8    A    
C12   O4    A    
C32   H14   S    
C27   N1    A    
C15   C16   A    
C29   C33   S    
Cu2   O8    S    
C18   C19   A    
Cu1   O3    S    
C22   H12   S    
C12   O3    A    
C2    C35   S    
C1    O1    A    
C28   C40   S    
C16   C17   A    
C10   H6    S    
C9    C10   A    
C24   C39   S    
C31   H13   S    
C21   C22   A    
Cu2   O2    S    
C40   N8    T    
C17   C18   A    
C30   C34   S    
C39   N7    T    
C24   C25   A    
C43   N11   T    
C4    C5    S    
C13   C37   S    
C28   N2    A    
C2    H2    S    
C37   N5    T    
C23   O5    A    
C31   H1    S    
C38   N6    T    
C5    C42   S    
Cu1   N2    S    
C42   N10   T    
C4    C43   S    
C27   H8    S    
C31   C32   S    
C8    C12   S    
C5    C34   S    
C35   N3    T    
C31   C34   S    
Cu2   O6    S    
C1    C16   S    
Cu1   O5    S    
C1    O2    A    
C30   H3    S    
C4    H4    S    
C7    C34   S    
C22   C24   A    
C5    H15   S    
C3    C4    S    
C17   H5    S    
C18   C38   S    
C36   N4    T    
C21   H11   S    
C14   C19   A    
C26   N1    A    
C41   N9    T    
C6    C33   T    
C29   O7    A    
C2    C30   S    
Cu2   N1    S    
Cu1   O1    S    
C25   C26   A    
C11   H7    S    
C25   N2    A    
C11   C13   A    
C20   C26   A    
C30   H9    S    
C2    C3    S    
C9    C15   A    
C3    C32   S    
C10   C11   A    
C20   C21   A    
C27   C28   A    
C14   C15   A    
Cu2   O4    S    
C9    C36   S    
C13   C14   A    
Cu1   O7    S    
