data_mof_unit_3914.cif
_audit_creation_date              2012-12-11T17:01:29-0500
_audit_creation_method            fapswitch 2.2
_symmetry_space_group_name_H-M    P1
_symmetry_Int_Tables_number       1
_space_group_crystal_system       triclinic
_cell_length_a                    14.976069
_cell_length_b                    14.834236
_cell_length_c                    14.846043
_cell_angle_alpha                 109.308824
_cell_angle_beta                  109.212832
_cell_angle_gamma                 109.793758
_cell_volume                      2541.9539151

loop_
_atom_site_label
_atom_site_type_symbol
_atom_type_description
_atom_site_fract_x
_atom_site_fract_y
_atom_site_fract_z
_atom_type_partial_charge
C1    C     C_R   0.004343 0.804622 0.097570 -0.154162
C2    C     C_R   0.224499 0.753471 0.315503 0.714213
C3    C     C_R   0.902687 0.408927 0.208507 0.672648
C4    C     C_R   0.792999 0.196273 0.700408 -0.162247
C5    C     C_R   0.299571 0.591701 0.994504 -0.145482
C6    C     C_R   0.929412 0.500397 0.300650 -0.141142
C7    C     C_R   0.300492 0.500224 0.931734 -0.002908
C8    C     C_R   0.326956 0.777859 0.325583 -0.103266
C9    C     C_R   0.051612 0.226055 0.053440 0.046040
C10   C     C_3   0.470614 0.397422 0.828953 -0.396367
C11   C     C_3   0.366465 0.397350 0.824491 -0.400156
C12   C     C_R   0.698883 0.132251 0.696426 0.075092
C13   C     C_3   0.565438 0.499397 0.037193 -0.386551
C14   C     C_3   0.574010 0.604660 0.933228 -0.394790
C15   C     C_3   0.573154 0.500466 0.935841 0.386518
C16   C     C_R   0.025080 0.593449 0.779022 -0.146190
C17   C     C_3   0.397315 0.500438 0.928126 0.391200
C18   C     C_3   0.462431 0.499140 0.032470 -0.394813
C19   C     C_3   0.470198 0.604973 0.929421 -0.401660
C20   C     C_R   0.623437 0.969973 0.516999 0.148968
C21   C     C_R   0.621953 0.015945 0.614932 0.041483
C22   C     C_R   0.534559 0.952495 0.623934 -0.230223
C23   C     C_R   0.951056 0.502637 0.675151 0.071461
C24   C     C_R   0.439689 0.860856 0.528923 -0.157389
C25   C     C_R   0.432368 0.834769 0.425616 0.060706
C26   C     C_R   0.529692 0.880807 0.423310 0.159143
C27   C     C_3   0.555166 0.924989 0.352004 -0.503797
C28   C     C_R   0.685602 0.407767 0.932965 -0.113593
C29   C     C_3   0.657840 0.022120 0.454574 -0.517311
C30   C     C_R   0.942975 0.605327 0.478490 0.119374
C31   C     C_R   0.893320 0.504954 0.381847 0.070692
C32   C     C_R   0.824215 0.408302 0.375984 -0.159623
C33   C     C_R   0.830044 0.409490 0.472523 -0.244874
C34   C     C_R   0.674788 0.500367 0.948755 -0.018925
C35   C     C_R   0.905016 0.507152 0.574403 0.048627
C36   C     C_R   0.949068 0.606485 0.573648 0.163645
C37   C     C_3   0.061546 0.706092 0.643684 -0.555857
C38   C     C_3   0.054622 0.705003 0.539833 -0.438359
C39   C     C_R   0.057587 0.036692 0.163421 0.170737
C40   C     C_R   0.935859 0.408940 0.684751 -0.125427
C41   C     C_R   0.103337 0.987090 0.109700 0.035928
C42   C     C_R   0.171800 0.048471 0.080716 -0.204202
C43   C     C_R   0.169167 0.141159 0.078381 -0.195504
C44   C     C_R   0.097172 0.171025 0.103817 0.040849
C45   C     C_R   0.990813 0.591019 0.297085 -0.163021
C46   C     C_R   0.053981 0.127246 0.160071 0.135487
C47   C     C_3   0.942813 0.087226 0.149802 -0.476673
C48   C     C_3   0.947383 0.988931 0.154268 -0.541966
C49   C     C_R   0.777528 0.592652 0.025385 -0.138666
C50   C     C_R   0.699426 0.195220 0.789548 -0.121456
C51   C     C_R   0.094608 0.805855 0.005377 -0.139072
C52   C     C_R   0.065637 0.869533 0.068487 0.076638
C53   C     C_R   0.208957 0.408495 0.903908 -0.150402
C54   C     C_R   0.313372 0.746130 0.221170 -0.264875
C55   C     C_R   0.977551 0.255493 0.069647 -0.138889
C56   C     C_R   0.066477 0.250230 0.974691 -0.121208
F1    F     F_    0.201066 0.777813 0.398007 -0.762436
F2    F     F_    0.821222 0.304393 0.163332 -0.753311
H1    H     H_    0.985738 0.832509 0.162360 0.107945
H2    H     H_    0.828486 0.167929 0.652538 0.104357
H3    H     H_    0.314844 0.319839 0.819789 0.149196
H4    H     H_    0.564288 0.425015 0.040280 0.163871
H5    H     H_    0.411592 0.424413 0.032732 0.157643
H6    H     H_    0.645740 0.681729 0.007531 0.148680
H7    H     H_    0.578580 0.605921 0.860314 0.158976
H8    H     H_    0.423958 0.607499 0.855184 0.157802
H9    H     H_    0.495923 0.681456 0.002899 0.149058
H10   H     H_    0.637984 0.573186 0.114672 0.157027
H11   H     H_    0.485441 0.572686 0.107656 0.156891
H12   H     H_    0.178961 0.323117 0.848387 0.087810
H13   H     H_    0.533609 0.979993 0.700594 0.137235
H14   H     H_    0.051993 0.678985 0.803508 0.113160
H15   H     H_    0.369521 0.820027 0.536055 0.192812
H16   H     H_    0.571955 0.872120 0.294624 0.184570
H17   H     H_    0.496701 0.949210 0.313886 0.206177
H18   H     H_    0.733465 0.024657 0.456318 0.189103
H19   H     H_    0.657560 0.101168 0.474422 0.201035
H20   H     H_    0.775875 0.329508 0.301220 0.205900
H21   H     H_    0.786793 0.331741 0.468140 0.136230
H22   H     H_    0.063330 0.779439 0.699188 0.196379
H23   H     H_    0.373893 0.748343 0.196883 0.150814
H24   H     H_    0.125916 0.688811 0.683530 0.203707
H25   H     H_    0.052030 0.777527 0.535443 0.198099
H26   H     H_    0.622136 0.322134 0.884624 0.096144
H27   H     H_    0.115105 0.687323 0.521634 0.230222
H28   H     H_    0.216123 0.018186 0.046771 0.127061
H29   H     H_    0.211620 0.178771 0.042808 0.124596
H30   H     H_    0.943934 0.142410 0.222779 0.204056
H31   H     H_    0.877272 0.063022 0.068813 0.209612
H32   H     H_    0.951940 0.987971 0.230194 0.193823
H33   H     H_    0.884503 0.910127 0.076139 0.201217
H34   H     H_    0.952148 0.254259 0.129172 0.158070
H35   H     H_    0.882849 0.323660 0.620315 0.095514
H36   H     H_    0.799481 0.678379 0.062633 0.094199
H37   H     H_    0.646727 0.166032 0.820785 0.101594
H38   H     H_    0.155793 0.835228 0.982908 0.088105
H39   H     H_    0.006598 0.673747 0.341983 0.186142
H40   H     H_    0.119439 0.238924 0.942926 0.092329
H41   H     H_    0.353830 0.677033 0.022785 0.087780
H42   H     H_    0.464986 0.319710 0.825627 0.151535
H43   H     H_    0.474924 0.397532 0.755579 0.159821
H44   H     H_    0.319110 0.397107 0.748746 0.158015
N1    N     N_R   0.995640 0.706130 0.053910 -0.039255
N2    N     N_R   0.054010 0.556790 0.847890 -0.038385
N3    N     N_R   0.789940 0.443190 0.997130 -0.036520
N4    N     N_R   0.997630 0.443170 0.791110 -0.039749
N5    N     N_R   0.846320 0.556810 0.053910 -0.042605
N6    N     N_R   0.791080 0.293860 0.847890 -0.038905
N7    N     N_R   0.052880 0.706130 0.997130 -0.038165
N8    N     N_R   0.002370 0.556830 0.208890 -0.080862
N9    N     N_R   0.153680 0.443190 0.946090 -0.034282
N10   N     N_R   0.208920 0.706140 0.152110 -0.068786
N11   N     N_R   0.947120 0.293870 0.002870 -0.036583
N12   N     N_R   0.004360 0.293870 0.946090 -0.044228
N13   N     N_R   0.151690 0.706140 0.208890 -0.100834
N14   N     N_R   0.945990 0.443210 0.152110 -0.108807
N15   N     N_R   0.210060 0.556810 0.002870 -0.029532
N16   N     N_R   0.848310 0.293860 0.791110 -0.041343
Ni1   Ni    Ni4+2 0.999010 0.630300 0.130220 0.217501
Ni2   Ni    Ni4+2 0.000990 0.369700 0.869780 0.205431
Ni3   Ni    Ni4+2 0.130280 0.630280 0.000000 0.200722
Ni4   Ni    Ni4+2 0.869720 0.369720 0.000000 0.258216

loop_
_geom_bond_atom_site_label_1
_geom_bond_atom_site_label_2
_ccdc_geom_bond_type
C6    C45   A    
C38   H25   S    
C28   H26   S    
C41   C42   A    
C35   C36   A    
C16   H14   S    
C56   H40   S    
C40   H35   S    
C3    C6    A    
N2    N4    A    
C50   H37   S    
C2    F1    S    
C39   C41   A    
C29   H18   S    
N3    N5    A    
C26   C27   S    
C37   C38   S    
N14   Ni4   S    
C13   C18   S    
C36   C37   S    
C3    N14   A    
C1    H1    S    
C30   C31   A    
C24   H15   S    
C27   C29   S    
C23   C40   A    
C30   C38   S    
C19   H8    S    
N15   Ni3   S    
C17   C19   S    
C16   N2    A    
C13   H4    S    
C5    H41   S    
C7    C17   S    
C48   H33   S    
C19   H9    S    
C9    C55   A    
C49   H36   S    
C4    C12   A    
C27   H16   S    
C1    N1    A    
C15   C34   S    
C51   H38   S    
C53   N9    A    
C18   H11   S    
C6    C31   S    
C28   C34   A    
C51   N7    A    
N1    N7    A    
C48   H32   S    
C21   C22   A    
C50   N6    A    
C8    C25   S    
C47   H31   S    
C4    N16   A    
C27   H17   S    
C53   H12   S    
N5    Ni1   S    
C44   C46   A    
C20   C29   S    
C10   H43   S    
C37   H22   S    
N1    Ni1   S    
N11   Ni4   S    
C38   H27   S    
C51   C52   A    
N6    N16   A    
C24   C25   A    
C49   N5    A    
C8    C54   A    
C5    C7    A    
C45   N8    A    
C33   H21   S    
N2    Ni3   S    
C55   N11   A    
C25   C26   A    
C12   C21   S    
C5    N15   A    
N9    Ni2   S    
C43   C44   A    
C55   H34   S    
C2    N13   A    
C47   C48   S    
C28   N3    A    
C14   H6    S    
C4    H2    S    
C17   C18   S    
C54   N10   A    
C9    C56   A    
C10   H42   S    
C9    C44   S    
C39   C46   A    
C42   H28   S    
C16   C23   A    
C23   C35   S    
C13   C15   S    
C22   C24   A    
C37   H24   S    
C42   C43   A    
C7    C53   A    
N8    N14   A    
C22   H13   S    
C40   N4    A    
N11   N12   A    
C46   C47   S    
C11   C17   S    
C34   C49   A    
C41   C52   S    
N4    Ni2   S    
C10   C15   S    
C14   C19   S    
C31   C32   A    
C2    C8    A    
N6    Ni4   S    
C11   H3    S    
N8    Ni1   S    
C12   C50   A    
N13   Ni1   S    
C30   C36   A    
N9    N15   A    
C43   H29   S    
C47   H30   S    
N10   Ni3   S    
C45   H39   S    
C32   C33   A    
N7    Ni3   S    
C20   C26   A    
C33   C35   A    
C14   H7    S    
N3    Ni4   S    
C11   H44   S    
N10   N13   A    
C18   H5    S    
C1    C52   A    
N16   Ni2   S    
C10   C11   S    
C32   H20   S    
C3    F2    S    
C29   H19   S    
C20   C21   A    
C56   N12   A    
C14   C15   S    
C54   H23   S    
N12   Ni2   S    
C39   C48   S    
C13   H10   S    
