data_mof_unit_4141.cif
_audit_creation_date              2012-12-11T18:42:33-0500
_audit_creation_method            fapswitch 2.2
_symmetry_space_group_name_H-M    P1
_symmetry_Int_Tables_number       1
_space_group_crystal_system       triclinic
_cell_length_a                    8.221445
_cell_length_b                    14.448429
_cell_length_c                    18.830486
_cell_angle_alpha                 95.686048
_cell_angle_beta                  91.292191
_cell_angle_gamma                 92.575339
_cell_volume                      2222.74194755

loop_
_atom_site_label
_atom_site_type_symbol
_atom_type_description
_atom_site_fract_x
_atom_site_fract_y
_atom_site_fract_z
_atom_type_partial_charge
Ba1   Ba    Ba6+2 0.843240 0.541620 0.463500 1.744454
Ba2   Ba    Ba6+2 0.346570 0.458460 0.536510 1.710642
C1    C     C_3   0.692431 0.827356 0.167491 -0.237942
C2    C     C_R   0.929354 0.392258 0.097193 -0.052391
C3    C     C_R   0.833256 0.368643 0.944351 -0.003598
C4    C     C_3   0.136957 0.737328 0.265545 0.244248
C5    C     C_R   0.966295 0.428029 0.971714 0.067084
C6    C     C_R   0.772399 0.370677 0.874856 -0.025391
C7    C     C_R   0.843590 0.430098 0.828603 -0.062501
C8    C     C_R   0.985072 0.485016 0.852365 0.015847
C9    C     C_R   0.045174 0.484844 0.924313 0.067716
C10   C     C_R   0.779876 0.435243 0.758756 -0.038888
C11   C     C_R   0.873678 0.480081 0.710099 -0.277169
C12   C     C_3   0.619299 0.767152 0.222832 0.889398
C13   C     C_R   0.015650 0.533497 0.731359 0.026975
C14   C     C_R   0.065104 0.541437 0.804661 -0.045697
C15   C     C_R   0.160276 0.490846 0.068395 0.005593
C16   C     C_3   0.131638 0.755855 0.187000 -0.251881
C17   C     C_R   0.213652 0.497568 0.141743 0.023552
C18   C     C_R   0.119940 0.453841 0.192839 -0.033663
C19   C     C_R   0.979896 0.400620 0.168713 -0.043819
C20   C     C_R   0.185899 0.606873 0.832850 -0.032484
C21   C     C_R   0.235164 0.611135 0.904493 0.013060
C22   C     C_R   0.181307 0.543551 0.948786 0.071312
C23   C     C_3   0.519795 0.336456 0.321020 0.357321
C24   C     C_R   0.251424 0.537744 0.018339 -0.042457
C25   C     C_R   0.412634 0.571891 0.039223 0.389339
C26   C     C_R   0.363385 0.545563 0.163404 -0.083998
C27   C     C_R   0.463620 0.576876 0.110968 -0.120298
C28   C     C_3   0.082538 0.757743 0.625650 0.211353
C29   C     C_R   0.411917 0.557137 0.236551 -0.028628
C30   C     C_R   0.309573 0.521152 0.286649 -0.285789
C31   C     C_R   0.169509 0.465101 0.266310 -0.015574
C32   C     C_R   0.695525 0.940590 0.536008 -0.043274
C33   C     C_R   0.501093 0.804012 0.505211 0.077951
C34   C     C_3   0.484001 0.320799 0.239971 0.371859
C35   C     C_R   0.351251 0.770309 0.474090 -0.236481
C36   C     C_R   0.250842 0.828233 0.439985 -0.013541
C37   C     C_R   0.301449 0.919878 0.433879 -0.027546
C38   C     C_R   0.454094 0.955743 0.462127 0.079220
C39   C     C_R   0.551065 0.899751 0.502455 0.056000
C40   C     C_3   0.115490 0.863102 0.641238 0.246012
C41   C     C_R   0.650109 0.088346 0.486252 -0.032784
C42   C     C_R   0.743236 0.034434 0.529814 -0.014714
C43   C     C_R   0.695790 0.184737 0.484371 -0.008134
C44   C     C_R   0.838649 0.221764 0.520344 -0.253108
C45   C     C_3   0.112102 0.267496 0.738601 0.286629
C46   C     C_R   0.936003 0.166789 0.558772 0.067500
C47   C     C_R   0.886158 0.074392 0.565114 -0.139946
C48   C     C_R   0.516525 0.043643 0.445987 -0.078027
C49   C     C_3   0.111517 0.226597 0.333264 0.233153
C50   C     C_3   0.112048 0.179117 0.256984 -0.357739
C51   C     C_3   0.658010 0.662931 0.675679 0.325827
C52   C     C_3   0.609701 0.680618 0.753579 -0.266868
C53   C     C_2   0.293195 0.891001 0.642195 0.463908
C54   C     C_2   0.062932 0.153838 0.381339 0.424941
C55   C     C_2   0.742180 0.731985 0.799464 0.750785
C56   C     C_3   0.102615 0.239008 0.814553 -0.240759
C57   C     C_2   0.681800 0.779366 0.093945 0.523629
C58   C     C_2   0.176438 0.855596 0.177334 0.647732
C59   C     C_2   0.258748 0.201591 0.839487 0.624954
C60   C     C_2   0.483716 0.068561 0.373070 0.664014
C61   C     C_3   0.605025 0.213597 0.696207 0.289344
C62   C     C_3   0.570451 0.114365 0.713260 -0.271929
C63   C     C_R   0.017554 0.436059 0.045336 0.060308
H1    H     H_    0.054060 0.895699 0.597844 -0.049500
H2    H     H_    0.495726 0.719238 0.756898 0.137911
H3    H     H_    0.496666 0.739102 0.203517 -0.351730
H4    H     H_    0.624333 0.891962 0.166122 0.158099
H5    H     H_    0.420035 0.374362 0.347374 -0.180387
H6    H     H_    0.630068 0.380890 0.330821 0.080888
H7    H     H_    0.351877 0.310691 0.229548 -0.091990
H8    H     H_    0.524118 0.383747 0.215026 -0.015409
H9    H     H_    0.208558 0.323247 0.737083 0.107528
H10   H     H_    0.993550 0.295397 0.724506 -0.066183
H11   H     H_    0.075748 0.300697 0.851064 0.056132
H12   H     H_    0.232733 0.257522 0.349862 0.048285
H13   H     H_    0.001933 0.185679 0.817327 0.104296
H14   H     H_    0.738589 0.228708 0.700908 -0.061331
H15   H     H_    0.562221 0.218439 0.640350 0.074978
H16   H     H_    0.620194 0.104934 0.767258 0.132033
H17   H     H_    0.627511 0.065829 0.673116 0.078212
H18   H     H_    0.087341 0.664924 0.267971 0.061292
H19   H     H_    0.437315 0.098168 0.711113 0.190879
H20   H     H_    0.831295 0.477019 0.655093 0.073408
H21   H     H_    0.668455 0.324926 0.858072 0.150313
H22   H     H_    0.906128 0.365355 0.204987 0.155993
H23   H     H_    0.000604 0.133589 0.244588 0.177526
H24   H     H_    0.237851 0.658143 0.800864 0.114462
H25   H     H_    0.586587 0.602064 0.125059 0.119333
H26   H     H_    0.346427 0.531099 0.342488 0.073610
H27   H     H_    0.772386 0.319647 0.975544 0.094666
H28   H     H_    0.816843 0.352922 0.084479 0.132994
H29   H     H_    0.311422 0.670115 0.925657 0.145934
H30   H     H_    0.265499 0.742706 0.285551 0.037775
H31   H     H_    0.312999 0.697941 0.475862 0.055951
H32   H     H_    0.222396 0.961781 0.405090 0.074304
H33   H     H_    0.958699 0.034662 0.598253 0.116775
H34   H     H_    0.217109 0.134240 0.250760 0.144027
H35   H     H_    0.875214 0.294322 0.518217 0.067863
H36   H     H_    0.770133 0.900531 0.568186 0.078847
H37   H     H_    0.215586 0.709796 0.156734 0.075187
H38   H     H_    0.007891 0.737351 0.164302 0.121153
H39   H     H_    0.115229 0.735239 0.569955 -0.043661
H40   H     H_    0.952197 0.743682 0.632808 0.095232
H41   H     H_    0.764678 0.940762 0.364709 0.362494
H42   H     H_    0.382076 0.850665 0.667375 0.049490
H43   H     H_    0.795747 0.948999 0.693467 0.323209
H44   H     H_    0.946599 0.115269 0.372539 0.059437
H45   H     H_    0.116766 0.231119 0.217564 0.128072
H46   H     H_    0.863445 0.705487 0.800359 -0.038934
H47   H     H_    0.650201 0.187770 0.085635 0.366606
H48   H     H_    0.562606 0.761303 0.069614 0.079761
H49   H     H_    0.109031 0.911192 0.204046 0.039316
H50   H     H_    0.296635 0.134636 0.816374 0.069034
H51   H     H_    0.578374 0.527575 0.867249 0.349501
H52   H     H_    0.361399 0.070490 0.351432 0.009012
H53   H     H_    0.784891 0.642140 0.672550 -0.138422
H54   H     H_    0.580427 0.603151 0.651882 0.099764
H55   H     H_    0.820473 0.849322 0.182612 0.109135
H56   H     H_    0.584965 0.612846 0.774557 0.001000
O1    O     O_2   0.887710 0.436190 0.327560 -0.444078
O2    O     O_2   0.276861 0.176136 0.567820 -0.404657
O3    O     O_3   0.145796 0.190116 0.691131 -0.585076
O4    O     O_3   0.135370 0.443490 0.416520 -0.475152
O5    O     O_3   0.551980 0.615210 0.532020 -0.496476
O6    O     O_2   0.394410 0.269100 0.474240 -0.436372
O7    O     O_3   0.538647 0.251822 0.349598 -0.594135
O8    O     O_2   0.435571 0.447987 0.758219 -0.474186
O9    O     O_3   0.521925 0.274350 0.744058 -0.596631
O10   O     O_3   0.634420 0.609440 0.364670 -0.421631
O11   O     O_2   0.730513 0.521377 0.246067 -0.497199
O12   O     O_3   0.639547 0.744018 0.641182 -0.629747
O13   O     O_3   0.991565 0.292092 0.338265 -0.594221
O14   O     O_3   0.724787 0.696295 0.236974 -0.605497
O15   O     O_2   0.795290 0.730930 0.525800 -0.481297
O16   O     O_3   0.044470 0.660110 0.398750 -0.485692
O17   O     O_2   0.910231 0.821938 0.431347 -0.442759
O18   O     O_2   0.447476 0.895455 0.292003 -0.367613
O19   O     O_2   0.584380 0.787629 0.363316 -0.360199
O20   O     O_3   0.762664 0.917900 0.313389 -0.484643
O21   O     O_2   0.337997 0.962350 0.617358 -0.609168
O22   O     O_2   0.092925 0.852849 0.783463 -0.246313
O23   O     O_3   0.041570 0.800433 0.306084 -0.554395
O24   O     O_2   0.083994 0.007428 0.741745 -0.298878
O25   O     O_3   0.828584 0.895840 0.718766 -0.494317
O26   O     O_2   0.151433 0.137677 0.430797 -0.624858
O27   O     O_2   0.713945 0.802899 0.837048 -0.448338
O28   O     O_2   0.751487 0.220230 0.223654 -0.306019
O29   O     O_2   0.488661 0.134726 0.203166 -0.223863
O30   O     O_3   0.585582 0.239109 0.107082 -0.521095
O31   O     O_2   0.804750 0.763675 0.060548 -0.487418
O32   O     O_2   0.287979 0.874971 0.138932 -0.549239
O33   O     O_2   0.342561 0.245301 0.886852 -0.546063
O34   O     O_2   0.301980 0.563840 0.672490 -0.469960
O35   O     O_2   0.587387 0.674597 0.951234 -0.309142
O36   O     O_2   0.729502 0.559543 0.011445 -0.291686
O37   O     O_3   0.526928 0.500325 0.907637 -0.515457
O38   O     O_2   0.597342 0.079872 0.333728 -0.476963
O39   O     O_3   0.054330 0.556590 0.583490 -0.493875
O40   O     O_3   0.555270 0.390630 0.635330 -0.490071
O41   O     O_3   0.171288 0.711146 0.673682 -0.638064
O42   O     O_3   0.637720 0.384870 0.467990 -0.482719
O43   O     O_3   0.145220 0.339960 0.601250 -0.497979
P1    P     P_3+3 0.061800 0.409390 0.339760 0.992263
P2    P     P_3+3 0.622760 0.718740 0.547830 0.994019
P3    P     P_3+3 0.061074 0.779685 0.395842 1.040827
P4    P     P_3+3 0.127890 0.590690 0.660240 0.977667
P5    P     P_3+3 0.125733 0.218727 0.603181 1.047802
P6    P     P_3+3 0.619567 0.600894 0.270432 1.024363
P7    P     P_3+3 0.569983 0.269782 0.442556 1.002687
P8    P     P_3+3 0.573742 0.388439 0.726877 0.948757
S1    S     S_3+6 0.598917 0.843357 0.301071 -0.081256
S2    S     S_3+6 0.032613 0.906464 0.724502 -0.059933
S3    S     S_3+6 0.581311 0.224544 0.194453 -0.032406
S4    S     S_3+6 0.570386 0.579642 0.977089 -0.110461

loop_
_geom_bond_atom_site_label_1
_geom_bond_atom_site_label_2
_ccdc_geom_bond_type
C42   C47   A    
C19   H22   S    
O10   P6    S    
Ba2   O34   S    
C25   C27   A    
O8    P8    D    
C58   H49   S    
C17   C18   A    
C59   O33   D    
C28   H39   S    
C56   H11   S    
C10   P8    S    
C61   H14   S    
C51   C52   S    
C5    C9    A    
C24   C25   A    
C15   C24   A    
C26   C27   A    
C1    H4    S    
C23   O7    S    
Ba1   O4    S    
Ba1   Ba2   S    
C12   S1    S    
C36   C37   A    
C49   O13   S    
C37   H32   S    
C30   H26   S    
C12   O14   S    
O6    P7    D    
C13   C14   A    
C9    C22   A    
C33   P2    S    
C49   C54   S    
C16   H37   S    
C61   O9    S    
C58   O32   D    
C62   H19   S    
C60   H52   S    
C47   H33   S    
Ba1   O1    S    
O40   P8    S    
O35   S4    D    
O3    P5    S    
O9    P8    S    
C6    C7    A    
C59   H50   S    
C21   C22   A    
C23   H6    S    
C50   H45   S    
Ba1   O15   S    
O42   P7    S    
C7    C8    A    
Ba2   O6    S    
C56   C59   S    
O29   S3    D    
O1    P1    D    
O20   S1    S    
O43   P5    S    
C32   C39   A    
O11   P6    D    
C43   P7    S    
Ba2   O40   S    
C27   H25   S    
H43   O25   S    
C61   H15   S    
Ba1   O39   S    
C36   P3    S    
C4    C16   S    
C44   C46   A    
O13   P1    S    
C32   H36   S    
O30   S3    S    
O23   P3    S    
C49   C50   S    
C50   H23   S    
C32   C42   A    
Ba1   O5    S    
C40   S2    S    
Ba2   O43   S    
C37   C38   A    
C3    C5    A    
C2    H28   S    
C51   H53   S    
O19   S1    D    
C52   H2    S    
C23   C34   S    
Ba1   O10   S    
C57   O31   D    
C61   C62   S    
C35   H31   S    
C53   H42   S    
O17   P3    D    
O28   S3    D    
C25   S4    S    
O4    P1    S    
C41   C42   A    
C49   H12   S    
H51   O37   S    
C35   C36   A    
C40   C53   S    
C5    C63   A    
C29   C30   A    
Ba1   P1    S    
O34   P4    D    
C57   H48   S    
C18   C19   A    
H47   O30   S    
C51   O12   S    
O24   S2    D    
C17   C26   A    
C41   C43   A    
C62   H17   S    
O2    P5    D    
C1    C12   S    
O7    P7    S    
O41   P4    S    
C18   C31   A    
Ba2   O5    S    
C16   C58   S    
C38   C39   A    
C52   H56   S    
C8    C9    A    
C11   C13   A    
C28   H40   S    
C48   C60   S    
C13   P4    S    
O18   S1    D    
C28   O41   S    
C4    O23   S    
Ba2   P4    S    
C54   H44   S    
O16   P3    S    
Ba1   O16   S    
H41   O20   S    
C40   H1    S    
O37   S4    S    
C44   H35   S    
C46   C47   A    
C14   C20   A    
C4    H18   S    
C33   C35   A    
C60   O38   D    
C26   C29   A    
C31   P1    S    
C45   H9    S    
C22   C24   A    
O5    P2    S    
Ba2   O42   S    
C3    C6    A    
C51   H54   S    
C41   C48   A    
C29   P6    S    
C50   H34   S    
C15   C63   A    
C21   H29   S    
C30   C31   A    
C54   O26   D    
C45   H10   S    
C8    C14   A    
O12   P2    S    
C45   C56   S    
C2    C19   A    
C45   O3    S    
C55   H46   S    
O15   P2    D    
Ba1   P2    S    
C38   C48   A    
O25   S2    S    
C2    C63   A    
C15   C17   A    
C20   H24   S    
C6    H21   S    
C16   H38   S    
O39   P4    S    
C33   C39   A    
C7    C10   A    
C62   H16   S    
C3    H27   S    
C1    H55   S    
C56   H13   S    
O36   S4    D    
C46   P5    S    
O14   P6    S    
Ba2   O4    S    
C43   C44   A    
C10   C11   A    
Ba1   O42   S    
C34   S3    S    
Ba2   O39   S    
C4    H30   S    
C55   O27   D    
C11   H20   S    
C53   O21   D    
C12   H3    S    
C20   C21   A    
C28   C40   S    
C23   H5    S    
O22   S2    D    
C34   H8    S    
C34   H7    S    
C52   C55   S    
C1    C57   S    
