data_mof_unit_2779.cif
_audit_creation_date              2012-12-11T14:30:06-0500
_audit_creation_method            fapswitch 2.2
_symmetry_space_group_name_H-M    P1
_symmetry_Int_Tables_number       1
_space_group_crystal_system       triclinic
_cell_length_a                    12.686035
_cell_length_b                    12.713007
_cell_length_c                    26.937928
_cell_angle_alpha                 89.851298
_cell_angle_beta                  90.11187
_cell_angle_gamma                 119.92662
_cell_volume                      3765.20023317

loop_
_atom_site_label
_atom_site_type_symbol
_atom_type_description
_atom_site_fract_x
_atom_site_fract_y
_atom_site_fract_z
_atom_type_partial_charge
C1    C     C_R   0.558164 0.453991 0.822617 0.562922
C2    C     C_R   0.896033 0.440629 0.677146 0.514603
C3    C     C_R   0.544239 0.099672 0.821610 0.547678
C4    C     C_R   0.559301 0.455405 0.677203 0.514886
C5    C     C_R   0.901213 0.444565 0.821285 0.540583
C6    C     C_R   0.544469 0.103759 0.677221 0.512597
C7    C     C_R   0.457089 0.555257 0.321129 0.567394
C8    C     C_R   0.441016 0.896997 0.177497 0.517063
C9    C     C_R   0.097501 0.542863 0.320954 0.536373
C10   C     C_R   0.455547 0.559454 0.177535 0.515420
C11   C     C_R   0.445243 0.902202 0.321065 0.539582
C12   C     C_R   0.103574 0.544613 0.177319 0.513836
C13   C     C_R   0.018240 0.525484 0.970156 0.003251
C14   C     C_R   0.530874 0.034171 0.521657 0.001269
C15   C     C_R   0.467267 0.488563 0.971313 0.008655
C16   C     C_R   0.965020 0.496459 0.521363 0.001709
C17   C     C_R   0.509649 0.984980 0.971024 -0.000500
C18   C     C_R   0.504315 0.467099 0.521489 0.006028
C19   C     C_R   0.527655 0.022011 0.469450 -0.005697
C20   C     C_R   0.028470 0.527191 0.022354 -0.001326
C21   C     C_R   0.495684 0.470342 0.469302 0.003065
C22   C     C_R   0.500497 0.975740 0.023204 -0.004684
C23   C     C_R   0.976810 0.505327 0.469124 -0.005120
C24   C     C_R   0.463380 0.500318 0.023065 0.003221
C25   C     C_R   0.955556 0.678602 0.974850 -0.042234
C26   C     C_R   0.679635 0.965638 0.527200 -0.052864
C27   C     C_R   0.321454 0.272210 0.978109 -0.063270
C28   C     C_R   0.034942 0.713536 0.526554 -0.052834
C29   C     C_R   0.724384 0.042245 0.976750 -0.036721
C30   C     C_R   0.286424 0.321305 0.526688 -0.037180
C31   C     C_R   0.679811 0.957859 0.474528 -0.025564
C32   C     C_R   0.955169 0.671972 0.027404 -0.022799
C33   C     C_R   0.278172 0.322893 0.474037 -0.040359
C34   C     C_R   0.718302 0.046511 0.029206 -0.021733
C35   C     C_R   0.042411 0.721473 0.473863 -0.024679
C36   C     C_R   0.322574 0.281721 0.030492 -0.012455
C37   C     C_R   0.967914 0.591125 0.893272 0.228664
C38   C     C_R   0.597693 0.010752 0.604447 0.242344
C39   C     C_R   0.439984 0.361012 0.900573 0.270826
C40   C     C_R   0.989035 0.586553 0.604030 0.241416
C41   C     C_R   0.628932 0.041091 0.895107 0.232359
C42   C     C_R   0.413565 0.401174 0.604093 0.237624
C43   C     C_R   0.595302 0.975740 0.392398 0.255866
C44   C     C_R   0.014505 0.602327 0.104388 0.237709
C45   C     C_R   0.382181 0.406034 0.391952 0.258489
C46   C     C_R   0.588595 0.989734 0.105642 0.235183
C47   C     C_R   0.023275 0.619070 0.391907 0.257565
C48   C     C_R   0.402327 0.412820 0.106255 0.233584
C49   C     C_R   0.057353 0.528735 0.125963 -0.012412
C50   C     C_R   0.495110 0.972647 0.367464 -0.038418
C51   C     C_R   0.469612 0.531256 0.126116 -0.006495
C52   C     C_R   0.026040 0.522058 0.367138 -0.039239
C53   C     C_R   0.471661 0.945482 0.126571 -0.016547
C54   C     C_R   0.477871 0.506935 0.367829 0.017059
C55   C     C_R   0.529265 0.060083 0.625439 -0.020838
C56   C     C_R   0.969038 0.493315 0.868194 -0.028283
C57   C     C_R   0.531081 0.469996 0.625300 -0.020522
C58   C     C_R   0.527685 0.033816 0.868954 -0.026298
C59   C     C_R   0.939354 0.469014 0.625235 -0.021184
C60   C     C_R   0.512784 0.465913 0.871348 0.020915
C61   C     C_R   0.982343 0.601239 0.945750 0.036331
C62   C     C_R   0.604262 0.003582 0.551499 0.037088
C63   C     C_R   0.406647 0.373000 0.949503 0.009234
C64   C     C_R   0.996289 0.600311 0.551046 0.036417
C65   C     C_R   0.621831 0.020662 0.947230 0.040300
C66   C     C_R   0.400073 0.394556 0.551134 0.036841
C67   C     C_R   0.601980 0.984335 0.445222 0.043749
C68   C     C_R   0.997982 0.600731 0.051798 0.045701
C69   C     C_R   0.383730 0.397063 0.444865 -0.002300
C70   C     C_R   0.604298 0.006443 0.053118 0.042261
C71   C     C_R   0.014979 0.617200 0.444727 0.043887
C72   C     C_R   0.396335 0.396477 0.053752 0.040163
C73   C     C_R   0.016422 0.428886 0.892020 -0.146331
C74   C     C_R   0.457618 0.087959 0.594856 -0.151143
C75   C     C_R   0.554757 0.580815 0.891411 -0.173743
C76   C     C_R   0.911056 0.369656 0.594790 -0.151039
C77   C     C_R   0.414826 0.982163 0.891981 -0.169649
C78   C     C_R   0.630743 0.541113 0.594907 -0.151262
C79   C     C_R   0.431255 0.020790 0.390960 -0.127406
C80   C     C_R   0.078498 0.451681 0.095988 -0.107930
C81   C     C_R   0.590045 0.569921 0.391334 -0.138899
C82   C     C_R   0.373801 0.925303 0.096296 -0.107855
C83   C     C_R   0.976586 0.410078 0.390667 -0.122665
C84   C     C_R   0.534826 0.630857 0.094830 -0.113744
C85   C     C_R   0.043493 0.446048 0.942284 0.010148
C86   C     C_R   0.457358 0.075161 0.543968 -0.003745
C87   C     C_R   0.536954 0.592847 0.941558 0.000257
C88   C     C_R   0.923717 0.382156 0.543863 -0.002614
C89   C     C_R   0.405053 0.958576 0.942566 -0.004132
C90   C     C_R   0.618589 0.540661 0.544000 -0.003574
C91   C     C_R   0.449317 0.048866 0.441217 0.031157
C92   C     C_R   0.067348 0.452189 0.045056 0.029847
C93   C     C_R   0.600638 0.549606 0.441328 0.027165
C94   C     C_R   0.386182 0.937115 0.045408 0.027359
C95   C     C_R   0.949069 0.400214 0.441014 0.033813
C96   C     C_R   0.531370 0.616835 0.044046 0.021584
C97   C     C_R   0.097986 0.379577 0.016627 -0.108542
C98   C     C_R   0.382400 0.094803 0.464187 -0.090402
C99   C     C_R   0.594191 0.719568 0.014000 -0.112852
C100  C     C_R   0.903265 0.287640 0.464193 -0.093814
C101  C     C_R   0.283179 0.906531 0.016509 -0.100694
C102  C     C_R   0.713408 0.616065 0.464436 -0.091839
C103  C     C_R   0.385729 0.106680 0.515166 -0.136500
C104  C     C_R   0.087043 0.377237 0.965564 -0.130155
C105  C     C_R   0.721773 0.612302 0.515417 -0.138977
C106  C     C_R   0.292570 0.916847 0.965434 -0.132350
C107  C     C_R   0.891849 0.279204 0.515217 -0.140522
C108  C     C_R   0.594486 0.707862 0.962942 -0.132140
Cr1   Cr    Cr6+3 0.487630 0.241180 0.750000 1.112975
Cr2   Cr    Cr6+3 0.753550 0.512370 0.750000 1.084565
Cr3   Cr    Cr6+3 0.758820 0.246450 0.750000 1.083844
Cr4   Cr    Cr6+3 0.241180 0.487630 0.250000 1.108966
Cr5   Cr    Cr6+3 0.512370 0.753550 0.250000 1.080632
Cr6   Cr    Cr6+3 0.246450 0.758820 0.250000 1.083014
H1    H     H_    0.112461 0.395845 0.111975 0.175442
H2    H     H_    0.362276 0.030003 0.370744 0.182751
H3    H     H_    0.584172 0.722083 0.109887 0.175033
H4    H     H_    0.966420 0.331880 0.370452 0.185922
H5    H     H_    0.283715 0.890915 0.111963 0.187418
H6    H     H_    0.667916 0.639508 0.371347 0.186526
H7    H     H_    0.405052 0.125903 0.610505 0.185542
H8    H     H_    0.024392 0.358947 0.872228 0.174762
H9    H     H_    0.721092 0.593900 0.610748 0.185792
H10   H     H_    0.336090 0.970642 0.871439 0.174355
H11   H     H_    0.872877 0.279303 0.610583 0.185796
H12   H     H_    0.610693 0.660864 0.869134 0.156325
H13   H     H_    0.128129 0.322519 0.034110 0.104090
H14   H     H_    0.323879 0.117428 0.442875 0.121897
H15   H     H_    0.645543 0.808712 0.030254 0.119307
H16   H     H_    0.880622 0.206716 0.442985 0.142787
H17   H     H_    0.195359 0.876182 0.033559 0.129882
H18   H     H_    0.794384 0.675030 0.443253 0.148830
H19   H     H_    0.329612 0.137644 0.532391 0.154923
H20   H     H_    0.109110 0.318643 0.944306 0.156284
H21   H     H_    0.808520 0.668582 0.532850 0.154323
H22   H     H_    0.212360 0.895112 0.943773 0.173065
H23   H     H_    0.860982 0.192375 0.532608 0.153458
H24   H     H_    0.644928 0.788022 0.940325 0.168823
O1    O     O_R   0.460870 0.120930 0.805240 -0.464782
O2    O     O_R   0.660060 0.539130 0.694760 -0.498765
O3    O     O_R   0.879070 0.339940 0.805240 -0.479498
O4    O     O_R   0.460870 0.120930 0.694760 -0.499888
O5    O     O_R   0.660060 0.539130 0.805240 -0.493844
O6    O     O_R   0.879070 0.339940 0.694760 -0.497678
O7    O     O_R   0.120930 0.460870 0.305240 -0.472174
O8    O     O_R   0.539130 0.660060 0.194760 -0.497772
O9    O     O_R   0.339940 0.879070 0.305240 -0.475763
O10   O     O_R   0.120930 0.460870 0.194760 -0.501945
O11   O     O_R   0.539130 0.660060 0.305240 -0.493548
O12   O     O_R   0.339940 0.879070 0.194760 -0.497652
O13   O     O_R   0.498910 0.350470 0.801870 -0.433559
O14   O     O_R   0.851560 0.501090 0.698130 -0.489268
O15   O     O_R   0.649530 0.148440 0.801870 -0.480626
O16   O     O_R   0.498910 0.350470 0.698130 -0.488367
O17   O     O_R   0.851560 0.501090 0.801870 -0.479813
O18   O     O_R   0.649530 0.148440 0.698130 -0.490048
O19   O     O_R   0.350470 0.498910 0.301870 -0.429734
O20   O     O_R   0.501090 0.851560 0.198130 -0.494482
O21   O     O_R   0.148440 0.649530 0.301870 -0.476866
O22   O     O_R   0.350470 0.498910 0.198130 -0.493506
O23   O     O_R   0.501090 0.851560 0.301870 -0.477040
O24   O     O_R   0.148440 0.649530 0.198130 -0.495123
O25   O     O_3   0.666667 0.333333 0.750000 -0.269822
O26   O     O_3   0.333333 0.666667 0.250000 -0.270259
O27   O     O_3   0.995768 0.680416 0.133634 -0.650247
H25   H     H_    0.965507 0.641766 0.166464 0.340541
O28   O     O_3   0.688288 0.976336 0.365689 -0.632321
H26   H     H_    0.692313 0.012321 0.332561 0.323169
O29   O     O_3   0.341905 0.314035 0.137434 -0.642936
H27   H     H_    0.384215 0.332624 0.169900 0.337516
O30   O     O_3   0.022361 0.711167 0.365040 -0.631398
H28   H     H_    0.986546 0.679361 0.331916 0.323077
O31   O     O_3   0.684993 0.008838 0.135521 -0.648725
H29   H     H_    0.675272 0.038384 0.168254 0.339326
O32   O     O_3   0.294787 0.316114 0.362587 -0.625496
H30   H     H_    0.274562 0.237169 0.377822 0.322362
O33   O     O_3   0.654621 0.966550 0.634839 -0.641157
H31   H     H_    0.616228 0.948095 0.668085 0.327006
O34   O     O_3   0.947392 0.672601 0.867251 -0.629091
H32   H     H_    0.994560 0.691933 0.835940 0.336581
O35   O     O_3   0.312440 0.343782 0.634314 -0.641813
H33   H     H_    0.331590 0.382985 0.667370 0.329731
O36   O     O_3   0.737687 0.079909 0.871009 -0.628008
H34   H     H_    0.719465 0.028306 0.841078 0.344274
O37   O     O_3   0.033379 0.687437 0.634249 -0.641464
H35   H     H_    0.051944 0.667515 0.667531 0.327109
O38   O     O_3   0.417550 0.249603 0.883288 -0.622777
H36   H     H_    0.425691 0.204077 0.911546 0.320153
C109  C     C_2   0.905279 0.738063 0.055406 0.291583
H37   H     H_    0.941505 0.834485 0.049227 0.091312
O39   O     O_2   0.818462 0.683371 0.083136 -0.457328
C110  C     C_2   0.762088 0.919892 0.451663 0.275978
H38   H     H_    0.856600 0.962369 0.463159 0.083386
O40   O     O_2   0.723422 0.836478 0.422102 -0.464460
C111  C     C_2   0.240549 0.171595 0.059456 0.283705
H39   H     H_    0.143054 0.136251 0.058681 0.080879
O41   O     O_2   0.281480 0.117134 0.082472 -0.458723
C112  C     C_2   0.081207 0.841665 0.450791 0.275723
H40   H     H_    0.039929 0.894569 0.462469 0.086438
O42   O     O_2   0.164013 0.885363 0.420809 -0.467050
C113  C     C_2   0.833145 0.092250 0.057842 0.288296
H41   H     H_    0.889989 0.051540 0.052947 0.076670
O43   O     O_2   0.867606 0.179754 0.085204 -0.461366
C114  C     C_2   0.155671 0.250800 0.451196 0.209485
H42   H     H_    0.093081 0.159813 0.464442 0.091149
O44   O     O_2   0.121644 0.294398 0.418959 -0.470032
C115  C     C_2   0.760955 0.933993 0.555443 0.292472
H43   H     H_    0.750544 0.844403 0.551497 0.126291
O45   O     O_2   0.844281 0.009794 0.580639 -0.425582
C116  C     C_2   0.918132 0.761096 0.951819 0.290079
H44   H     H_    0.826144 0.743656 0.956752 0.127221
O46   O     O_2   0.991730 0.852097 0.929598 -0.440297
C117  C     C_2   0.173190 0.242262 0.554933 0.294535
H45   H     H_    0.096468 0.257371 0.552172 0.125251
O47   O     O_2   0.162844 0.156169 0.579059 -0.427091
C118  C     C_2   0.839486 0.059518 0.954547 0.281372
H46   H     H_    0.926148 0.133557 0.966662 0.101938
O48   O     O_2   0.838760 0.986150 0.925218 -0.448642
C119  C     C_2   0.067825 0.826452 0.554631 0.291940
H47   H     H_    0.158248 0.904555 0.550836 0.125795
O49   O     O_2   0.992241 0.835134 0.579554 -0.427708
C120  C     C_2   0.224677 0.159494 0.953792 0.218682
H48   H     H_    0.184206 0.072953 0.972930 0.125085
O50   O     O_2   0.185344 0.163213 0.912806 -0.423869

loop_
_geom_bond_atom_site_label_1
_geom_bond_atom_site_label_2
_ccdc_geom_bond_type
C44   C49   A    
C4    O16   A    
O30   H28   S    
C80   C92   A    
O27   H25   S    
C82   C94   A    
C18   C21   A    
C2    O6    A    
O29   H27   S    
C5    C56   S    
C26   C115  S    
C3    O15   A    
C6    C55   S    
C97   H13   S    
C8    O20   A    
C50   C79   A    
C12   C49   S    
Cr2   O2    S    
O31   H29   S    
C78   C90   A    
C31   C67   A    
C99   C108  A    
C20   C92   A    
C81   H6    S    
C77   C89   A    
C104  H20   S    
C83   H4    S    
Cr1   O13   S    
C102  H18   S    
Cr6   O9    S    
Cr2   O14   S    
C45   O32   S    
C100  H16   S    
C98   H14   S    
Cr6   O24   S    
C119  O49   D    
C9    O21   A    
C34   C113  S    
C98   C103  A    
C14   C62   A    
C96   C99   A    
C11   O23   A    
Cr4   O7    S    
C102  C105  A    
C84   C96   A    
C109  O39   D    
Cr2   O17   S    
C58   C77   A    
C7    O11   A    
C37   C56   A    
Cr6   O26   S    
C48   C51   A    
C47   O30   S    
C87   C108  A    
C94   C101  A    
C84   H3    S    
C27   C120  S    
C4    C57   S    
C19   C67   A    
C112  H40   S    
Cr5   O20   S    
C6    O4    A    
Cr3   O18   S    
C34   C70   A    
C79   C91   A    
C13   C20   A    
C33   C69   A    
C32   C68   A    
C39   O38   S    
C25   C32   A    
C106  H22   S    
C35   C71   A    
C26   C31   A    
C40   C59   A    
C79   H2    S    
C76   H11   S    
C113  O43   D    
C25   C116  S    
C9    C52   S    
C82   H5    S    
C48   C72   A    
Cr4   O26   S    
C86   C103  A    
C14   C19   A    
C42   C57   A    
C92   C97   A    
C117  O47   D    
C42   O35   S    
C2    O14   A    
C37   O34   S    
C16   C88   A    
Cr4   O19   S    
C38   C55   A    
C45   C69   A    
C115  H43   S    
C18   C90   A    
Cr5   O11   S    
C17   C89   A    
C118  H46   S    
C28   C35   A    
Cr1   O25   S    
C1    C60   S    
O28   H26   S    
C88   C107  A    
C99   H15   S    
C2    C59   S    
C29   C118  S    
C41   C65   A    
C40   O37   S    
O35   H33   S    
Cr5   O23   S    
C31   C110  S    
C22   C94   A    
O34   H32   S    
C21   C69   A    
C53   C82   A    
C110  O40   D    
Cr5   O8    S    
C107  H23   S    
C52   C83   A    
C8    O12   A    
O36   H34   S    
C1    O5    A    
C23   C71   A    
C4    O2    A    
C81   C93   A    
C5    O3    A    
O32   H30   S    
C80   H1    S    
C117  H45   S    
C83   C95   A    
C46   O31   S    
Cr3   O25   S    
C109  H37   S    
C25   C61   A    
C74   C86   A    
C120  O50   D    
C78   H9    S    
Cr3   O15   S    
C14   C86   A    
C30   C66   A    
C85   C104  A    
C27   C63   A    
Cr3   O6    S    
C10   O8    A    
C29   C65   A    
C101  H17   S    
C75   C87   A    
C15   C24   A    
C114  O44   D    
C45   C54   A    
C116  H44   S    
C16   C23   A    
C116  O46   D    
C89   C106  A    
C111  O41   D    
C44   C68   A    
C3    O1    A    
C47   C71   A    
C10   O22   A    
C119  H47   S    
C24   C72   A    
C15   C87   A    
C73   C85   A    
C101  C106  A    
C76   C88   A    
C100  C107  A    
C15   C63   A    
C56   C73   A    
Cr4   O22   S    
C30   C33   A    
C95   C100  A    
C93   C102  A    
C57   C78   A    
C20   C68   A    
Cr1   O16   S    
C51   C84   A    
C90   C105  A    
C118  O48   D    
C8    C53   S    
C41   C58   A    
C37   C61   A    
Cr2   O25   S    
C49   C80   A    
C43   C50   A    
C28   C64   A    
C47   C52   A    
C7    O19   A    
C43   O28   S    
C27   C36   A    
C18   C66   A    
C39   C63   A    
C33   C114  S    
C17   C65   A    
C17   C22   A    
C40   C64   A    
C113  H41   S    
C105  H21   S    
C97   C104  A    
Cr1   O1    S    
C75   H12   S    
C10   C51   S    
C110  H38   S    
C12   O10   A    
O33   H31   S    
C24   C96   A    
C26   C62   A    
C36   C111  S    
C115  O45   D    
C55   C74   A    
C11   C50   S    
C5    O17   A    
Cr5   O26   S    
C108  H24   S    
C11   O9    A    
O37   H35   S    
C21   C93   A    
C39   C60   A    
C29   C34   A    
C46   C53   A    
C9    O7    A    
C42   C66   A    
C23   C95   A    
C32   C109  S    
C1    O13   A    
C77   H10   S    
C44   O27   S    
C91   C98   A    
C103  H19   S    
Cr2   O5    S    
C120  H48   S    
Cr6   O21   S    
C46   C70   A    
C60   C75   A    
C19   C91   A    
Cr3   O3    S    
C12   O24   A    
C111  H39   S    
C3    C58   S    
Cr4   O10   S    
O38   H36   S    
C74   H7    S    
C13   C61   A    
C114  H42   S    
C35   C112  S    
C43   C67   A    
C73   H8    S    
C13   C85   A    
C38   O33   S    
C28   C119  S    
Cr6   O12   S    
C41   O36   S    
C112  O42   D    
C48   O29   S    
C16   C64   A    
C7    C54   S    
C38   C62   A    
C59   C76   A    
C22   C70   A    
C54   C81   A    
C6    O18   A    
C36   C72   A    
Cr1   O4    S    
C30   C117  S    
