data_mof_unit_1291.cif
_audit_creation_date              2012-12-11T17:43:21-0500
_audit_creation_method            fapswitch 2.2
_symmetry_space_group_name_H-M    P1
_symmetry_Int_Tables_number       1
_space_group_crystal_system       triclinic
_cell_length_a                    14.984056
_cell_length_b                    15.093511
_cell_length_c                    16.807707
_cell_angle_alpha                 109.009312
_cell_angle_beta                  105.114874
_cell_angle_gamma                 109.559062
_cell_volume                      3081.05965315

loop_
_atom_site_label
_atom_site_type_symbol
_atom_type_description
_atom_site_fract_x
_atom_site_fract_y
_atom_site_fract_z
_atom_type_partial_charge
C1    C     C_R   0.081524 0.289089 0.081900 -0.147354
C2    C     C_R   0.909390 0.723400 0.972037 -0.138847
C3    C     C_R   0.033968 0.583217 0.746211 0.069550
C4    C     C_R   0.964911 0.528341 0.274524 0.064737
C5    C     C_R   0.755742 0.195674 0.724886 0.058132
C6    C     C_R   0.337701 0.778749 0.252982 0.070722
C7    C     C_R   0.286062 0.457500 0.963403 0.043760
C8    C     C_R   0.636843 0.430009 0.935511 0.069161
C9    C     C_R   0.899203 0.926972 0.044867 -0.251474
C10   C     C_R   0.079914 0.115717 0.127118 -0.247466
C11   C     C_R   0.995455 0.925745 0.068025 0.056916
C12   C     C_R   0.985336 0.112134 0.082266 0.050692
C13   C     C_R   0.087620 0.023522 0.113410 0.084832
C14   C     C_R   0.892324 0.017689 0.047732 0.080800
C15   C     C_R   0.728652 0.953165 0.911802 -0.193168
C16   C     C_R   0.262431 0.064827 0.221299 -0.163061
C17   C     C_R   0.585158 0.982840 0.931798 -0.228030
C18   C     C_R   0.391806 0.049895 0.163749 -0.295578
C19   C     C_R   0.464957 0.494714 0.241161 -0.226487
C20   C     C_R   0.558912 0.496660 0.679013 -0.212849
C21   C     C_R   0.470482 0.489686 0.157692 0.157597
C22   C     C_R   0.506179 0.437334 0.716770 0.124028
C23   C     C_R   0.940132 0.520924 0.746643 -0.125739
C24   C     C_R   0.059935 0.544277 0.266062 -0.118425
C25   C     C_R   0.416072 0.390503 0.077343 0.043966
C26   C     C_R   0.510443 0.490464 0.805365 0.059161
C27   C     C_R   0.364281 0.298773 0.084206 -0.225756
C28   C     C_R   0.564548 0.601059 0.852866 -0.212075
C29   C     C_R   0.359104 0.305565 0.167413 -0.206164
C30   C     C_R   0.620170 0.658164 0.816545 -0.231943
C31   C     C_R   0.407504 0.403256 0.245948 0.216828
C32   C     C_R   0.617553 0.607475 0.729151 0.210060
C33   C     C_R   0.482166 0.355407 0.959999 -0.215355
C34   C     C_R   0.379940 0.436679 0.864302 -0.251925
C35   C     C_R   0.525023 0.398790 0.908884 0.046165
C36   C     C_R   0.356032 0.420050 0.934828 0.060999
C37   C     C_R   0.468937 0.434393 0.855186 0.048676
C38   C     C_R   0.410747 0.381377 0.985318 0.044940
C39   C     C_R   0.628587 0.942433 0.873858 -0.258255
C40   C     C_R   0.361536 0.072212 0.237022 -0.264352
C41   C     C_R   0.950990 0.572584 0.361424 0.050553
C42   C     C_R   0.046706 0.630225 0.681734 0.055888
C43   C     C_R   0.139684 0.704088 0.600685 -0.235202
C44   C     C_R   0.857959 0.570046 0.461149 -0.246794
C45   C     C_R   0.774555 0.202369 0.812512 -0.132252
C46   C     C_R   0.281899 0.782713 0.175211 -0.145760
C47   C     C_R   0.142514 0.675103 0.672669 0.164150
C48   C     C_R   0.855217 0.531967 0.371738 0.154550
C49   C     C_R   0.955672 0.618990 0.619405 -0.290401
C50   C     C_R   0.041849 0.650255 0.440812 -0.278588
C51   C     C_R   0.952592 0.623779 0.537708 0.153411
C52   C     C_R   0.044994 0.665314 0.527793 0.146043
C53   C     C_R   0.711962 0.098692 0.638576 0.136882
C54   C     C_R   0.446802 0.850050 0.319030 0.122187
C55   C     C_R   0.594703 0.022871 0.389598 -0.231142
C56   C     C_R   0.605568 0.909120 0.555045 -0.246158
C57   C     C_R   0.504825 0.940801 0.313507 -0.173251
C58   C     C_R   0.672546 0.999597 0.637870 -0.171910
C59   C     C_R   0.489095 0.834666 0.395302 -0.293147
C60   C     C_R   0.696670 0.104083 0.554639 -0.283495
C61   C     C_R   0.576124 0.917595 0.472931 0.204801
C62   C     C_R   0.625867 0.014515 0.471756 0.187853
C63   C     C_R   0.642105 0.034755 0.027814 0.827228
C64   C     C_R   0.324225 0.022594 0.075084 0.857168
C65   C     C_R   0.742794 0.046704 0.066125 -0.362871
C66   C     C_R   0.225217 0.015387 0.059019 -0.384695
C67   C     C_R   0.260259 0.533594 0.948831 -0.131292
C68   C     C_R   0.696193 0.400723 0.990672 -0.163938
C69   C     C_R   0.786603 0.006120 0.008185 0.052749
C70   C     C_R   0.193093 0.034140 0.131716 0.026866
C71   C     C_R   0.779890 0.297114 0.733978 -0.131261
C72   C     C_R   0.273602 0.687710 0.251929 -0.137085
C73   C     C_R   0.243123 0.431870 0.020557 -0.123189
C74   C     C_R   0.705119 0.496459 0.915176 -0.137322
C75   C     C_R   0.111215 0.606566 0.826689 -0.161061
C76   C     C_R   0.887507 0.463342 0.185682 -0.147446
C77   C     C_R   0.910378 0.206300 0.003391 -0.144070
C78   C     C_R   0.082049 0.804730 0.054112 -0.123090
C79   C     C_R   0.991449 0.198537 0.056833 0.079343
C80   C     C_R   0.995400 0.822101 0.035212 0.064116
H1    H     H_    0.158363 0.317693 0.133197 0.096816
H2    H     H_    0.828746 0.705402 0.941255 0.104805
H3    H     H_    0.761781 0.921924 0.866299 0.128289
H4    H     H_    0.239214 0.081437 0.278160 0.134596
H5    H     H_    0.505918 0.569956 0.302782 0.120212
H6    H     H_    0.554967 0.455292 0.611213 0.111035
H7    H     H_    0.324622 0.222325 0.024104 0.166976
H8    H     H_    0.568778 0.642754 0.920882 0.141203
H9    H     H_    0.318119 0.234309 0.170911 0.146565
H10   H     H_    0.665018 0.742782 0.856751 0.144211
H11   H     H_    0.519724 0.323557 0.998715 0.130530
H12   H     H_    0.338335 0.465695 0.824930 0.125178
H13   H     H_    0.114389 0.685968 0.435516 0.127451
H14   H     H_    0.883032 0.589989 0.626144 0.129319
H15   H     H_    0.209721 0.741264 0.592451 0.121377
H16   H     H_    0.788129 0.543614 0.472519 0.130798
H17   H     H_    0.862263 0.499151 0.701445 0.082620
H18   H     H_    0.137672 0.591515 0.320395 0.093084
H19   H     H_    0.584755 0.902797 0.799560 0.156792
H20   H     H_    0.414845 0.095104 0.305937 0.163081
H21   H     H_    0.730552 0.179054 0.553647 0.118833
H22   H     H_    0.448830 0.763356 0.399657 0.113276
H23   H     H_    0.686230 0.991802 0.701043 0.116174
H24   H     H_    0.477622 0.951533 0.253109 0.131552
H25   H     H_    0.633914 0.095783 0.386736 0.133713
H26   H     H_    0.569198 0.834668 0.556511 0.127543
H27   H     H_    0.507366 0.973831 0.902232 0.180665
H28   H     H_    0.468385 0.055343 0.175959 0.194975
H29   H     H_    0.786525 0.087308 0.140522 0.157681
H30   H     H_    0.172843 0.993561 0.989995 0.164738
H31   H     H_    0.765033 0.139578 0.831970 0.104286
H32   H     H_    0.312853 0.834322 0.146785 0.108882
H33   H     H_    0.280260 0.571536 0.907059 0.101007
H34   H     H_    0.667919 0.337433 0.008582 0.106216
H35   H     H_    0.774475 0.322125 0.680409 0.092862
H36   H     H_    0.295119 0.650219 0.293148 0.081690
H37   H     H_    0.237126 0.369452 0.039164 0.128275
H38   H     H_    0.689402 0.520828 0.862464 0.124864
H39   H     H_    0.189585 0.669219 0.861017 0.108293
H40   H     H_    0.806097 0.440188 0.161256 0.103420
H41   H     H_    0.828714 0.162199 0.983069 0.123027
H42   H     H_    0.160372 0.857413 0.103877 0.131744
H43   H     H_    0.827686 0.855199 0.016844 0.130839
H44   H     H_    0.151274 0.188435 0.161529 0.127851
N1    N     N_R   0.055660 0.348550 0.045620 -0.041719
N2    N     N_R   0.944340 0.651450 0.954380 -0.039847
N3    N     N_R   0.960830 0.507850 0.823700 -0.039358
N4    N     N_R   0.039170 0.492150 0.176300 -0.041639
N5    N     N_R   0.811290 0.303410 0.871650 -0.039254
N6    N     N_R   0.188710 0.696590 0.128350 -0.042782
N7    N     N_R   0.205200 0.552990 0.997670 -0.039013
N8    N     N_R   0.794800 0.447010 0.002330 -0.038071
N9    N     N_R   0.814800 0.361830 0.823700 -0.040306
N10   N     N_R   0.185200 0.638170 0.176300 -0.038792
N11   N     N_R   0.201680 0.494570 0.045620 -0.042983
N12   N     N_R   0.798320 0.505430 0.954380 -0.040245
N13   N     N_R   0.068420 0.560530 0.871650 -0.036696
N14   N     N_R   0.931580 0.439470 0.128350 -0.037796
N15   N     N_R   0.948070 0.295860 0.997670 -0.041510
N16   N     N_R   0.051930 0.704140 0.002330 -0.043301
Ni1   Ni    Ni4+2 0.119340 0.493420 0.109960 0.206771
Ni2   Ni    Ni4+2 0.880660 0.506580 0.890040 0.211299
Ni3   Ni    Ni4+2 0.872590 0.372590 0.000000 0.217133
Ni4   Ni    Ni4+2 0.127410 0.627410 0.000000 0.220424
C81   C     C_3   0.400084 0.409321 0.335208 -0.463427
C82   C     C_3   0.338198 0.468293 0.361440 -0.241160
C83   C     C_3   0.317986 0.462270 0.444461 -0.930916
H45   H     H_    0.271242 0.378855 0.427997 0.261696
H46   H     H_    0.392400 0.497654 0.505629 0.260801
H47   H     H_    0.273879 0.506315 0.461845 0.245735
H48   H     H_    0.381961 0.552590 0.378603 0.185052
H49   H     H_    0.262036 0.433174 0.302069 0.194172
H50   H     H_    0.361522 0.328549 0.328545 0.195753
H51   H     H_    0.479836 0.449984 0.390931 0.178848
C84   C     C_3   0.679287 0.675886 0.694250 -0.439517
C85   C     C_3   0.659754 0.619785 0.592490 -0.288847
C86   C     C_3   0.719206 0.697181 0.562586 -0.911425
H52   H     H_    0.697871 0.762539 0.574515 0.265777
H53   H     H_    0.804415 0.730454 0.601934 0.270455
H54   H     H_    0.699207 0.655670 0.487624 0.242468
H55   H     H_    0.685201 0.557243 0.582027 0.184531
H56   H     H_    0.575483 0.583575 0.548269 0.204145
H57   H     H_    0.659325 0.742163 0.703234 0.184704
H58   H     H_    0.763530 0.710330 0.738578 0.190927
C87   C     C_3   0.536928 0.590120 0.157119 -0.430863
C88   C     C_3   0.647182 0.602795 0.174519 -0.252072
C89   C     C_3   0.709555 0.691957 0.157145 -0.880498
H59   H     H_    0.672235 0.674078 0.083633 0.254518
H60   H     H_    0.714756 0.767625 0.202496 0.262691
H61   H     H_    0.789484 0.700363 0.172308 0.252332
H62   H     H_    0.688147 0.620099 0.247346 0.196745
H63   H     H_    0.643795 0.528657 0.128433 0.202734
H64   H     H_    0.501239 0.590650 0.090751 0.201440
H65   H     H_    0.541682 0.659665 0.211759 0.188056
C90   C     C_3   0.447911 0.318485 0.662301 -0.436272
C91   C     C_3   0.331166 0.281531 0.612996 -0.236451
C92   C     C_3   0.271948 0.161927 0.554803 -0.905752
H66   H     H_    0.300306 0.136464 0.500825 0.256389
H67   H     H_    0.282224 0.122332 0.599337 0.267065
H68   H     H_    0.187709 0.137463 0.520258 0.250492
H69   H     H_    0.299378 0.305084 0.664620 0.204244
H70   H     H_    0.318539 0.319193 0.567051 0.198316
H71   H     H_    0.477647 0.290986 0.609864 0.185420
H72   H     H_    0.461735 0.281782 0.708792 0.196710
C93   C     C_3   0.754400 0.441375 0.292112 -0.432134
C94   C     C_3   0.665722 0.390212 0.317246 -0.337787
C95   C     C_3   0.578100 0.290260 0.233634 -0.804680
H73   H     H_    0.553085 0.306176 0.173798 0.272984
H74   H     H_    0.604397 0.228992 0.214548 0.298254
H75   H     H_    0.511760 0.261081 0.251662 0.246863
H76   H     H_    0.694055 0.368080 0.372222 0.204483
H77   H     H_    0.634475 0.446052 0.341590 0.205492
H78   H     H_    0.724201 0.470793 0.244161 0.175439
H79   H     H_    0.772536 0.377400 0.257765 0.211856
C96   C     C_3   0.243843 0.681954 0.730787 -0.435302
C97   C     C_3   0.327368 0.697212 0.692153 -0.294642
C98   C     C_3   0.414974 0.680625 0.743560 -0.888290
H80   H     H_    0.450393 0.734589 0.818797 0.274022
H81   H     H_    0.385127 0.597553 0.732327 0.265655
H82   H     H_    0.475226 0.697328 0.716189 0.252474
H83   H     H_    0.292592 0.639376 0.617931 0.206149
H84   H     H_    0.361425 0.778763 0.699614 0.200986
H85   H     H_    0.278399 0.749215 0.800683 0.207400
H86   H     H_    0.225450 0.606458 0.735086 0.193938
F1    F     F_    0.599617 0.073465 0.083767 -0.722958
F2    F     F_    0.354599 0.002878 0.004680 -0.700665

loop_
_geom_bond_atom_site_label_1
_geom_bond_atom_site_label_2
_ccdc_geom_bond_type
C63   C65   A    
C3    C42   S    
C88   H63   S    
C86   H52   S    
C46   H32   S    
C27   C29   A    
C34   C37   A    
C7    C36   S    
C3    C23   A    
C83   H45   S    
C93   H79   S    
C30   H10   S    
C19   C31   A    
C29   H9    S    
C22   C90   S    
C7    C73   A    
C66   C70   A    
N1    N15   A    
C6    C72   A    
N2    N16   A    
N9    Ni2   S    
C87   C88   S    
C55   H25   S    
C24   H18   S    
C5    C53   S    
C85   C86   S    
C35   C37   A    
C1    N1    A    
C10   H44   S    
N14   Ni3   S    
C33   H11   S    
C2    C80   A    
C4    C24   A    
C95   H74   S    
C78   C80   A    
C43   C52   A    
C96   H85   S    
C4    C41   S    
C87   H64   S    
C55   C62   A    
C16   H4    S    
C21   C87   S    
C60   C62   A    
C17   C39   A    
C94   H76   S    
C98   H81   S    
N4    N14   A    
C72   N10   A    
C95   H75   S    
N12   Ni2   S    
C9    H43   S    
N15   Ni3   S    
C73   N11   A    
N1    Ni1   S    
C92   H67   S    
C20   H6    S    
C28   H8    S    
C50   C52   A    
C49   H14   S    
C3    C75   A    
N4    Ni1   S    
C61   C62   A    
C81   H50   S    
N8    Ni3   S    
C43   C47   A    
C94   C95   S    
C85   H56   S    
C88   H62   S    
C86   H53   S    
N6    N10   A    
C6    C54   S    
C15   C69   A    
C53   C60   A    
C81   C82   S    
C89   H61   S    
C18   H28   S    
C54   C59   A    
C77   C79   A    
C91   H69   S    
C74   H38   S    
C59   C61   A    
C73   H37   S    
C51   C52   A    
C77   N15   A    
C83   H47   S    
C75   H39   S    
C89   H60   S    
C75   N13   A    
C93   H78   S    
C89   H59   S    
C15   H3    S    
C96   H86   S    
C49   C51   A    
C87   H65   S    
C5    C45   A    
N2    Ni2   S    
C96   C97   S    
C74   N12   A    
C8    C35   S    
C64   C66   A    
C98   H82   S    
C91   H70   S    
C9    C14   A    
C16   C70   A    
C71   N9    A    
C44   H16   S    
C25   C38   S    
C32   C84   S    
C43   H15   S    
C90   C91   S    
N8    N12   A    
C92   H68   S    
C15   C39   A    
C8    C74   A    
C71   H35   S    
C26   C37   S    
C76   H40   S    
C66   H30   S    
C27   H7    S    
C9    C11   A    
C56   H26   S    
C10   C12   A    
C16   C40   A    
C82   H49   S    
C81   H51   S    
C2    N2    A    
C44   C51   A    
C91   C92   S    
C23   H17   S    
N13   Ni4   S    
C12   C14   A    
C85   H55   S    
C8    C68   A    
C86   H54   S    
C55   C57   A    
C22   C26   A    
C88   C89   S    
C1    C79   A    
C14   C69   S    
N5    N9    A    
C2    H2    S    
C97   H84   S    
C60   H21   S    
C41   C50   A    
N6    Ni4   S    
C90   H71   S    
C82   C83   S    
C20   C32   A    
C47   C96   S    
C57   H24   S    
C21   C25   A    
C6    C46   A    
C19   C21   A    
C59   H22   S    
C26   C28   A    
C67   N7    A    
N16   Ni4   S    
C20   C22   A    
C97   C98   S    
C19   H5    S    
C10   C13   A    
C78   N16   A    
C46   N6    A    
C53   C58   A    
C45   H31   S    
C50   H13   S    
N5    Ni3   S    
C11   C80   S    
C76   N14   A    
C84   H58   S    
C25   C27   A    
C83   H46   S    
C72   H36   S    
C23   N3    A    
N7    N11   A    
C33   C38   A    
C40   H20   S    
C84   H57   S    
C17   H27   S    
C63   F1    S    
C67   H33   S    
C48   C93   S    
C5    C71   A    
C17   C63   A    
N10   Ni1   S    
C30   C32   A    
C11   C13   A    
C18   C64   A    
C93   C94   S    
C65   H29   S    
C64   F2    S    
C65   C69   A    
C45   N5    A    
C28   C30   A    
C33   C35   A    
C41   C48   A    
C56   C58   A    
C68   N8    A    
C34   C36   A    
C42   C47   A    
C94   H77   S    
C98   H80   S    
C78   H42   S    
C34   H12   S    
C4    C76   A    
C77   H41   S    
C36   C38   A    
C42   C49   A    
C7    C67   A    
C82   H48   S    
C31   C81   S    
C39   H19   S    
N11   Ni1   S    
C18   C40   A    
C29   C31   A    
C92   H66   S    
C13   C70   S    
C84   C85   S    
C24   N4    A    
C56   C61   A    
C90   H72   S    
C95   H73   S    
C58   H23   S    
N3    N13   A    
C97   H83   S    
C1    H1    S    
N3    Ni2   S    
N7    Ni4   S    
C44   C48   A    
C68   H34   S    
C12   C79   S    
C54   C57   A    
