data_mof_unit_1715.cif
_audit_creation_date              2012-12-10T17:02:02-0500
_audit_creation_method            fapswitch 2.2
_symmetry_space_group_name_H-M    P1
_symmetry_Int_Tables_number       1
_space_group_crystal_system       triclinic
_cell_length_a                    10.766131
_cell_length_b                    11.0697
_cell_length_c                    9.904446
_cell_angle_alpha                 110.481333
_cell_angle_beta                  98.133705
_cell_angle_gamma                 92.869409
_cell_volume                      1088.32285388

loop_
_atom_site_label
_atom_site_type_symbol
_atom_type_description
_atom_site_fract_x
_atom_site_fract_y
_atom_site_fract_z
_atom_type_partial_charge
C1    C     C_R   0.486954 0.254491 0.441706 0.831011
C2    C     C_R   0.066502 0.400795 0.548832 0.089251
C3    C     C_R   0.128189 0.489118 0.499299 -0.093664
C4    C     C_R   0.060297 0.569888 0.442705 -0.189161
C5    C     C_R   0.931809 0.568748 0.440394 -0.208246
C6    C     C_R   0.869517 0.486861 0.494744 -0.085954
C7    C     C_2   0.480605 0.115366 0.411731 -0.404715
C8    C     C_2   0.460753 0.064036 0.512556 0.023585
C9    C     C_2   0.503610 0.882384 0.590234 -0.342569
C10   C     C_2   0.476223 0.927309 0.481611 -0.217699
C11   C     C_2   0.511560 0.513348 0.081248 0.271176
C12   C     C_R   0.262591 0.496545 0.500026 0.782218
C13   C     C_2   0.482498 0.497476 0.922195 -0.047427
C14   C     C_R   0.508225 0.745004 0.558543 0.852983
C15   C     C_R   0.736757 0.496264 0.498299 0.775381
C16   C     C_R   0.131575 0.310680 0.595336 -0.181913
C17   C     C_R   0.067741 0.222858 0.640645 -0.130537
C18   C     C_R   0.938274 0.221862 0.638682 -0.140696
C19   C     C_R   0.871830 0.308555 0.591232 -0.171023
C20   C     C_R   0.934851 0.399645 0.546547 0.096283
Cu1   Cu    Cu3+1 0.521920 0.521810 0.644910 0.945262
Cu2   Cu    Cu3+1 0.478080 0.478190 0.355090 0.948289
H1    H     H_    0.107620 0.635960 0.402598 0.151860
H2    H     H_    0.499829 0.053401 0.306005 0.151806
H3    H     H_    0.397111 0.438755 0.855545 0.161193
H4    H     H_    0.638588 0.607360 0.921565 0.211368
H5    H     H_    0.371441 0.380748 0.067485 0.187177
H6    H     H_    0.231341 0.305387 0.594449 0.147770
H7    H     H_    0.118578 0.154122 0.675636 0.154059
H8    H     H_    0.888785 0.152483 0.672247 0.141298
H9    H     H_    0.770831 0.301384 0.587314 0.154245
H10   H     H_    0.881158 0.634470 0.399419 0.139706
H11   H     H_    0.466615 0.863053 0.367934 0.184579
H12   H     H_    0.518218 0.946542 0.704190 0.164943
N1    N     N_2   0.445130 0.445430 0.137370 -0.279854
N2    N     N_2   0.554930 0.554500 0.862630 -0.295980
O1    O     O_R   0.511700 0.332330 0.577400 -0.573800
O2    O     O_R   0.474680 0.295500 0.332650 -0.562494
O3    O     O_R   0.338160 0.518420 0.622400 -0.581742
O4    O     O_R   0.301140 0.481590 0.377650 -0.570032
O5    O     O_R   0.525320 0.704500 0.667350 -0.567963
O6    O     O_R   0.488300 0.667670 0.422600 -0.587588
O7    O     O_R   0.698860 0.518410 0.622350 -0.579547
O8    O     O_R   0.661840 0.481580 0.377600 -0.577889
C21   C     C_3   0.621848 0.613643 0.170565 -0.742973
H13   H     H_    0.710496 0.579619 0.132515 0.189466
H14   H     H_    0.606868 0.707114 0.155783 0.176014
H15   H     H_    0.639781 0.638891 0.287853 0.267975
C22   C     C_1   0.420855 0.136916 0.649631 0.294949
N3    N     N_1   0.388930 0.192133 0.759487 -0.360379

loop_
_geom_bond_atom_site_label_1
_geom_bond_atom_site_label_2
_ccdc_geom_bond_type
C12   O4    A    
C9    C14   S    
C16   H6    S    
C18   H8    S    
C2    C16   A    
C9    C10   D    
C19   C20   A    
Cu1   O3    S    
C1    O1    A    
C14   O6    A    
C5    H10   S    
C19   H9    S    
C12   O3    A    
C11   N1    D    
C2    C3    A    
Cu2   O4    S    
C7    C8    D    
Cu1   N2    S    
C1    C7    S    
Cu1   Cu2   S    
Cu2   N1    S    
C11   C13   S    
C13   H3    S    
Cu2   O6    S    
C1    O2    A    
C13   N2    D    
C14   O5    A    
Cu1   O5    S    
H4    N2    S    
C15   O8    A    
C17   C18   A    
C10   H11   S    
C21   H14   S    
C5    C6    A    
Cu2   O8    S    
C11   C21   S    
C16   C17   A    
C15   O7    A    
C7    H2    S    
Cu2   O2    S    
C17   H7    S    
C6    C20   A    
Cu1   O1    S    
C8    C10   S    
C22   N3    T    
C21   H15   S    
C4    H1    S    
C18   C19   A    
C3    C12   S    
H5    N1    S    
C6    C15   S    
C21   H13   S    
C2    C20   A    
C8    C22   S    
Cu1   O7    S    
C3    C4    A    
C9    H12   S    
C4    C5    A    
