data_mof_unit_4353.cif
_audit_creation_date              2012-12-11T15:09:08-0500
_audit_creation_method            fapswitch 2.2
_symmetry_space_group_name_H-M    P1
_symmetry_Int_Tables_number       1
_space_group_crystal_system       triclinic
_cell_length_a                    26.017231
_cell_length_b                    27.384638
_cell_length_c                    8.435638
_cell_angle_alpha                 89.999761
_cell_angle_beta                  96.177717
_cell_angle_gamma                 90.015379
_cell_volume                      5975.25782639

loop_
_atom_site_label
_atom_site_type_symbol
_atom_type_description
_atom_site_fract_x
_atom_site_fract_y
_atom_site_fract_z
_atom_type_partial_charge
Ba1   Ba    Ba6+2 0.999910 0.465960 0.844870 1.681039
Ba2   Ba    Ba6+2 0.999910 0.534040 0.344870 1.676799
Ba3   Ba    Ba6+2 0.499910 0.965960 0.844870 1.681347
Ba4   Ba    Ba6+2 0.499910 0.034040 0.344870 1.677297
C1    C     C_3   0.013078 0.220935 0.592958 -0.320008
C2    C     C_R   0.845048 0.641892 0.602039 -0.112025
C3    C     C_3   0.504653 0.220519 0.058045 0.321474
C4    C     C_R   0.913302 0.384243 0.300701 -0.292192
C5    C     C_R   0.913371 0.615584 0.801102 -0.298639
C6    C     C_R   0.413169 0.884332 0.300997 -0.291692
C7    C     C_R   0.413275 0.115524 0.801303 -0.297969
C8    C     C_2   0.807941 0.559165 0.906649 0.384533
C9    C     C_2   0.807278 0.441214 0.405885 0.386030
C10   C     C_2   0.306931 0.058481 0.903921 0.385858
C11   C     C_2   0.306601 0.941681 0.404046 0.384455
C12   C     C_2   0.146644 0.793520 0.993958 0.528601
C13   C     C_R   0.344082 0.858671 0.103288 -0.113629
C14   C     C_2   0.148830 0.207342 0.482252 0.516885
C15   C     C_2   0.646722 0.293513 0.993914 0.528641
C16   C     C_2   0.648917 0.707356 0.482081 0.516876
C17   C     C_R   0.344949 0.141837 0.602274 -0.114102
C18   C     C_R   0.832846 0.318730 0.199654 0.002059
C19   C     C_R   0.833996 0.681986 0.698263 -0.001224
C20   C     C_R   0.332729 0.818804 0.199995 0.001500
C21   C     C_R   0.333894 0.181922 0.698526 -0.002336
C22   C     C_R   0.861864 0.313001 0.349774 -0.109457
C23   C     C_R   0.862900 0.687576 0.848689 -0.109519
C24   C     C_R   0.361736 0.813091 0.350131 -0.110101
C25   C     C_3   0.992836 0.768402 0.970160 -0.386650
C26   C     C_R   0.362808 0.187516 0.848930 -0.110789
C27   C     C_R   0.901456 0.346158 0.400852 -0.021959
C28   C     C_R   0.901798 0.653872 0.900794 -0.002929
C29   C     C_R   0.401326 0.846251 0.401177 -0.021171
C30   C     C_R   0.401710 0.153814 0.901008 -0.002084
C31   C     C_R   0.795180 0.233993 0.162186 -0.076162
C32   C     C_R   0.796367 0.766856 0.662649 -0.075974
C33   C     C_R   0.295107 0.734054 0.162479 -0.075979
C34   C     C_R   0.296296 0.266800 0.662853 -0.075575
C35   C     C_R   0.254116 0.702339 0.113358 -0.061170
C36   C     C_3   0.513069 0.720975 0.591747 -0.319911
C37   C     C_R   0.255377 0.298565 0.613410 -0.061812
C38   C     C_R   0.754167 0.202293 0.113147 -0.061107
C39   C     C_R   0.755431 0.798611 0.613267 -0.061647
C40   C     C_R   0.205297 0.720285 0.051263 -0.002976
C41   C     C_R   0.206847 0.280707 0.548060 -0.004247
C42   C     C_R   0.705347 0.220256 0.051128 -0.003003
C43   C     C_R   0.706904 0.780740 0.547931 -0.004233
C44   C     C_R   0.198255 0.771787 0.041554 -0.045313
C45   C     C_R   0.200040 0.229204 0.535188 -0.042684
C46   C     C_R   0.698330 0.271761 0.041412 -0.045443
C47   C     C_3   0.492963 0.268371 0.970142 -0.386563
C48   C     C_R   0.700120 0.729236 0.535006 -0.042974
C49   C     C_R   0.740566 0.303163 0.086656 -0.023916
C50   C     C_R   0.742219 0.697834 0.581431 -0.022541
C51   C     C_R   0.240470 0.803204 0.086887 -0.024439
C52   C     C_R   0.242123 0.197791 0.581673 -0.023394
C53   C     C_3   0.982763 0.290236 0.084682 0.396483
C54   C     C_3   0.981126 0.709719 0.567684 0.362970
C55   C     C_3   0.482695 0.790294 0.084296 0.396461
C56   C     C_3   0.481138 0.209730 0.567982 0.363175
C57   C     C_R   0.789115 0.284777 0.147760 0.031271
C58   C     C_R   0.884316 0.391387 0.153451 0.041790
C59   C     C_R   0.790470 0.716111 0.645795 0.031043
C60   C     C_R   0.289018 0.784835 0.148067 0.031378
C61   C     C_R   0.290379 0.216056 0.646045 0.031278
C62   C     C_R   0.135572 0.688820 0.842429 -0.144265
C63   C     C_R   0.137424 0.312631 0.339173 -0.141722
C64   C     C_R   0.635582 0.188816 0.842381 -0.144294
C65   C     C_R   0.637451 0.812650 0.339111 -0.141710
C66   C     C_R   0.096708 0.655064 0.790227 0.000320
C67   C     C_R   0.097973 0.345892 0.288396 -0.002830
C68   C     C_R   0.596704 0.155070 0.790207 0.000192
C69   C     C_R   0.884632 0.608695 0.653351 0.041575
C70   C     C_R   0.597985 0.845898 0.288369 -0.002792
C71   C     C_R   0.113936 0.610148 0.038673 0.071158
C72   C     C_R   0.114470 0.390095 0.538177 0.074903
C73   C     C_R   0.613941 0.110150 0.038657 0.071098
C74   C     C_R   0.614482 0.890098 0.538162 0.074883
C75   C     C_R   0.152644 0.644125 0.091530 -0.113959
C76   C     C_R   0.153613 0.356437 0.590164 -0.106894
C77   C     C_R   0.652665 0.144117 0.091475 -0.113973
C78   C     C_R   0.653641 0.856450 0.590113 -0.106854
C79   C     C_R   0.163179 0.684567 0.995719 -0.029644
C80   C     C_R   0.384215 0.891443 0.153672 0.040732
C81   C     C_R   0.164733 0.316487 0.492977 -0.025836
C82   C     C_R   0.663205 0.184555 0.995646 -0.029590
C83   C     C_R   0.664771 0.816509 0.492900 -0.025820
C84   C     C_R   0.084962 0.617097 0.891034 -0.276845
C85   C     C_R   0.085568 0.383223 0.390464 -0.277615
C86   C     C_R   0.584958 0.117105 0.891030 -0.276829
C87   C     C_R   0.585573 0.883221 0.390459 -0.277615
C88   C     C_3   0.958670 0.239630 0.074921 -0.355715
C89   C     C_3   0.955209 0.759093 0.537032 -0.351705
C90   C     C_3   0.458561 0.739705 0.074566 -0.355810
C91   C     C_R   0.384550 0.108651 0.653516 0.040080
C92   C     C_3   0.455219 0.259107 0.537434 -0.352061
C93   C     C_3   0.148291 0.469384 0.224446 0.312411
C94   C     C_3   0.147595 0.530994 0.723758 0.311511
C95   C     C_3   0.648296 0.969385 0.224446 0.312402
C96   C     C_3   0.647591 0.030998 0.723746 0.311502
C97   C     C_3   0.197415 0.438878 0.245535 -0.391451
C98   C     C_3   0.196462 0.561882 0.745441 -0.391119
C99   C     C_3   0.697423 0.938883 0.245524 -0.391445
C100  C     C_3   0.696459 0.061885 0.745433 -0.391117
C101  C     C_3   0.825118 0.507270 0.884323 0.211129
C102  C     C_R   0.844183 0.358621 0.103015 -0.112654
C103  C     C_3   0.824854 0.493013 0.384145 0.210995
C104  C     C_3   0.324797 0.006755 0.883332 0.210667
C105  C     C_3   0.324666 0.993352 0.383419 0.210587
C106  C     C_3   0.780259 0.475899 0.805291 0.524476
C107  C     C_3   0.780252 0.524729 0.305462 0.523362
C108  C     C_3   0.280360 0.974725 0.805344 0.521752
C109  C     C_3   0.280379 0.025512 0.305284 0.522179
C110  C     C_3   0.986899 0.268607 0.538976 0.291612
C111  C     C_3   0.004624 0.720574 0.058102 0.321400
C112  C     C_3   0.486854 0.768672 0.538247 0.291465
F1    F     F_    0.796831 0.429319 0.774150 -0.706359
F2    F     F_    0.797223 0.571167 0.274253 -0.707249
F3    F     F_    0.297541 0.928457 0.773571 -0.707346
F4    F     F_    0.297836 0.071690 0.273099 -0.707248
H1    H     H_    0.016517 0.293753 0.498575 -0.004512
H2    H     H_    0.187831 0.598744 0.789231 0.065686
H3    H     H_    0.476345 0.287601 0.611793 0.122340
H4    H     H_    0.133214 0.473304 0.341495 0.011511
H5    H     H_    0.132183 0.527201 0.840328 0.011645
H6    H     H_    0.633222 0.973304 0.341499 0.011494
H7    H     H_    0.632174 0.027209 0.840310 0.011627
H8    H     H_    0.119460 0.450504 0.138841 0.055428
H9    H     H_    0.118852 0.549551 0.637093 0.059963
H10   H     H_    0.619465 0.950503 0.138847 0.055399
H11   H     H_    0.618851 0.049552 0.637067 0.059971
H12   H     H_    0.832271 0.583070 0.985014 0.080749
H13   H     H_    0.689301 0.902165 0.291424 0.064337
H14   H     H_    0.831659 0.416980 0.482888 0.081092
H15   H     H_    0.331168 0.083024 0.980011 0.078854
H16   H     H_    0.330740 0.917100 0.480286 0.081549
H17   H     H_    0.112207 0.771135 0.987226 -0.039211
H18   H     H_    0.114372 0.229699 0.469857 -0.030266
H19   H     H_    0.612277 0.271143 0.987293 -0.039191
H20   H     H_    0.614450 0.729699 0.469743 -0.030149
H21   H     H_    0.687825 0.098751 0.789187 0.065706
H22   H     H_    0.213289 0.434723 0.129200 0.126403
H23   H     H_    0.212820 0.565675 0.629742 0.126671
H24   H     H_    0.713294 0.934729 0.129184 0.126408
H25   H     H_    0.712824 0.065669 0.629743 0.126678
H26   H     H_    0.857711 0.509332 0.811793 0.030990
H27   H     H_    0.857427 0.490790 0.311582 0.030890
H28   H     H_    0.357334 0.009000 0.810709 0.032486
H29   H     H_    0.041963 0.724295 0.134379 0.067935
H30   H     H_    0.357224 0.990982 0.310885 0.032526
H31   H     H_    0.763572 0.492438 0.691028 0.044732
H32   H     H_    0.763371 0.508324 0.191219 0.044549
H33   H     H_    0.263188 0.991018 0.691286 0.046315
H34   H     H_    0.263102 0.009187 0.191397 0.046165
H35   H     H_    0.749133 0.473226 0.885373 0.049566
H36   H     H_    0.749220 0.527659 0.385777 0.050572
H37   H     H_    0.249531 0.971578 0.886215 0.050435
H38   H     H_    0.249580 0.028893 0.386244 0.050683
H39   H     H_    0.956999 0.260071 0.438588 -0.016995
H40   H     H_    0.516430 0.793848 0.497763 -0.004591
H41   H     H_    0.010088 0.691490 0.969284 -0.054627
H42   H     H_    0.456880 0.760185 0.438022 -0.016990
H43   H     H_    0.510067 0.191430 0.969210 -0.054876
H44   H     H_    0.027883 0.202540 0.489790 0.089218
H45   H     H_    0.022424 0.775565 0.887644 0.098238
H46   H     H_    0.527824 0.702665 0.488349 0.089084
H47   H     H_    0.522543 0.275466 0.887547 0.098113
H48   H     H_    0.045725 0.228190 0.686064 0.137325
H49   H     H_    0.992945 0.798961 0.056739 0.141576
H50   H     H_    0.545755 0.728179 0.684765 0.137168
H51   H     H_    0.541992 0.224174 0.134358 0.067999
H52   H     H_    0.493166 0.298931 0.056739 0.141602
H53   H     H_    0.918613 0.241551 0.108431 0.058218
H54   H     H_    0.914602 0.757196 0.565745 0.061323
H55   H     H_    0.418464 0.741676 0.107725 0.058391
H56   H     H_    0.414777 0.257328 0.567501 0.061226
H57   H     H_    0.174931 0.638664 0.206129 0.085503
H58   H     H_    0.175729 0.361756 0.705113 0.082780
H59   H     H_    0.674962 0.138650 0.206053 0.085474
H60   H     H_    0.675764 0.861773 0.705050 0.082741
H61   H     H_    0.260833 0.663355 0.122224 0.067618
H62   H     H_    0.226717 0.456919 0.331653 0.127438
H63   H     H_    0.261941 0.337531 0.624545 0.067632
H64   H     H_    0.760866 0.163306 0.122020 0.067643
H65   H     H_    0.761980 0.837577 0.624438 0.067647
H66   H     H_    0.832092 0.218692 0.209031 0.062987
H67   H     H_    0.833091 0.782088 0.711714 0.063242
H68   H     H_    0.332022 0.718768 0.209366 0.062974
H69   H     H_    0.333023 0.282023 0.711922 0.063252
H70   H     H_    0.821428 0.364493 0.989627 0.153519
H71   H     H_    0.822490 0.636192 0.488229 0.153926
H72   H     H_    0.321349 0.864495 0.989867 0.154150
H73   H     H_    0.225571 0.544362 0.833410 0.126900
H74   H     H_    0.322393 0.136154 0.488469 0.154290
H75   H     H_    0.735185 0.342378 0.080008 0.151109
H76   H     H_    0.736950 0.658635 0.572718 0.150626
H77   H     H_    0.235074 0.842418 0.080236 0.150843
H78   H     H_    0.236840 0.158592 0.572992 0.150078
H79   H     H_    0.144931 0.717715 0.762734 0.084183
H80   H     H_    0.147224 0.284231 0.258322 0.081540
H81   H     H_    0.644944 0.217706 0.762672 0.084185
H82   H     H_    0.647257 0.784258 0.258239 0.081589
H83   H     H_    0.852582 0.283936 0.428965 0.074105
H84   H     H_    0.726725 0.956927 0.331635 0.127446
H85   H     H_    0.853916 0.716844 0.927503 0.076843
H86   H     H_    0.352468 0.784020 0.429318 0.074170
H87   H     H_    0.353839 0.216793 0.927733 0.077004
H88   H     H_    0.055521 0.590790 0.849386 0.061334
H89   H     H_    0.055677 0.409183 0.349720 0.059862
H90   H     H_    0.555509 0.090803 0.849401 0.061302
H91   H     H_    0.555671 0.909172 0.349740 0.059840
H92   H     H_    0.984905 0.196269 0.642499 0.122497
H93   H     H_    0.954234 0.766332 0.900119 0.099829
H94   H     H_    0.484932 0.696260 0.641247 0.122495
H95   H     H_    0.725562 0.044371 0.833430 0.126902
H96   H     H_    0.454343 0.266384 0.900185 0.100009
H97   H     H_    0.943138 0.410201 0.341990 0.071600
H98   H     H_    0.942795 0.589315 0.843051 0.072297
H99   H     H_    0.443020 0.910281 0.342237 0.071679
H100  H     H_    0.442714 0.089265 0.843209 0.072517
H101  H     H_    0.958533 0.314684 0.002107 0.082404
H102  H     H_    0.959539 0.682592 0.488285 0.089433
H103  H     H_    0.458552 0.814723 0.001431 0.082854
H104  H     H_    0.459482 0.182591 0.488810 0.089188
H105  H     H_    0.982788 0.303709 0.209010 -0.116087
H106  H     H_    0.189289 0.402161 0.291432 0.064335
H107  H     H_    0.978712 0.699548 0.694141 -0.075571
H108  H     H_    0.482617 0.803830 0.208513 -0.116047
H109  H     H_    0.478824 0.199584 0.694498 -0.075689
H110  H     H_    0.957535 0.225268 0.951457 0.145445
H111  H     H_    0.955295 0.769468 0.409889 0.157983
H112  H     H_    0.457521 0.725288 0.951193 0.145507
H113  H     H_    0.454880 0.269304 0.410070 0.157681
H114  H     H_    0.981623 0.214451 0.158038 0.115939
H115  H     H_    0.976081 0.787528 0.612421 0.121799
H116  H     H_    0.481427 0.714543 0.157958 0.115795
O1    O     O_2   0.898940 0.431940 0.867860 -0.408016
O2    O     O_3   0.032882 0.712649 0.534691 -0.582816
O3    O     O_3   0.533200 0.787657 0.040033 -0.579952
O4    O     O_3   0.532852 0.212632 0.534579 -0.582724
O5    O     O_3   0.058810 0.523750 0.066650 -0.496916
O6    O     O_3   0.058810 0.476250 0.566650 -0.497420
O7    O     O_3   0.558810 0.023750 0.066650 -0.496914
O8    O     O_3   0.558810 0.976250 0.566650 -0.497431
O9    O     O_3   0.941140 0.476130 0.123050 -0.482970
O10   O     O_3   0.941140 0.523870 0.623050 -0.482374
O11   O     O_3   0.441140 0.976130 0.123050 -0.482553
O12   O     O_2   0.898940 0.568060 0.367860 -0.410176
O13   O     O_3   0.441140 0.023870 0.623050 -0.482116
O14   O     O_3   0.982430 0.389880 0.635700 -0.467393
O15   O     O_3   0.982430 0.610120 0.135700 -0.473116
O16   O     O_3   0.482430 0.889880 0.635700 -0.467445
O17   O     O_3   0.482430 0.110120 0.135700 -0.473143
O18   O     O_2   0.895590 0.352914 0.726359 -0.444421
O19   O     O_2   0.896435 0.648707 0.229372 -0.450879
O20   O     O_2   0.395709 0.852821 0.726918 -0.443358
O21   O     O_2   0.396490 0.148737 0.229677 -0.449515
O22   O     O_3   0.841460 0.488623 0.035724 -0.678893
O23   O     O_2   0.398940 0.931940 0.867860 -0.407129
O24   O     O_3   0.841406 0.511414 0.535707 -0.678235
O25   O     O_3   0.341525 0.988750 0.035224 -0.679107
O26   O     O_3   0.341421 0.011351 0.535269 -0.679225
O27   O     O_3   0.963954 0.288863 0.666923 -0.582111
O28   O     O_3   0.965454 0.711269 0.157336 -0.594891
O29   O     O_3   0.464023 0.788848 0.666528 -0.582394
O30   O     O_3   0.465452 0.211278 0.157213 -0.595052
O31   O     O_2   0.100770 0.431440 0.821660 -0.458857
O32   O     O_2   0.100770 0.568560 0.321660 -0.459454
O33   O     O_2   0.600770 0.931440 0.821660 -0.458881
O34   O     O_2   0.398940 0.068060 0.367860 -0.408858
O35   O     O_2   0.600770 0.068560 0.321660 -0.459471
O36   O     O_3   0.017130 0.389790 0.053700 -0.496418
O37   O     O_3   0.017130 0.610210 0.553700 -0.499335
O38   O     O_3   0.517130 0.889790 0.053700 -0.496569
O39   O     O_3   0.517130 0.110210 0.553700 -0.499310
O40   O     O_2   0.101852 0.349358 0.957804 -0.469043
O41   O     O_2   0.102225 0.650332 0.461578 -0.471986
O42   O     O_2   0.601832 0.849340 0.957754 -0.468991
O43   O     O_2   0.602217 0.150329 0.461543 -0.471983
O44   O     O_2   0.767439 0.575079 0.839365 -0.589746
O45   O     O_3   0.160407 0.485094 0.667186 -0.637285
O46   O     O_2   0.766390 0.425719 0.339624 -0.589446
O47   O     O_2   0.265929 0.073568 0.837723 -0.589308
O48   O     O_2   0.265586 0.926652 0.337558 -0.589840
O49   O     O_2   0.141845 0.836998 0.963697 -0.547141
O50   O     O_2   0.144351 0.163752 0.453371 -0.548707
O51   O     O_2   0.641937 0.336989 0.963614 -0.547070
O52   O     O_2   0.644457 0.663768 0.453144 -0.548736
O53   O     O_3   0.160618 0.515232 0.166433 -0.636575
O54   O     O_3   0.660406 0.985096 0.667193 -0.637291
O55   O     O_3   0.660619 0.015233 0.166428 -0.636576
O56   O     O_3   0.033216 0.287663 0.039958 -0.579882
P1    P     P_3+3 0.893960 0.447890 0.040050 1.030864
P2    P     P_3+3 0.063141 0.656849 0.585792 0.959404
P3    P     P_3+3 0.563714 0.843661 0.085206 0.970795
P4    P     P_3+3 0.563136 0.156851 0.585762 0.959425
P5    P     P_3+3 0.935253 0.655676 0.104736 0.983192
P6    P     P_3+3 0.935086 0.344280 0.604982 0.983539
P7    P     P_3+3 0.435245 0.155671 0.104840 0.984503
P8    P     P_3+3 0.435085 0.844281 0.605118 0.984344
P9    P     P_3+3 0.893960 0.552110 0.540050 1.030323
P10   P     P_3+3 0.393960 0.947890 0.040050 1.030791
P11   P     P_3+3 0.393960 0.052110 0.540050 1.029910
P12   P     P_3+3 0.105800 0.447360 0.649510 0.984468
P13   P     P_3+3 0.105800 0.552640 0.149510 0.983415
P14   P     P_3+3 0.605800 0.947360 0.649510 0.984464
P15   P     P_3+3 0.605800 0.052640 0.149510 0.983412
P16   P     P_3+3 0.063720 0.343665 0.085209 0.970868

loop_
_geom_bond_atom_site_label_1
_geom_bond_atom_site_label_2
_ccdc_geom_bond_type
C5    H98   S    
O5    P13   S    
C101  C106  S    
C96   H7    S    
C24   H86   S    
C11   C105  S    
C95   C99   S    
O16   P8    S    
Ba1   O36   S    
C53   H101  S    
C2    C69   A    
C107  F2    S    
C93   H4    S    
C9    O46   D    
C50   C59   A    
O53   P13   S    
C78   C83   A    
C96   C100  S    
C16   O52   D    
C31   C38   A    
C96   O54   S    
O14   P6    S    
C56   O4    S    
C17   H74   S    
O19   P5    D    
C8    O44   D    
Ba4   O7    S    
C77   C82   A    
C89   H111  S    
O6    P12   S    
C64   H81   S    
C84   H88   S    
C52   H78   S    
C63   C81   A    
C46   C49   A    
C50   H76   S    
C56   H109  S    
C63   H80   S    
C94   C98   S    
C3    H43   S    
C23   H85   S    
Ba4   P11   S    
C3    O30   S    
O38   P3    S    
C109  F4    S    
C74   C78   A    
C25   H93   S    
Ba1   O31   S    
C64   C68   A    
Ba2   O32   S    
C26   H87   S    
C65   C70   A    
Ba3   O16   S    
C55   H108  S    
C68   P4    S    
O34   P11   D    
C80   P10   S    
C24   C29   A    
C72   P12   S    
Ba3   O38   S    
C1    H92   S    
C70   P3    S    
C8    H12   S    
O36   P16   S    
C67   P16   S    
C112  H40   S    
C43   C48   A    
C14   O50   D    
C10   O47   D    
Ba1   O1    S    
C22   H83   S    
O40   P16   D    
C18   C102  A    
Ba2   O15   S    
O2    P2    S    
O13   P11   S    
Ba3   O23   S    
C101  H26   S    
C94   H9    S    
C93   O53   S    
C15   H19   S    
C36   H94   S    
C37   C41   A    
C100  H21   S    
C25   H49   S    
C12   O49   D    
C71   C75   A    
C40   C44   A    
C14   C45   S    
C4    C58   A    
C104  H28   S    
C47   H96   S    
C101  O22   S    
Ba2   P13   S    
C47   H47   S    
C40   C79   S    
O32   P13   D    
C94   O45   S    
C90   H112  S    
C62   C66   A    
Ba2   O9    S    
C10   H15   S    
C39   H65   S    
O27   P6    S    
C4    H97   S    
C49   C57   A    
C94   H5    S    
O10   P9    S    
C2    H71   S    
C92   H113  S    
C75   H57   S    
O35   P15   D    
C90   H55   S    
C53   H105  S    
C25   C111  S    
C65   H82   S    
C11   O48   D    
C93   H8    S    
C6    H99   S    
C95   H6    S    
O54   P14   S    
C26   C30   A    
C34   C37   A    
C87   H91   S    
C85   H89   S    
C11   H16   S    
C17   C91   A    
C38   H64   S    
C43   C83   S    
C111  H41   S    
Ba4   O11   S    
C68   C86   A    
C97   H22   S    
C34   C61   A    
C111  H29   S    
C58   C102  A    
C31   C57   A    
Ba2   O6    S    
C53   O56   S    
Ba1   O5    S    
C69   P9    S    
C102  H70   S    
Ba3   Ba4   S    
C17   C21   A    
O29   P8    S    
C91   P11   S    
C92   H3    S    
O30   P7    S    
Ba4   O39   S    
C103  C107  S    
Ba3   O13   S    
C32   C39   A    
C35   C40   A    
O25   P10   S    
Ba3   O33   S    
Ba1   P1    S    
C41   C81   S    
C13   C80   A    
C105  H30   S    
C105  O26   S    
C18   C57   S    
O22   P1    S    
C39   C43   A    
C31   H66   S    
C19   C59   S    
C6    C29   A    
Ba3   O8    S    
O17   P7    S    
Ba1   O6    S    
Ba4   O8    S    
C54   H107  S    
C44   C51   A    
C3    H51   S    
C109  H34   S    
C107  H32   S    
C36   H50   S    
C47   H52   S    
C53   C88   S    
C54   C89   S    
O20   P8    D    
C8    C101  S    
C38   C42   A    
C1    H48   S    
C25   H45   S    
C14   H18   S    
Ba2   O12   S    
C99   H84   S    
C5    C28   A    
C62   C79   A    
C110  H1    S    
O41   P2    D    
Ba1   P12   S    
C55   C90   S    
Ba3   P10   S    
C65   C83   A    
Ba4   O35   S    
C10   C104  S    
C20   C60   S    
C4    C27   A    
O31   P12   D    
C106  F1    S    
O24   P9    S    
C13   H72   S    
C73   C86   A    
O26   P11   S    
C20   C24   A    
O12   P9    D    
C77   H59   S    
C106  H31   S    
C108  H37   S    
C104  C108  S    
C97   H106  S    
C76   H58   S    
C70   C87   A    
C110  O27   S    
C76   C81   A    
O18   P6    D    
C27   P6    S    
C103  H27   S    
C41   C45   A    
C34   H69   S    
C104  O25   S    
C74   C87   A    
O45   P12   S    
C55   H103  S    
C56   C92   S    
O55   P15   S    
C49   H75   S    
C98   H73   S    
C33   C60   A    
C21   C26   A    
C92   H56   S    
C95   H10   S    
C23   C28   A    
C100  H95   S    
C108  F3    S    
O23   P10   D    
C32   H67   S    
C16   H20   S    
C3    C47   S    
C33   C35   A    
Ba2   O37   S    
C75   C79   A    
C15   C46   S    
C73   P15   S    
O42   P3    D    
Ba3   P14   S    
C63   C67   A    
Ba2   P9    S    
O33   P14   D    
C73   C77   A    
C18   C22   A    
C37   H63   S    
C72   C85   A    
C98   H2    S    
C52   C61   A    
C1    C110  S    
C64   C82   A    
C9    H14   S    
C12   H17   S    
C9    C103  S    
C66   C84   A    
C99   H24   S    
C12   C44   S    
C54   H102  S    
C96   H11   S    
C89   H115  S    
O15   P5    S    
C112  H42   S    
Ba1   O10   S    
C71   P13   S    
C33   H68   S    
O3    P3    S    
O43   P4    D    
O4    P4    S    
C89   H54   S    
C58   P1    S    
Ba1   Ba2   S    
C6    C80   A    
C29   P8    S    
O21   P7    D    
C30   P7    S    
O9    P1    S    
C51   H77   S    
C106  H35   S    
C19   C23   A    
C109  H38   S    
C32   C59   A    
C107  H36   S    
C36   H46   S    
C62   H79   S    
O56   P16   S    
C105  C109  S    
C22   C27   A    
C5    C69   A    
Ba4   O17   S    
C95   O55   S    
C56   H104  S    
C48   C50   A    
Ba4   O34   S    
C13   C20   A    
C1    H44   S    
C21   C61   S    
O28   P5    S    
C112  O29   S    
C111  O28   S    
C86   H90   S    
Ba1   O14   S    
C74   P14   S    
O7    P15   S    
C103  O24   S    
C55   O3    S    
O8    P14   S    
C67   C85   A    
C88   H110  S    
C15   O51   D    
C51   C60   A    
Ba3   O7    S    
C35   H61   S    
O1    P1    D    
C108  H33   S    
O11   P10   S    
C72   C76   A    
C98   H23   S    
C7    C91   A    
C100  H25   S    
C7    C30   A    
C28   P5    S    
C88   H53   S    
C45   C52   A    
C42   C46   A    
C99   H13   S    
C16   C48   S    
C90   H116  S    
C36   C112  S    
C2    C19   A    
C88   H114  S    
O37   P2    S    
C66   P2    S    
Ba2   O5    S    
C110  H39   S    
O39   P4    S    
Ba4   P15   S    
C71   C84   A    
C78   H60   S    
C54   O2    S    
C7    H100  S    
C93   C97   S    
C97   H62   S    
C42   C82   S    
