data_mof_unit_1262.cif
_audit_creation_date              2012-12-10T17:32:56-0500
_audit_creation_method            fapswitch 2.2
_symmetry_space_group_name_H-M    P1
_symmetry_Int_Tables_number       1
_space_group_crystal_system       triclinic
_cell_length_a                    12.367296
_cell_length_b                    13.304082
_cell_length_c                    14.280672
_cell_angle_alpha                 93.234373
_cell_angle_beta                  107.557491
_cell_angle_gamma                 117.216232
_cell_volume                      1939.13107092

loop_
_atom_site_label
_atom_site_type_symbol
_atom_type_description
_atom_site_fract_x
_atom_site_fract_y
_atom_site_fract_z
_atom_type_partial_charge
C1    C     C_R   0.656153 0.714931 0.516770 0.834843
C2    C     C_R   0.857775 0.514081 0.920291 0.012453
C3    C     C_R   0.834268 0.564269 0.997879 -0.042650
C4    C     C_R   0.961940 0.488177 0.944881 0.013249
C5    C     C_R   0.032877 0.503040 0.048431 -0.006428
C6    C     C_R   0.990172 0.530631 0.121535 -0.120044
C7    C     C_R   0.894417 0.562164 0.098347 0.396476
C8    C     C_R   0.000651 0.449077 0.871949 0.383059
C9    C     C_R   0.083366 0.403239 0.900397 -0.172431
C10   C     C_R   0.149701 0.415429 0.001617 -0.028811
C11   C     C_R   0.137297 0.478709 0.076260 0.052460
C12   C     C_R   0.618148 0.516644 0.686536 0.844091
C13   C     C_R   0.233710 0.370261 0.028613 -0.159635
C14   C     C_R   0.306616 0.387499 0.129572 0.361635
C15   C     C_R   0.231091 0.516233 0.175382 0.295709
C16   C     C_R   0.106202 0.980298 0.337579 -0.113642
C17   C     C_R   0.245916 0.163576 0.459589 -0.042871
C18   C     C_R   0.782024 0.912447 0.630416 0.386786
C19   C     C_R   0.883390 0.026544 0.659332 -0.114641
C20   C     C_R   0.966265 0.066435 0.606444 -0.221747
C21   C     C_R   0.948921 0.992469 0.521483 0.107981
C22   C     C_R   0.835395 0.880816 0.483799 0.013379
C23   C     C_R   0.344659 0.285581 0.484058 0.795472
C24   C     C_R   0.041308 0.025237 0.473364 0.110726
C25   C     C_R   0.014729 0.950003 0.384809 0.110605
C26   C     C_R   0.895980 0.846720 0.342974 -0.133713
C27   C     C_R   0.806894 0.812899 0.390897 -0.131995
C28   C     C_R   0.159963 0.130542 0.510758 -0.190006
C29   C     C_R   0.221428 0.087169 0.374671 -0.151734
C30   C     C_R   0.754194 0.838930 0.540722 -0.165187
C31   C     C_R   0.261848 0.711915 0.634722 0.344613
C32   C     C_R   0.652964 0.337663 0.368637 0.092724
C33   C     C_R   0.729086 0.307522 0.332584 -0.194943
C34   C     C_R   0.380235 0.481135 0.312943 0.887126
C35   C     C_R   0.865557 0.373086 0.374727 0.380285
C36   C     C_R   0.928543 0.467525 0.460523 -0.042771
C37   C     C_R   0.844499 0.498615 0.489769 0.202073
C38   C     C_R   0.069046 0.534567 0.516813 -0.076050
C39   C     C_R   0.123116 0.641509 0.587833 -0.025843
C40   C     C_R   0.036299 0.670512 0.611776 0.399643
C41   C     C_R   0.902239 0.597063 0.566923 -0.143584
C42   C     C_R   0.158474 0.497744 0.509246 0.101378
C43   C     C_R   0.341556 0.671460 0.618237 0.043459
C44   C     C_R   0.687260 0.530307 0.793805 -0.138931
C45   C     C_R   0.307446 0.462563 0.204559 -0.208205
C46   C     C_R   0.746755 0.608736 0.970133 0.446334
C47   C     C_R   0.677259 0.593865 0.868486 -0.176701
C48   C     C_R   0.770417 0.484809 0.820954 -0.128916
Cu1   Cu    Cu3+1 0.416420 0.526630 0.522910 1.023771
Cu2   Cu    Cu3+1 0.583580 0.473370 0.477090 1.001326
H1    H     H_    0.287119 0.112889 0.333733 0.171748
H2    H     H_    0.872043 0.791688 0.272880 0.239970
H3    H     H_    0.086419 0.923065 0.270014 0.181588
H4    H     H_    0.187465 0.191369 0.578111 0.140726
H5    H     H_    0.043544 0.155474 0.635148 0.149683
H6    H     H_    0.902741 0.083593 0.726819 0.184752
H7    H     H_    0.715277 0.732807 0.353908 0.192104
H8    H     H_    0.125199 0.412597 0.468445 0.191014
H9    H     H_    0.680976 0.234783 0.268476 0.208373
H10   H     H_    0.103869 0.365690 0.843125 0.171263
H11   H     H_    0.615165 0.632176 0.847860 0.213055
H12   H     H_    0.027418 0.522980 0.197947 0.245947
N1    N     N_R   0.290690 0.566960 0.557640 -0.232863
N2    N     N_R   0.709100 0.433710 0.442970 -0.201804
O1    O     O_R   0.545970 0.684450 0.528810 -0.532689
O2    O     O_R   0.687130 0.639470 0.490120 -0.614019
O3    O     O_R   0.519670 0.535100 0.660030 -0.575062
O4    O     O_R   0.660830 0.490120 0.621340 -0.587332
O5    O     O_R   0.312870 0.360530 0.509880 -0.593721
O6    O     O_R   0.454030 0.315550 0.471190 -0.589643
O7    O     O_R   0.339170 0.509880 0.378660 -0.525010
O8    O     O_R   0.480330 0.464900 0.339970 -0.542240
Cl1   Cl    Cl    0.840655 0.576666 0.196900 -0.555421
H13   H     H_    0.239842 0.318441 0.971147 0.187561
Cl2   Cl    Cl    0.704409 0.863407 0.716667 -0.583298
H14   H     H_    0.446027 0.724939 0.652939 0.217704
Cl3   Cl    Cl    0.278888 0.649778 0.253432 -0.566072
Cl4   Cl    Cl    0.082825 0.788955 0.707162 -0.474792
Cl5   Cl    Cl    0.348011 0.855357 0.708277 -0.445390
H15   H     H_    0.547690 0.286082 0.334457 0.183394
Cl6   Cl    Cl    0.944271 0.341126 0.302901 -0.636348
H16   H     H_    0.845222 0.619022 0.597321 0.223839
Cl7   Cl    Cl    0.394843 0.312951 0.155551 -0.577589
Cl8   Cl    Cl    0.730417 0.696792 0.055591 -0.528842
H17   H     H_    0.761288 0.422459 0.763589 0.212559
Cl9   Cl    Cl    0.971420 0.470330 0.748148 -0.663323

loop_
_geom_bond_atom_site_label_1
_geom_bond_atom_site_label_2
_ccdc_geom_bond_type
C19   H6    S    
C18   Cl2   S    
Cu1   N1    S    
Cu2   N2    S    
C23   O5    A    
C35   C36   A    
C4    C8    A    
C42   H8    S    
C35   Cl6   S    
C43   N1    A    
C7    Cl1   S    
C12   O4    A    
C26   C27   A    
C17   C23   S    
Cu1   O1    S    
C36   C37   A    
C38   C42   A    
C3    C7    A    
C5    C6    A    
C43   H14   S    
C17   C29   A    
C18   C19   A    
Cu2   O8    S    
C16   H3    S    
C11   C15   A    
C19   C20   A    
C8    C9    A    
C1    O1    A    
C18   C30   A    
C22   C30   A    
C9    C10   A    
C44   C47   A    
C33   H9    S    
Cu1   O5    S    
C21   C22   A    
C23   O6    A    
C14   Cl7   S    
C20   H5    S    
C25   C26   A    
C14   C45   A    
C38   C39   A    
C12   O3    A    
C24   C25   A    
C32   N2    A    
C27   H7    S    
C39   C40   A    
C28   H4    S    
C2    C48   A    
C16   C29   A    
C2    C4    A    
C26   H2    S    
C32   H15   S    
C1    O2    A    
C34   C45   S    
C13   H13   S    
Cu2   O2    S    
C31   C43   A    
C46   Cl8   S    
C40   C41   A    
C22   C27   A    
C5    C11   A    
C40   Cl4   S    
C15   C45   A    
C34   O8    A    
C37   N2    A    
C29   H1    S    
C16   C25   A    
C46   C47   A    
Cu1   O3    S    
C17   C28   A    
C24   C28   A    
C4    C5    A    
C10   C13   A    
C47   H11   S    
C31   Cl5   S    
C6    C7    A    
C3    C46   A    
C9    H10   S    
C32   C33   A    
C6    H12   S    
C36   C38   A    
C2    C3    A    
Cu2   O6    S    
C12   C44   S    
C15   Cl3   S    
C41   H16   S    
C34   O7    A    
C1    C30   S    
C33   C35   A    
C31   C39   A    
C8    Cl9   S    
C37   C41   A    
C10   C11   A    
C20   C21   A    
Cu1   Cu2   S    
Cu1   O7    S    
C21   C24   A    
C48   H17   S    
C13   C14   A    
Cu2   O4    S    
C42   N1    A    
C44   C48   A    
