data_mof_unit_184.cif
_audit_creation_date              2013-03-05T16:35:54-0500
_audit_creation_method            fapswitch 2.2
_symmetry_space_group_name_H-M    P1
_symmetry_Int_Tables_number       1
_space_group_crystal_system       triclinic
_cell_length_a                    23.591767
_cell_length_b                    9.078029
_cell_length_c                    7.771622
_cell_angle_alpha                 90.046199
_cell_angle_beta                  89.953497
_cell_angle_gamma                 89.981011
_cell_volume                      1664.42180596

loop_
_atom_site_label
_atom_site_type_symbol
_atom_site_description
_atom_site_fract_x
_atom_site_fract_y
_atom_site_fract_z
_atom_type_partial_charge
O1    O     O_R   0.500000 0.288390 0.642760 -0.570337
O2    O     O_R   0.500000 0.711610 0.357240 -0.576807
O3    O     O_R   0.500000 0.711610 0.642760 -0.578655
O4    O     O_R   0.500000 0.288390 0.357240 -0.579115
H1    H     H_    0.948149 0.129036 0.460089 0.185854
H2    H     H_    0.050728 0.865738 0.593478 0.186186
H3    H     H_    0.947755 0.864883 0.598410 0.185858
H4    H     H_    0.051129 0.128753 0.464318 0.186634
C1    C     C_R   0.499892 0.219989 0.499955 0.836160
C2    C     C_R   0.499995 0.780013 0.500045 0.830367
O5    O     O_R   0.417880 0.500000 0.642820 -0.545331
O6    O     O_R   0.582120 0.500000 0.357180 -0.599177
O7    O     O_R   0.582120 0.500000 0.642820 -0.549564
O8    O     O_R   0.417880 0.500000 0.357180 -0.595320
C3    C     C_R   0.208052 0.499049 0.517014 0.256285
C4    C     C_R   0.790846 0.498337 0.517626 0.250760
C5    C     C_R   0.390487 0.500778 0.499902 0.817582
C6    C     C_R   0.609257 0.501235 0.499817 0.832455
Cu1   Cu    Cu3+1 0.500000 0.500000 0.669080 1.015001
Cu2   Cu    Cu3+1 0.500000 0.500000 0.330920 0.984131
H5    H     H_    0.217421 0.597321 0.766824 0.161609
H6    H     H_    0.781159 0.341773 0.723064 0.166039
H7    H     H_    0.211807 0.403341 0.264228 0.172425
H8    H     H_    0.787224 0.654909 0.310168 0.178068
C7    C     C_R   0.298544 0.562008 0.646820 0.187110
C8    C     C_R   0.700199 0.406680 0.620526 0.182621
C9    C     C_R   0.295259 0.445988 0.362144 0.152100
C10   C     C_R   0.703734 0.588908 0.388569 0.154512
C11   C     C_R   0.327584 0.504202 0.501248 -0.139190
C12   C     C_R   0.671689 0.497784 0.500635 -0.133105
C13   C     C_R   0.880197 0.626763 0.554030 0.542744
C14   C     C_R   0.118688 0.367150 0.506549 0.541775
C15   C     C_R   0.880359 0.367636 0.498817 0.545942
C16   C     C_R   0.118503 0.628489 0.544815 0.543283
N1    N     N_R   0.851754 0.497423 0.524527 -0.453556
N2    N     N_R   0.147126 0.498111 0.523766 -0.454343
C17   C     C_R   0.939777 0.364456 0.503065 -0.014804
C18   C     C_R   0.059089 0.630335 0.550539 -0.015131
C19   C     C_R   0.939632 0.629583 0.554326 -0.014058
C20   C     C_R   0.059245 0.364340 0.506032 -0.014794
C21   C     C_R   0.969532 0.497026 0.529119 -0.018357
C22   C     C_R   0.029341 0.497186 0.528915 -0.018200
C23   C     C_R   0.970022 0.232504 0.480114 -0.165014
C24   C     C_R   0.028849 0.762000 0.575646 -0.164906
C25   C     C_R   0.969737 0.761498 0.578542 -0.164521
C26   C     C_R   0.029139 0.232325 0.482588 -0.164425
C27   C     C_1   0.499937 0.065388 0.499940 -0.192874
C28   C     C_1   0.499977 0.934611 0.500069 -0.191441
C29   C     C_R   0.239364 0.555438 0.654433 -0.167202
C30   C     C_R   0.759388 0.410072 0.629883 -0.168189
C31   C     C_R   0.236176 0.445842 0.371481 -0.121152
C32   C     C_R   0.762829 0.586585 0.397231 -0.112864
N3    N     N_1   0.500000 0.500000 0.076820 -0.051371
N4    N     N_1   0.500000 0.500000 0.923180 -0.042562
O9    O     O_2   0.851032 0.752154 0.583888 -0.530498
O10   O     O_2   0.147855 0.239905 0.490942 -0.526253
O11   O     O_2   0.851419 0.242360 0.466780 -0.530765
O12   O     O_2   0.147413 0.756290 0.557726 -0.527285
N5    N     N_2   0.328341 0.629129 0.785638 -0.405748
H9    H     H_    0.308755 0.616881 0.903525 0.248762
C33   C     C_3   0.344771 0.780289 0.754075 -0.616634
H10   H     H_    0.306515 0.850938 0.741229 0.229478
H11   H     H_    0.370682 0.788769 0.635089 0.215650
H12   H     H_    0.370599 0.821109 0.863558 0.222210
N6    N     N_2   0.669598 0.309928 0.730890 -0.404655
H13   H     H_    0.688709 0.293126 0.848644 0.256110
C34   C     C_3   0.652965 0.172784 0.650474 -0.638725
H14   H     H_    0.691104 0.106547 0.617621 0.230876
H15   H     H_    0.628072 0.193702 0.531746 0.213735
H16   H     H_    0.626102 0.108591 0.740681 0.227373
N7    N     N_2   0.320374 0.384546 0.211905 -0.432318
H17   H     H_    0.348524 0.451280 0.147397 0.279650
C35   C     C_3   0.337783 0.232416 0.227634 -0.606296
H18   H     H_    0.372507 0.221575 0.323218 0.213346
H19   H     H_    0.353202 0.191882 0.101139 0.221971
H20   H     H_    0.301309 0.163090 0.267968 0.242354
N8    N     N_2   0.677983 0.688298 0.270682 -0.424181
H21   H     H_    0.646625 0.644418 0.194291 0.281189
C36   C     C_3   0.663893 0.830534 0.342928 -0.640189
H22   H     H_    0.646960 0.903285 0.240362 0.227270
H23   H     H_    0.702360 0.883153 0.397904 0.250338
H24   H     H_    0.631211 0.818671 0.445051 0.204096

loop_
_geom_bond_atom_site_label_1
_geom_bond_atom_site_label_2
_geom_bond_distance
_ccdc_geom_bond_type
H8    C32   1.083531 S    
C9    C11   1.424866 A    
C5    C11   1.484343 S    
C21   C22   1.410996 A    
Cu1   Cu2   2.628052 S    
H5    C29   1.083549 S    
C19   C21   1.408146 A    
N8    H21   1.029058 S    
C20   C26   1.405110 A    
O5    Cu1   1.948242 S    
O7    C6    1.282191 A    
C14   N2    1.371806 A    
C4    C30   1.398001 A    
C18   C22   1.407910 A    
C8    C30   1.398679 A    
C4    N1    1.437995 S    
C35   H18   1.110694 S    
C33   H11   1.110819 S    
N6    C34   1.447083 S    
O3    Cu1   1.932025 S    
C6    C12   1.473221 S    
C3    C31   1.396580 A    
C19   C25   1.405121 A    
C14   C20   1.402605 A    
H1    C23   1.083034 S    
N5    H9    1.031869 S    
H2    C24   1.082919 S    
C35   H19   1.110366 S    
O8    C5    1.283269 A    
C9    C31   1.395702 A    
H4    C26   1.082900 S    
N8    C36   1.446118 S    
C7    C11   1.422043 A    
O1    Cu1   1.931698 S    
N5    C33   1.447136 S    
O7    Cu1   1.947911 S    
O2    Cu2   1.931697 S    
C34   H14   1.111472 S    
O8    Cu2   1.947913 S    
O1    C1    1.271294 A    
C36   H23   1.111260 S    
N3    N4    1.194033 T    
C15   C17   1.402486 A    
C34   H15   1.110603 S    
C17   C23   1.405243 A    
C33   H12   1.110423 S    
C18   C24   1.405177 A    
H7    C31   1.083763 S    
C27   C28   1.187191 T    
O6    Cu2   1.948240 S    
C10   N8    1.422805 S    
Cu1   N4    1.974768 S    
C1    C27   1.403473 S    
C2    C28   1.403447 S    
C35   H20   1.111301 S    
C13   N1    1.371783 A    
O2    C2    1.271301 A    
H3    C25   1.083022 S    
C3    N2    1.438277 S    
C9    N7    1.422355 S    
C24   C25   1.394717 A    
N7    C35   1.445985 S    
O5    C5    1.285503 A    
C15   O11   1.349741 S    
C16   C18   1.402443 A    
C8    N6    1.424396 S    
C4    C32   1.398572 A    
Cu2   N3    1.974768 S    
C36   H24   1.111386 S    
C8    C12   1.416479 A    
H6    C30   1.083402 S    
C34   H16   1.110358 S    
C10   C12   1.419454 A    
N7    H17   1.029369 S    
O3    C2    1.271561 A    
C10   C32   1.395999 A    
C20   C22   1.408056 A    
C15   N1    1.372003 A    
C13   C19   1.402413 A    
C16   N2    1.372077 A    
C3    C29   1.396052 A    
C17   C21   1.408026 A    
C33   H10   1.111635 S    
C23   C26   1.394814 A    
C7    C29   1.398651 A    
C36   H22   1.110096 S    
O4    Cu2   1.932026 S    
N6    H13   1.031924 S    
O6    C6    1.280608 A    
C16   O12   1.349714 S    
C7    N5    1.424713 S    
C13   O9    1.349730 S    
O4    C1    1.271557 A    
C14   O10   1.349685 S    
