data_mof_unit_1243.cif
_audit_creation_date              2012-12-10T19:27:26-0500
_audit_creation_method            fapswitch 2.2
_symmetry_space_group_name_H-M    P1
_symmetry_Int_Tables_number       1
_space_group_crystal_system       triclinic
_cell_length_a                    23.399228
_cell_length_b                    10.779014
_cell_length_c                    9.980777
_cell_angle_alpha                 89.341566
_cell_angle_beta                  89.884365
_cell_angle_gamma                 89.94159
_cell_volume                      2517.18502713

loop_
_atom_site_label
_atom_site_type_symbol
_atom_type_description
_atom_site_fract_x
_atom_site_fract_y
_atom_site_fract_z
_atom_type_partial_charge
C1    C     C_R   0.498296 0.258098 0.501314 0.887314
C2    C     C_R   0.499900 0.741505 0.499330 0.959074
C3    C     C_R   0.234265 0.574324 0.442069 -0.065467
C4    C     C_R   0.767113 0.493056 0.393536 -0.116861
C5    C     C_R   0.293600 0.594116 0.452496 -0.118959
C6    C     C_R   0.708891 0.459782 0.397498 -0.261886
C7    C     C_R   0.328068 0.496404 0.502071 -0.115695
C8    C     C_R   0.673972 0.507900 0.501945 -0.106491
C9    C     C_R   0.303134 0.389104 0.558549 0.000944
C10   C     C_R   0.700542 0.565398 0.612935 -0.000098
C11   C     C_R   0.244146 0.384642 0.579541 0.033570
C12   C     C_R   0.760255 0.562574 0.625573 -0.014778
C13   C     C_R   0.209445 0.477327 0.520087 0.104164
C14   C     C_R   0.793549 0.528936 0.514198 0.160430
C15   C     C_3   0.502603 0.036759 0.630714 -0.085121
C16   C     C_3   0.493152 0.962078 0.375314 -0.096963
C17   C     C_3   0.546266 0.957902 0.553578 0.021513
C18   C     C_3   0.448797 0.039405 0.451889 0.009263
C19   C     C_3   0.498472 0.876050 0.498773 -0.152592
C20   C     C_3   0.496797 0.122607 0.505860 -0.161488
C21   C     C_3   0.453968 0.953886 0.576109 -0.123081
C22   C     C_3   0.541427 0.043953 0.431157 -0.103103
C23   C     C_R   0.390124 0.503915 0.500216 0.930174
C24   C     C_R   0.610670 0.499191 0.499954 0.924056
C25   C     C_3   0.488014 0.392257 0.050103 -0.095876
C26   C     C_3   0.511857 0.607919 0.950203 -0.053025
C27   C     C_3   0.537259 0.422690 0.953505 -0.095706
C28   C     C_3   0.462965 0.576974 0.046932 -0.098977
C29   C     C_3   0.451062 0.468573 0.953250 -0.082859
C30   C     C_3   0.549139 0.531131 0.047052 -0.104724
C31   C     C_R   0.886084 0.622002 0.553390 0.608510
C32   C     C_R   0.117280 0.379322 0.494323 0.577057
C33   C     C_R   0.878727 0.403936 0.519663 0.616828
C34   C     C_R   0.124106 0.572646 0.606779 0.649811
C35   C     C_R   0.938425 0.391222 0.518214 -0.042896
C36   C     C_R   0.064337 0.586298 0.605554 -0.010537
C37   C     C_R   0.971509 0.495429 0.554039 -0.079479
C38   C     C_R   0.031266 0.485513 0.559902 -0.074044
C39   C     C_R   0.944940 0.610915 0.579131 -0.015335
C40   C     C_R   0.058210 0.375299 0.517879 -0.060302
C41   C     C_R   0.965419 0.277981 0.483363 0.106564
C42   C     C_R   0.037208 0.697925 0.643536 0.076677
C43   C     C_R   0.025436 0.267505 0.493794 0.111501
C44   C     C_R   0.977664 0.711216 0.627259 0.070528
N1    N     N_R   0.854394 0.518768 0.528128 -0.331450
N2    N     N_R   0.148896 0.475316 0.542111 -0.332241
N3    N     N_3   0.499960 0.500030 0.863290 -0.158411
N4    N     N_3   0.500040 0.499970 0.136710 -0.164170
O1    O     O_R   0.500000 0.313960 0.616610 -0.590505
O2    O     O_R   0.500000 0.686040 0.383390 -0.590421
O3    O     O_R   0.500030 0.313950 0.383350 -0.605751
O4    O     O_R   0.499970 0.686050 0.616650 -0.585708
O5    O     O_R   0.416140 0.499970 0.616650 -0.603450
O6    O     O_R   0.583860 0.500030 0.383350 -0.583097
O7    O     O_R   0.416170 0.499960 0.383400 -0.551685
O8    O     O_R   0.583830 0.500040 0.616600 -0.566174
O9    O     O_2   0.860296 0.734019 0.553277 -0.502675
O10   O     O_2   0.142813 0.291349 0.419822 -0.521477
O11   O     O_2   0.844790 0.303053 0.513826 -0.546974
O12   O     O_2   0.157688 0.657728 0.665774 -0.494363
Zn1   Zn    Zn3+2 0.499980 0.500010 0.655740 1.043749
Zn2   Zn    Zn3+2 0.500020 0.499990 0.344260 1.069943
N5    N     N_3   0.932032 0.177759 0.429064 -0.363091
H1    H     H_    0.912539 0.211633 0.341778 0.227973
H2    H     H_    0.957414 0.104777 0.395629 0.198845
N6    N     N_3   0.070341 0.799858 0.692598 -0.365285
H3    H     H_    0.065353 0.876069 0.628052 0.188980
H4    H     H_    0.055741 0.823172 0.788065 0.197295
C45   C     C_2   0.582503 0.332742 0.909038 1.002781
O13   O     O_2   0.611497 0.279475 0.993528 -0.538801
O14   O     O_R   0.591953 0.309751 0.773903 -0.757474
H5    H     H_    0.624361 0.249068 0.758292 0.357408
C46   C     C_2   0.413106 0.652478 0.092702 1.025543
O15   O     O_2   0.409214 0.761198 0.059310 -0.531949
O16   O     O_R   0.367358 0.593051 0.156149 -0.749284
H6    H     H_    0.332585 0.648561 0.163459 0.375765
C47   C     C_2   0.469194 0.272719 0.110144 1.093630
O17   O     O_2   0.501500 0.184268 0.112010 -0.606665
O18   O     O_R   0.414401 0.263682 0.164397 -0.729546
H7    H     H_    0.401506 0.174728 0.173626 0.384896
C48   C     C_2   0.531263 0.729387 0.894744 0.952778
O19   O     O_2   0.496378 0.805850 0.856119 -0.577859
O20   O     O_R   0.589577 0.756816 0.895568 -0.839474
H8    H     H_    0.598447 0.846458 0.874426 0.368740
C49   C     C_2   0.392142 0.437846 0.903340 0.983192
O21   O     O_2   0.362830 0.519105 0.851684 -0.604714
O22   O     O_R   0.369523 0.319363 0.924431 -0.739152
H9    H     H_    0.327820 0.313484 0.897842 0.361113
C50   C     C_2   0.606019 0.573817 0.099096 1.077014
O23   O     O_2   0.650085 0.528611 0.055624 -0.585353
O24   O     O_R   0.608529 0.669838 0.191395 -0.722712
H10   H     H_    0.649161 0.691336 0.217437 0.351320
N7    N     N_3   0.052249 0.146826 0.488341 -0.382317
H11   H     H_    0.026266 0.083541 0.539941 0.150701
H12   H     H_    0.088386 0.146271 0.549696 0.231421
N8    N     N_3   0.950210 0.825444 0.663079 -0.361995
H13   H     H_    0.967216 0.897668 0.604875 0.190892
H14   H     H_    0.957779 0.842952 0.764253 0.196481
C51   C     C_2   0.199749 0.648498 0.342439 1.015281
O25   O     O_2   0.147647 0.641523 0.339910 -0.622766
O26   O     O_R   0.227364 0.720561 0.244464 -0.784778
H15   H     H_    0.199721 0.764202 0.181556 0.371439
C52   C     C_2   0.799705 0.489940 0.263734 0.933996
O27   O     O_2   0.850754 0.513815 0.260021 -0.619420
O28   O     O_R   0.771122 0.467060 0.143578 -0.737924
H16   H     H_    0.797541 0.468818 0.063020 0.384291
C53   C     C_2   0.316775 0.721929 0.432068 0.974356
O29   O     O_2   0.365775 0.739142 0.393651 -0.646938
O30   O     O_R   0.282040 0.823647 0.462103 -0.737383
H17   H     H_    0.301541 0.905937 0.444643 0.347970
C54   C     C_2   0.690335 0.354752 0.310631 1.119190
O31   O     O_2   0.643870 0.354756 0.256486 -0.529338
O32   O     O_R   0.726314 0.252998 0.288960 -0.724448
H18   H     H_    0.761834 0.252627 0.346520 0.343403
N9    N     N_3   0.337936 0.285301 0.597232 -0.370850
H19   H     H_    0.366071 0.269417 0.518405 0.191590
H20   H     H_    0.363050 0.309933 0.678294 0.237445
N10   N     N_3   0.666488 0.621361 0.715473 -0.393156
H21   H     H_    0.677904 0.714702 0.722477 0.253589
H22   H     H_    0.674519 0.576157 0.806600 0.264248
C55   C     C_2   0.219295 0.284356 0.665331 0.962577
O33   O     O_2   0.181759 0.308609 0.746392 -0.627584
O34   O     O_R   0.238993 0.162350 0.654176 -0.727810
H23   H     H_    0.218773 0.102966 0.717881 0.367299
C56   C     C_2   0.787880 0.590064 0.756234 0.941857
O35   O     O_2   0.823607 0.518547 0.802191 -0.623336
O36   O     O_R   0.773652 0.697432 0.826150 -0.770111
H24   H     H_    0.795382 0.704818 0.913475 0.367820
N11   N     N_3   0.601362 0.909675 0.597680 -0.419542
H25   H     H_    0.620412 0.974485 0.660273 0.256859
H26   H     H_    0.593959 0.828397 0.652070 0.214640
N12   N     N_3   0.393954 0.077664 0.396421 -0.431910
H27   H     H_    0.380322 0.008158 0.332030 0.237600
H28   H     H_    0.364025 0.075195 0.473710 0.216058
C57   C     C_2   0.507606 0.077212 0.773053 1.047544
O37   O     O_2   0.468210 0.132868 0.825881 -0.556487
O38   O     O_R   0.557230 0.050252 0.844523 -0.841960
H29   H     H_    0.554748 0.073682 0.941931 0.396543
C58   C     C_2   0.492311 0.928783 0.231428 1.066932
O39   O     O_2   0.452721 0.961003 0.159753 -0.549492
O40   O     O_R   0.539930 0.870887 0.177544 -0.726717
H30   H     H_    0.542375 0.885982 0.078099 0.367510
C59   C     C_2   0.404258 0.909313 0.659833 1.013493
O41   O     O_2   0.373143 0.984974 0.713896 -0.547531
O42   O     O_R   0.394014 0.782596 0.677178 -0.743938
H31   H     H_    0.359494 0.765111 0.735914 0.380409
C60   C     C_2   0.594368 0.092834 0.364649 1.037535
O43   O     O_2   0.630428 0.143612 0.433134 -0.627718
O44   O     O_R   0.603326 0.077000 0.227626 -0.716275
H32   H     H_    0.642026 0.108067 0.196602 0.408065

loop_
_geom_bond_atom_site_label_1
_geom_bond_atom_site_label_2
_ccdc_geom_bond_type
N6    H4    S    
O22   H9    S    
N5    H2    S    
N7    H11   S    
C8    C24   S    
C18   C21   S    
C33   N1    A    
C6    C54   S    
C36   C42   A    
C54   O31   D    
C32   O10   S    
O42   H31   S    
O34   H23   S    
C54   O32   S    
C49   O21   D    
O26   H15   S    
C29   N3    S    
C25   C47   S    
C30   N4    S    
C28   C29   S    
C60   O44   S    
N11   H25   S    
O4    Zn1   S    
C13   N2    S    
C15   C57   S    
C24   O6    A    
C59   O41   D    
C4    C52   S    
C59   O42   S    
C18   C20   S    
C7    C9    A    
C46   O15   D    
C45   O14   S    
N10   H21   S    
C2    O4    A    
C2    O2    A    
C33   C35   A    
C18   N12   S    
C40   C43   A    
C60   O43   D    
N12   H27   S    
N9    H20   S    
N8    H14   S    
C53   O29   D    
C34   N2    A    
C50   O24   S    
C29   C49   S    
C3    C13   A    
C47   O18   S    
N6    H3    S    
O38   H29   S    
C33   O11   S    
C57   O38   S    
C27   C30   S    
C34   O12   S    
C41   C43   A    
C11   C55   S    
O3    Zn2   S    
C42   C44   A    
C30   C50   S    
C28   C46   S    
C48   O20   S    
C23   O5    A    
C14   N1    S    
C49   O22   S    
C25   C29   S    
C15   C20   S    
O1    Zn1   S    
C17   N11   S    
C9    N9    S    
C57   O37   D    
C21   C59   S    
C4    C6    A    
O24   H10   S    
C5    C7    A    
C17   C19   S    
C6    C8    A    
C12   C56   S    
O6    Zn2   S    
C47   O17   D    
C48   O19   D    
O18   H7    S    
O16   H6    S    
C37   C38   A    
C10   N10   S    
C9    C11   A    
N4    Zn2   S    
O20   H8    S    
N8    H13   S    
C52   O28   S    
C16   C18   S    
C58   O40   S    
C1    O3    A    
C25   N4    S    
C55   O33   D    
C10   C12   A    
C26   N3    S    
N12   H28   S    
C51   O26   S    
C12   C14   A    
C26   C30   S    
C26   C48   S    
O40   H30   S    
C56   O35   D    
O2    Zn2   S    
C16   C58   S    
C24   O8    A    
C46   O16   S    
O5    Zn1   S    
O36   H24   S    
C35   C37   A    
C42   N6    S    
O32   H18   S    
C5    C53   S    
C27   N3    S    
C15   C17   S    
C28   N4    S    
C1    C20   S    
C16   C22   S    
C44   N8    S    
C19   C21   S    
C2    C19   S    
C32   N2    A    
C8    C10   A    
C20   C22   S    
C22   C60   S    
C3    C5    A    
C27   C45   S    
N3    Zn1   S    
C58   O39   D    
C23   O7    A    
C39   C44   A    
C25   C27   S    
O28   H16   S    
C26   C28   S    
C17   C22   S    
C51   O25   D    
C31   O9    S    
C36   C38   A    
O14   H5    S    
C37   C39   A    
O44   H32   S    
C38   C40   A    
C11   C13   A    
C53   O30   S    
C16   C19   S    
C7    C23   S    
C43   N7    S    
C31   C39   A    
C34   C36   A    
C32   C40   A    
C4    C14   A    
C45   O13   D    
C35   C41   A    
N10   H22   S    
C55   O34   S    
N5    H1    S    
C3    C51   S    
C15   C21   S    
O7    Zn2   S    
N7    H12   S    
C31   N1    A    
C52   O27   D    
C56   O36   S    
C41   N5    S    
O8    Zn1   S    
C50   O23   D    
O30   H17   S    
C1    O1    A    
N9    H19   S    
N11   H26   S    
