data_mof_unit_2076.cif
_audit_creation_date              2013-03-05T16:18:08-0500
_audit_creation_method            fapswitch 2.2
_symmetry_space_group_name_H-M    P1
_symmetry_Int_Tables_number       1
_space_group_crystal_system       triclinic
_cell_length_a                    10.757993
_cell_length_b                    10.127044
_cell_length_c                    15.644348
_cell_angle_alpha                 91.408781
_cell_angle_beta                  90.14325
_cell_angle_gamma                 91.154154
_cell_volume                      1703.53107931

loop_
_atom_site_label
_atom_site_type_symbol
_atom_site_description
_atom_site_fract_x
_atom_site_fract_y
_atom_site_fract_z
_atom_type_partial_charge
O1    O     O_R   0.314910 0.616040 0.499980 -0.592229
O2    O     O_R   0.314910 0.383960 0.499980 -0.563519
C1    C     C_R   0.259059 0.498877 0.503545 0.926071
O3    O     O_R   0.500120 0.616090 0.377110 -0.569430
O4    O     O_R   0.500120 0.383910 0.377110 -0.537304
C2    C     C_R   0.501146 0.498582 0.339296 0.871372
Zn1   Zn    Zn3+2 0.500150 0.654960 0.499960 1.112091
Zn2   Zn    Zn3+2 0.500150 0.345040 0.499960 1.129724
O5    O     O_R   0.685320 0.616040 0.499960 -0.551773
O6    O     O_R   0.685320 0.383960 0.499960 -0.587226
O7    O     O_R   0.500110 0.615990 0.622830 -0.529681
O8    O     O_R   0.500110 0.384010 0.622830 -0.534891
C3    C     C_R   0.741383 0.501009 0.502622 0.893835
C4    C     C_R   0.501839 0.501377 0.660664 0.946449
C5    C     C_3   0.506638 0.636939 0.052843 0.172836
C6    C     C_3   0.403188 0.413815 0.047045 0.145919
C7    C     C_3   0.397732 0.424163 0.948830 -0.383434
C8    C     C_3   0.519234 0.641170 0.954883 -0.371268
H1    H     H_    0.442493 0.700156 0.928380 0.218812
H2    H     H_    0.312729 0.477788 0.930390 0.212482
H3    H     H_    0.411701 0.670725 0.069829 0.158830
H4    H     H_    0.318075 0.460120 0.073706 0.155864
H5    H     H_    0.390796 0.324243 0.917646 0.263800
H6    H     H_    0.608369 0.690533 0.936745 0.265524
C9    C     C_1   0.506235 0.504042 0.749713 0.037828
C10   C     C_3   0.520604 0.491137 0.082932 -0.130588
C11   C     C_3   0.514632 0.499018 0.916784 0.016165
C12   C     C_3   0.631129 0.424366 0.945337 -0.426961
C13   C     C_3   0.645626 0.429851 0.045808 0.470251
C14   C     C_1   0.510405 0.503233 0.825210 0.062027
C15   C     C_1   0.514790 0.492524 0.174886 0.143979
C16   C     C_1   0.507963 0.495102 0.250349 0.064003
H7    H     H_    0.714895 0.462263 0.911847 0.236014
H8    H     H_    0.619498 0.320558 0.921204 0.241825
C17   C     C_3   0.072065 0.618038 0.566925 0.541974
C18   C     C_3   0.066169 0.361213 0.542960 0.516313
C19   C     C_3   0.929380 0.600624 0.575030 -0.395075
C20   C     C_3   0.923478 0.364511 0.532531 -0.369981
H9    H     H_    0.903222 0.565170 0.639469 0.206364
H10   H     H_    0.876682 0.337469 0.592452 0.257207
H11   H     H_    0.885476 0.696569 0.570613 0.296174
H12   H     H_    0.891627 0.292392 0.482101 0.276365
H13   H     H_    0.118281 0.599119 0.384523 0.240306
H14   H     H_    0.094614 0.425917 0.375440 0.254820
H15   H     H_    0.910199 0.636192 0.400870 0.278978
H16   H     H_    0.887014 0.466892 0.367171 0.223984
C21   C     C_3   0.072545 0.513832 0.416141 -0.427462
C22   C     C_3   0.121825 0.497258 0.509136 -0.214227
C23   C     C_3   0.878695 0.501381 0.506396 -0.140369
C24   C     C_3   0.931214 0.532747 0.417077 -0.298837
C25   C     C_3   0.428001 0.080020 0.573208 0.161864
C26   C     C_3   0.414187 0.922405 0.565582 0.132308
H17   H     H_    0.331871 0.117911 0.570729 0.196765
H18   H     H_    0.316687 0.902078 0.545784 0.173517
H19   H     H_    0.324717 0.072494 0.442050 0.146341
H20   H     H_    0.349554 0.872008 0.410533 0.172851
C27   C     C_3   0.424988 0.073299 0.424033 -0.002002
C28   C     C_3   0.445130 0.917164 0.415797 -0.063141
C29   C     C_3   0.632105 0.081614 0.498800 0.307295
C30   C     C_3   0.628383 0.921536 0.516119 0.315780
N1    N     N_3   0.499750 0.138610 0.498180 -0.232303
N2    N     N_3   0.499750 0.861390 0.498180 -0.244064
Cl1   Cl    Cl    0.456747 0.139990 0.680860 -0.319312
Cl2   Cl    Cl    0.405571 0.846844 0.667911 -0.323989
N3    N     N_R   0.695141 0.112738 0.416408 0.221509
O9    O     O_R   0.809101 0.078189 0.401916 -0.225038
O10   O     O_R   0.658079 0.209919 0.371492 -0.286583
N4    N     N_R   0.726501 0.859603 0.462912 0.241975
O11   O     O_R   0.704317 0.783450 0.396529 -0.302168
O12   O     O_R   0.842038 0.875190 0.486240 -0.258325
N5    N     N_R   0.714401 0.143666 0.565152 0.220419
O13   O     O_R   0.827276 0.101270 0.573378 -0.273360
O14   O     O_R   0.677032 0.228819 0.621986 -0.307101
N6    N     N_R   0.662245 0.890240 0.606802 0.259874
O15   O     O_R   0.693866 0.771814 0.625910 -0.346527
O16   O     O_R   0.656964 0.973957 0.670800 -0.217273
N7    N     N_R   0.413568 0.149795 0.344933 0.305282
O17   O     O_R   0.315840 0.222333 0.335936 -0.319497
O18   O     O_R   0.477257 0.125077 0.276249 -0.170567
N8    N     N_R   0.502532 0.875453 0.334038 0.311426
O19   O     O_R   0.433638 0.809318 0.278646 -0.320598
O20   O     O_R   0.602426 0.933117 0.305064 -0.178753
Cl3   Cl    Cl    0.391754 0.244532 0.078166 -0.374622
Cl4   Cl    Cl    0.608889 0.757203 0.104216 -0.311927
N9    N     N_R   0.754092 0.512948 0.073037 0.243417
O21   O     O_R   0.787955 0.516795 0.153043 -0.296451
O22   O     O_R   0.819728 0.580793 0.019052 -0.304091
N10   N     N_R   0.667159 0.294861 0.076472 0.249210
O23   O     O_R   0.731925 0.213110 0.029961 -0.265223
O24   O     O_R   0.656561 0.270023 0.157392 -0.231102
Cl5   Cl    Cl    0.100745 0.774865 0.517140 -0.483139
Cl6   Cl    Cl    0.112146 0.216696 0.481195 -0.465226
N11   N     N_R   0.126810 0.630000 0.653496 0.238711
O25   O     O_R   0.230511 0.574286 0.672949 -0.368219
O26   O     O_R   0.081210 0.714867 0.708245 -0.242018
N12   N     N_R   0.102564 0.340512 0.632870 0.240062
O27   O     O_R   0.212951 0.298714 0.650428 -0.290326
O28   O     O_R   0.027886 0.365202 0.696434 -0.329592

loop_
_geom_bond_atom_site_label_1
_geom_bond_atom_site_label_2
_geom_bond_distance
_ccdc_geom_bond_type
C28   N2    1.539721 S    
C5    C8    1.540404 S    
C2    C16   1.393256 S    
N11   O25   1.299097 A    
C25   N1    1.531637 S    
C20   C23   1.540873 S    
N7    O17   1.303938 A    
Zn1   O7    1.971795 S    
C7    H5    1.113550 S    
N6    O16   1.298036 A    
C8    H6    1.113086 S    
C12   C13   1.578640 S    
C17   C19   1.547441 S    
C20   H12   1.110625 S    
O4    C2    1.316045 A    
O7    C4    1.316228 A    
C1    C22   1.478950 S    
C7    H2    1.113893 S    
C30   N2    1.523307 S    
C8    H1    1.113848 S    
O5    C3    1.324046 A    
C13   N10   1.482253 S    
C21   C22   1.561270 S    
C6    C7    1.543706 S    
N3    O10   1.292165 A    
N12   O28   1.302580 A    
C13   N9    1.480399 S    
H14   C21   1.111696 S    
C28   N8    1.477719 S    
Zn2   N1    2.089945 S    
C18   Cl6   1.811698 S    
N7    O18   1.297714 A    
C12   H8    1.112789 S    
C10   C15   1.439819 S    
N11   O26   1.302242 A    
C11   C14   1.434928 S    
O3    Zn1   1.952300 S    
C17   C22   1.604506 S    
C26   H18   1.106821 S    
C21   C24   1.536343 S    
C17   N11   1.476767 S    
C6    C10   1.568090 S    
C29   N1    1.547247 S    
N6    O15   1.294980 A    
N9    O22   1.302266 A    
C25   C26   1.601587 S    
C7    C11   1.546282 S    
C27   N7    1.482147 S    
C25   Cl1   1.800092 S    
N8    O20   1.300602 A    
C26   Cl2   1.793053 S    
N5    O14   1.293773 A    
N4    O11   1.297000 A    
C5    C10   1.570696 S    
N9    O21   1.302133 A    
C6    Cl3   1.795540 S    
O1    C1    1.321607 A    
Zn1   N2    2.091488 S    
C19   C23   1.543459 S    
C18   N12   1.480127 S    
C15   C16   1.182710 T    
C5    H3    1.114346 S    
Zn2   O8    1.952790 S    
N12   O27   1.299695 A    
C3    C23   1.478163 S    
O3    C2    1.316106 A    
O8    C4    1.314485 A    
C12   H7    1.110035 S    
C23   C24   1.546365 S    
H19   C27   1.115524 S    
C9    C14   1.182081 T    
Zn1   O5    2.038450 S    
C6    H4    1.114388 S    
O1    Zn1   2.023612 S    
Zn2   O6    2.022873 S    
O2    Zn2   2.039186 S    
C8    C11   1.544306 S    
N10   O24   1.301573 A    
N8    O19   1.302727 A    
O6    C3    1.318795 A    
O4    Zn2   1.971264 S    
C27   N1    1.538204 S    
C5    Cl4   1.797986 S    
H16   C24   1.113645 S    
C18   C20   1.544425 S    
O2    C1    1.320468 A    
N5    O13   1.303224 A    
C19   H9    1.113336 S    
C26   N2    1.528634 S    
C29   N3    1.495463 S    
C20   H10   1.103009 S    
C27   C28   1.602386 S    
H15   C24   1.111380 S    
C30   N6    1.506643 S    
H20   C28   1.118885 S    
C18   C22   1.593999 S    
C4    C9    1.393382 S    
C19   H11   1.092508 S    
C29   C30   1.649872 S    
N10   O23   1.302493 A    
C30   N4    1.485195 S    
C10   C13   1.597283 S    
N4    O12   1.300002 A    
N3    O9    1.300620 A    
C11   C12   1.547184 S    
C25   H17   1.111191 S    
H13   C21   1.112589 S    
C29   N5    1.482292 S    
C17   Cl5   1.807329 S    
