data_mof_unit_1092.cif
_audit_creation_date              2013-03-05T16:15:16-0500
_audit_creation_method            fapswitch 2.2
_symmetry_space_group_name_H-M    P1
_symmetry_Int_Tables_number       1
_space_group_crystal_system       triclinic
_cell_length_a                    27.806526
_cell_length_b                    10.594889
_cell_length_c                    9.398376
_cell_angle_alpha                 89.562064
_cell_angle_beta                  90.114575
_cell_angle_gamma                 89.788475
_cell_volume                      2768.72244715

loop_
_atom_site_label
_atom_site_type_symbol
_atom_site_description
_atom_site_fract_x
_atom_site_fract_y
_atom_site_fract_z
_atom_type_partial_charge
O1    O     O_R   0.500020 0.316850 0.620870 -0.588660
O2    O     O_R   0.499980 0.683150 0.379130 -0.588570
O3    O     O_R   0.500000 0.316860 0.379090 -0.582288
O4    O     O_R   0.500000 0.683140 0.620910 -0.582385
C1    C     C_R   0.500023 0.259386 0.500515 0.787898
C2    C     C_R   0.499980 0.740614 0.499485 0.787844
O5    O     O_R   0.430270 0.500020 0.620880 -0.585180
O6    O     O_R   0.569730 0.499980 0.379120 -0.585779
O7    O     O_R   0.430250 0.500030 0.379090 -0.586109
O8    O     O_R   0.569750 0.499970 0.620910 -0.585810
C3    C     C_R   0.407488 0.500319 0.499845 0.821439
C4    C     C_R   0.592519 0.499714 0.500129 0.820708
Cu1   Cu    Cu3+1 0.500010 0.499990 0.643150 0.931558
Cu2   Cu    Cu3+1 0.499990 0.500010 0.356850 0.931531
C5    C     C_R   0.178564 0.390233 0.515268 0.558827
C6    C     C_R   0.821411 0.610277 0.513268 0.592768
O9    O     O_2   0.204542 0.283346 0.532408 -0.505611
O10   O     O_2   0.795469 0.717132 0.528959 -0.507977
N1    N     N_R   0.202075 0.502179 0.498545 -0.463089
N2    N     N_R   0.797876 0.498407 0.498081 -0.460230
C7    C     C_R   0.177923 0.613498 0.480693 0.613343
C8    C     C_R   0.821962 0.387243 0.480599 0.590214
C9    C     C_R   0.278792 0.492142 0.626836 -0.192769
C10   C     C_R   0.720967 0.499199 0.371418 -0.200484
C11   C     C_R   0.328902 0.491206 0.627591 -0.220183
C12   C     C_R   0.670907 0.500528 0.371341 -0.219117
C13   C     C_R   0.329129 0.511333 0.370254 -0.305899
C14   C     C_R   0.671097 0.497632 0.629516 -0.318741
C15   C     C_R   0.278741 0.510093 0.368896 0.547592
C16   C     C_R   0.721663 0.499678 0.630216 0.548226
C17   C     C_R   0.253634 0.502434 0.498144 0.265715
C18   C     C_R   0.746344 0.497976 0.500052 0.278009
C19   C     C_R   0.101982 0.500794 0.495264 -0.182561
C20   C     C_R   0.897945 0.499739 0.494497 -0.182743
C21   C     C_R   0.127847 0.386373 0.513784 -0.082194
C22   C     C_R   0.872114 0.614037 0.512054 -0.087780
C23   C     C_R   0.102576 0.272089 0.532232 0.468786
C24   C     C_R   0.897417 0.728039 0.530268 0.468185
C25   C     C_R   0.127259 0.615672 0.477746 -0.113817
C26   C     C_R   0.872630 0.385031 0.477657 -0.108309
C27   C     C_R   0.354526 0.500819 0.499296 -0.103094
C28   C     C_R   0.645499 0.499514 0.500340 -0.096732
H1    H     H_    0.348179 0.521023 0.270370 0.165078
H2    H     H_    0.651905 0.493211 0.729477 0.160537
C29   C     C_R   0.974764 0.384427 0.486995 0.017223
C30   C     C_R   0.025153 0.616137 0.486604 0.016921
C31   C     C_R   0.974213 0.615911 0.499408 0.030210
C32   C     C_R   0.025724 0.384540 0.500153 0.030904
C33   C     C_R   0.949078 0.500047 0.493736 0.064048
C34   C     C_R   0.050849 0.500462 0.494149 0.063756
C35   C     C_R   0.948631 0.272302 0.465462 -0.311238
C36   C     C_R   0.051240 0.728462 0.464439 -0.311319
C37   C     C_R   0.898583 0.272114 0.456513 0.498437
C38   C     C_R   0.101271 0.728732 0.455619 0.494919
O11   O     O_2   0.796654 0.279555 0.467253 -0.492448
O12   O     O_2   0.203173 0.721395 0.466910 -0.486168
C39   C     C_R   0.052315 0.272201 0.520809 -0.326894
C40   C     C_R   0.947651 0.728065 0.519487 -0.325928
H3    H     H_    0.652155 0.501785 0.270217 0.163385
H4    H     H_    0.347523 0.483013 0.728589 0.164897
H5    H     H_    0.740195 0.499468 0.271314 0.152513
H6    H     H_    0.259392 0.485007 0.726364 0.153607
H7    H     H_    0.966045 0.182512 0.449654 0.149585
H8    H     H_    0.033780 0.818338 0.447794 0.149825
H9    H     H_    0.034834 0.182376 0.532541 0.133661
H10   H     H_    0.965110 0.817805 0.531446 0.134464
C41   C     C_3   0.500100 0.039313 0.635648 -0.140352
C42   C     C_3   0.499905 0.960686 0.364354 -0.140199
C43   C     C_3   0.539563 0.956820 0.567015 -0.163795
C44   C     C_3   0.460442 0.043179 0.432988 -0.163241
H11   H     H_    0.571899 0.918074 0.621629 0.131969
H12   H     H_    0.428106 0.081923 0.378373 0.132934
H13   H     H_    0.500186 0.074196 0.746739 0.128866
H14   H     H_    0.499819 0.925803 0.253263 0.128946
C45   C     C_3   0.499988 0.877488 0.498507 0.019819
C46   C     C_3   0.500017 0.122511 0.501495 0.019571
C47   C     C_3   0.460525 0.957644 0.567019 -0.164787
C48   C     C_3   0.539480 0.042356 0.432983 -0.165202
H15   H     H_    0.428258 0.919573 0.621643 0.134146
H16   H     H_    0.571747 0.080428 0.378360 0.134218
C49   C     C_3   0.505385 0.613131 0.049474 -0.037396
C50   C     C_3   0.494616 0.386869 0.950526 -0.037304
C51   C     C_3   0.465369 0.569174 0.948472 -0.034717
C52   C     C_3   0.534632 0.430827 0.051529 -0.035378
H17   H     H_    0.436287 0.627364 0.899922 0.114550
H18   H     H_    0.563716 0.372644 0.100080 0.113225
H19   H     H_    0.509999 0.708488 0.095493 0.111849
H20   H     H_    0.490001 0.291511 0.904508 0.111840
N3    N     N_3   0.500040 0.499970 0.858290 -0.153483
N4    N     N_3   0.499960 0.500030 0.141710 -0.153514
C53   C     C_3   0.540060 0.543912 0.949401 -0.039219
C54   C     C_3   0.459941 0.456089 0.050599 -0.038831
H21   H     H_    0.573737 0.581126 0.902007 0.108622
H22   H     H_    0.426264 0.418885 0.098003 0.110640
O13   O     O_3   0.253673 0.524598 0.242622 -0.571884
C55   C     C_3   0.255361 0.409776 0.167946 -0.333769
H23   H     H_    0.240546 0.330560 0.232780 0.188915
H24   H     H_    0.292569 0.387389 0.132639 0.152252
H25   H     H_    0.232697 0.419256 0.071148 0.192924
O14   O     O_3   0.747853 0.492858 0.755755 -0.574680
C56   C     C_3   0.736423 0.596269 0.843407 -0.317599
H26   H     H_    0.701598 0.581149 0.898527 0.148608
H27   H     H_    0.735989 0.687315 0.783192 0.181402
H28   H     H_    0.764548 0.603868 0.926752 0.192315
O15   O     O_3   0.127668 0.159180 0.549692 -0.552470
C57   C     C_3   0.111046 0.090292 0.669460 0.081900
H29   H     H_    0.082124 0.024882 0.635185 0.155415
H30   H     H_    0.097015 0.152663 0.755365 0.106774
C58   C     C_3   0.152712 0.012758 0.731291 -0.228789
H31   H     H_    0.169400 0.955054 0.646312 0.286930
H32   H     H_    0.180534 0.077710 0.773429 0.218110
C59   C     C_3   0.135791 0.925366 0.850841 -0.959921
H33   H     H_    0.119489 0.981041 0.938190 0.246142
H34   H     H_    0.166931 0.871518 0.894240 0.268683
H35   H     H_    0.108911 0.857290 0.809807 0.264687
O16   O     O_3   0.872441 0.840783 0.547579 -0.553576
C60   C     C_3   0.888239 0.905624 0.670193 0.082777
H36   H     H_    0.917394 0.972055 0.639608 0.154315
H37   H     H_    0.901722 0.840510 0.755558 0.108326
C61   C     C_3   0.846136 0.981037 0.730962 -0.228418
H38   H     H_    0.830040 0.041643 0.646343 0.289079
H39   H     H_    0.818035 0.914675 0.769302 0.215107
C62   C     C_3   0.862195 0.064278 0.853981 -0.949421
H40   H     H_    0.877860 0.005619 0.941041 0.244366
H41   H     H_    0.830753 0.116699 0.896404 0.271394
H42   H     H_    0.889367 0.133655 0.816785 0.265277
O17   O     O_3   0.875289 0.158552 0.435905 -0.549251
C63   C     C_3   0.877381 0.128026 0.290218 -0.223143
H43   H     H_    0.914924 0.108343 0.256046 0.127932
H44   H     H_    0.861174 0.203961 0.222743 0.155649
H45   H     H_    0.856232 0.040885 0.272892 0.211214
O18   O     O_3   0.124507 0.842423 0.433707 -0.551626
C64   C     C_3   0.122529 0.873044 0.287482 -0.214852
H46   H     H_    0.084985 0.892199 0.252151 0.124671
H47   H     H_    0.138973 0.797387 0.221606 0.166248
H48   H     H_    0.143518 0.960500 0.269211 0.207698

loop_
_geom_bond_atom_site_label_1
_geom_bond_atom_site_label_2
_geom_bond_distance
_ccdc_geom_bond_type
C56   H26   1.110698 S    
C30   C36   1.410339 A    
C13   C15   1.401262 A    
O13   C55   1.409774 S    
C41   C47   1.545465 S    
N1    C17   1.433688 S    
C63   H43   1.112295 S    
C59   H34   1.110396 S    
C32   C39   1.410831 A    
C31   C33   1.416128 A    
C42   C45   1.532855 S    
C5    N1    1.364595 A    
C51   C54   1.537496 S    
C10   H5    1.083045 S    
C50   N3    1.481922 S    
O1    C1    1.288673 A    
C21   C23   1.411921 A    
C46   C48   1.531102 S    
C58   H32   1.111653 S    
C48   H16   1.110239 S    
C62   H41   1.110398 S    
C25   C38   1.410513 A    
C57   H29   1.112343 S    
C29   C35   1.410557 A    
C42   H14   1.110217 S    
C55   H25   1.109379 S    
C16   O14   1.386548 S    
C50   C54   1.536570 S    
O16   C60   1.416037 S    
C14   C28   1.406066 A    
O4    Cu1   1.950089 S    
C43   H11   1.110245 S    
Cu2   N4    2.021964 S    
C4    C28   1.473175 S    
C37   O17   1.383299 S    
C24   C40   1.400714 A    
C40   H10   1.075697 S    
C9    H6    1.083022 S    
C36   C38   1.393811 A    
O18   C64   1.410555 S    
C55   H24   1.112463 S    
C64   H48   1.109351 S    
C43   C45   1.531106 S    
C41   H13   1.110217 S    
C52   C53   1.537495 S    
N3    C53   1.481363 S    
C12   H3    1.083104 S    
C61   C62   1.526561 S    
C6    N2    1.364338 A    
C32   C34   1.416029 A    
C56   H27   1.114650 S    
Cu1   Cu2   2.690751 S    
C44   C47   1.546150 S    
C43   C48   1.546157 S    
O2    C2    1.288676 A    
C52   N4    1.480879 S    
C5    C21   1.411068 A    
C59   H33   1.110987 S    
C49   C51   1.537035 S    
C61   H39   1.111781 S    
C47   H15   1.110240 S    
C42   C48   1.545466 S    
C51   N3    1.480874 S    
C62   H40   1.110976 S    
C35   H7    1.077308 S    
O4    C2    1.289375 A    
C36   H8    1.077461 S    
C58   C59   1.526605 S    
C11   C27   1.405009 A    
C15   O13   1.382392 S    
C62   H42   1.111145 S    
C19   C34   1.421866 A    
C14   H2    1.082176 S    
C35   C37   1.394045 A    
C9    C17   1.399356 A    
O5    C3    1.300902 A    
O7    Cu2   1.950874 S    
C10   C18   1.398554 A    
C23   O15   1.391092 S    
C53   H21   1.110188 S    
C24   O16   1.390303 S    
C13   C27   1.405677 A    
N4    C54   1.481343 S    
C7    C25   1.409095 A    
C29   C33   1.417605 A    
O6    C4    1.300788 A    
C8    C26   1.409353 A    
C55   H23   1.114067 S    
C54   H22   1.110183 S    
C19   C25   1.416415 A    
C45   C47   1.531099 S    
C49   H19   1.109798 S    
O3    Cu2   1.950088 S    
O8    C4    1.300900 A    
C49   N4    1.481921 S    
C6    O10   1.349361 S    
C51   H17   1.110291 S    
N2    C8    1.363910 A    
C56   H28   1.109343 S    
C50   C52   1.537043 S    
O7    C3    1.300581 A    
C44   C46   1.531102 S    
C64   H46   1.112357 S    
C20   C26   1.416457 A    
C60   C61   1.529033 S    
O1    Cu1   1.953205 S    
O17   C63   1.410564 S    
C63   H45   1.109352 S    
C61   H38   1.110748 S    
C12   C28   1.404417 A    
N2    C18   1.433104 S    
C29   C32   1.422173 A    
C5    O9    1.349401 S    
C30   C31   1.421808 A    
C20   C33   1.421896 A    
O6    Cu2   1.950072 S    
Cu1   N3    2.021964 S    
C10   C12   1.392015 A    
C39   H9    1.075251 S    
O3    C1    1.289379 A    
O8    Cu1   1.950874 S    
C63   H44   1.113951 S    
C7    O12   1.349278 S    
C8    O11   1.349244 S    
C38   O18   1.383219 S    
O15   C57   1.416105 S    
C30   C34   1.417603 A    
C1    C46   1.450132 S    
C60   H37   1.117405 S    
C14   C16   1.406318 A    
C15   C17   1.404225 A    
C60   H36   1.112344 S    
C6    C22   1.410656 A    
C31   C40   1.410880 A    
C16   C18   1.404086 A    
C57   H30   1.117246 S    
C50   H20   1.109798 S    
C22   C24   1.411439 A    
O14   C56   1.411499 S    
C19   C21   1.416688 A    
C3    C27   1.472672 S    
C20   C22   1.416571 A    
C9    C11   1.393371 A    
O2    Cu2   1.953203 S    
C49   C53   1.536564 S    
C13   H1    1.083188 S    
O5    Cu1   1.950072 S    
C42   C44   1.545463 S    
C26   C37   1.410450 A    
C11   H4    1.083094 S    
C64   H47   1.113974 S    
C52   H18   1.110298 S    
C44   H12   1.110243 S    
C41   C46   1.532858 S    
C41   C43   1.545467 S    
C58   H31   1.110765 S    
C59   H35   1.111171 S    
C23   C39   1.401472 A    
N1    C7    1.364138 A    
C57   C58   1.528988 S    
C2    C45   1.450128 S    
