data_mof_unit_2623.cif
_audit_creation_date              2012-12-10T20:42:40-0500
_audit_creation_method            fapswitch 2.2
_symmetry_space_group_name_H-M    P1
_symmetry_Int_Tables_number       1
_space_group_crystal_system       triclinic
_cell_length_a                    8.910781
_cell_length_b                    10.680595
_cell_length_c                    9.884705
_cell_angle_alpha                 89.921273
_cell_angle_beta                  90.012333
_cell_angle_gamma                 89.944306
_cell_volume                      940.750168554

loop_
_atom_site_label
_atom_site_type_symbol
_atom_type_description
_atom_site_fract_x
_atom_site_fract_y
_atom_site_fract_z
_atom_type_partial_charge
C1    C     C_R   0.504572 0.259981 0.500104 0.872416
C2    C     C_R   0.368623 0.490502 0.928814 0.221775
C3    C     C_3   0.259484 0.384980 0.923207 -0.513506
C4    C     C_R   0.218763 0.499909 0.499977 0.937520
C5    C     C_3   0.259961 0.384421 0.076901 -0.505742
C6    C     C_R   0.504669 0.739983 0.499917 0.872717
C7    C     C_R   0.781253 0.499975 0.500028 0.934392
C8    C     C_1   0.065418 0.499855 0.499991 -0.215507
C9    C     C_1   0.934609 0.499884 0.500028 -0.211212
C10   C     C_R   0.527970 0.063559 0.622870 0.141123
C11   C     C_R   0.528485 0.128535 0.500702 -0.102908
C12   C     C_R   0.557979 0.935376 0.379356 -0.226014
C13   C     C_R   0.557875 0.064882 0.379473 -0.228454
C14   C     C_R   0.528626 0.871344 0.500451 -0.103514
C15   C     C_R   0.527968 0.935834 0.622707 0.133764
C16   C     C_3   0.420892 0.928389 0.738848 -0.471509
C17   C     C_3   0.420911 0.070294 0.739084 -0.495905
C18   C     C_R   0.368684 0.490246 0.071146 0.223168
C19   C     C_R   0.628407 0.520465 0.071803 -0.143054
C20   C     C_R   0.628415 0.520448 0.928127 -0.139203
H1    H     H_    0.570271 0.114008 0.284170 0.173239
H2    H     H_    0.732642 0.535233 0.125367 0.156413
H3    H     H_    0.732657 0.535178 0.874559 0.156288
H4    H     H_    0.150056 0.414266 0.879310 0.206530
H5    H     H_    0.308573 0.299030 0.878170 0.211992
H6    H     H_    0.150705 0.413179 0.121418 0.206517
H7    H     H_    0.309757 0.298134 0.121334 0.214706
H8    H     H_    0.570468 0.886559 0.284015 0.173644
H9    H     H_    0.310778 0.887251 0.710137 0.203294
H10   H     H_    0.473727 0.887043 0.830520 0.206292
H11   H     H_    0.310761 0.111722 0.710561 0.201031
H12   H     H_    0.473915 0.110824 0.830923 0.205021
N1    N     N_R   0.499010 0.499140 0.142800 -0.107831
N2    N     N_R   0.499010 0.499180 0.857150 -0.107066
O1    O     O_R   0.500020 0.316790 0.614690 -0.615363
O2    O     O_R   0.500000 0.316760 0.385350 -0.623417
O3    O     O_R   0.285350 0.500020 0.614650 -0.617465
O4    O     O_R   0.285340 0.499980 0.385310 -0.613904
O5    O     O_R   0.500000 0.683240 0.614650 -0.616779
O6    O     O_R   0.499980 0.683210 0.385310 -0.622072
O7    O     O_R   0.714660 0.500020 0.614690 -0.624978
O8    O     O_R   0.714650 0.499980 0.385350 -0.625236
Zn1   Zn    Zn3+2 0.500010 0.500020 0.653130 0.939550
Zn2   Zn    Zn3+2 0.499990 0.499980 0.346870 0.939245

loop_
_geom_bond_atom_site_label_1
_geom_bond_atom_site_label_2
_ccdc_geom_bond_type
O3    Zn1   S    
O4    Zn2   S    
C6    C14   S    
C11   C13   A    
C19   C20   A    
C1    C11   S    
C20   H3    S    
C3    H5    S    
C4    C8    S    
C20   N2    A    
C2    N2    A    
C2    C3    S    
C13   H1    S    
C4    O3    A    
O7    Zn1   S    
C3    H4    S    
O8    Zn2   S    
C12   H8    S    
C12   C14   A    
C10   C15   A    
C7    O7    A    
C14   C15   A    
C17   H11   S    
C18   N1    A    
C6    O6    A    
O2    Zn2   S    
C2    C18   A    
C10   C11   A    
C10   C17   S    
C16   H10   S    
C5    H6    S    
O6    Zn2   S    
C19   H2    S    
O1    Zn1   S    
C12   C13   A    
C1    O1    A    
C19   N1    A    
C7    O8    A    
C7    C9    S    
C17   H12   S    
C6    O5    A    
C16   C17   S    
O5    Zn1   S    
C5    C18   S    
C16   H9    S    
C5    H7    S    
N1    Zn2   S    
N2    Zn1   S    
C15   C16   S    
C1    O2    A    
C4    O4    A    
C8    C9    T    
C3    C5    S    
