data_mof_unit_2250.cif
_audit_creation_date              2012-12-11T17:06:31-0500
_audit_creation_method            fapswitch 2.2
_symmetry_space_group_name_H-M    P1
_symmetry_Int_Tables_number       1
_space_group_crystal_system       triclinic
_cell_length_a                    6.973407
_cell_length_b                    14.526295
_cell_length_c                    15.955463
_cell_angle_alpha                 90.553588
_cell_angle_beta                  90.090275
_cell_angle_gamma                 89.923975
_cell_volume                      1616.17394024

loop_
_atom_site_label
_atom_site_type_symbol
_atom_type_description
_atom_site_fract_x
_atom_site_fract_y
_atom_site_fract_z
_atom_type_partial_charge
O1    O     O_R   0.494400 0.415450 0.412630 -0.537547
O2    O     O_R   0.823940 0.405730 0.586760 -0.545340
O3    O     O_R   0.994240 0.584550 0.587370 -0.536251
C1    C     C_R   0.655373 0.383920 0.615482 0.696954
O4    O     O_R   0.824110 0.404430 0.413240 -0.543425
O5    O     O_R   0.994420 0.583240 0.412620 -0.539614
C2    C     C_R   0.655375 0.382141 0.384368 0.690443
O6    O     O_R   0.494230 0.416760 0.587380 -0.537546
O7    O     O_3   0.660800 0.558670 0.500000 -0.367327
V1    V     V_3+5 0.935650 0.489120 0.500000 1.381757
O8    O     O_R   0.324140 0.594270 0.413240 -0.539029
C3    C     C_R   0.154971 0.615978 0.384204 0.691529
O9    O     O_R   0.323960 0.595570 0.586760 -0.541264
C4    C     C_R   0.155248 0.617485 0.615697 0.680867
V2    V     V_3+5 0.435660 0.510880 0.500000 1.392050
O10   O     O_3   0.160640 0.441330 0.500000 -0.373156
C5    C     C_3   0.048806 0.668828 0.771286 -0.142760
C6    C     C_3   0.221984 0.714358 0.816373 -0.142961
H1    H     H_    0.295118 0.687300 0.872877 0.098779
H2    H     H_    0.979386 0.603351 0.789705 0.098109
C7    C     C_3   0.121183 0.808421 0.810520 -0.002527
C8    C     C_3   0.947797 0.763708 0.766254 -0.113627
C9    C     C_3   0.044113 0.780986 0.680387 -0.140409
C10   C     C_3   0.217304 0.826401 0.725472 -0.140526
C11   C     C_3   0.318260 0.731574 0.730498 -0.115345
C12   C     C_3   0.144893 0.686926 0.686186 -0.007089
H3    H     H_    0.794923 0.777212 0.781355 0.106512
H4    H     H_    0.971082 0.808154 0.623901 0.101342
H5    H     H_    0.287972 0.891532 0.707474 0.098472
H6    H     H_    0.471141 0.718122 0.715374 0.106838
C13   C     C_R   0.273048 0.814931 0.239322 0.101660
C14   C     C_R   0.118660 0.815191 0.182972 -0.113674
C15   C     C_R   0.966771 0.753954 0.198945 -0.180695
H7    H     H_    0.844112 0.751731 0.157551 0.133339
C16   C     C_R   0.977645 0.690369 0.265024 -0.180196
H8    H     H_    0.862511 0.641393 0.272615 0.127291
C17   C     C_R   0.141078 0.685775 0.317020 -0.111957
C18   C     C_R   0.284271 0.751741 0.304443 0.102517
C19   C     C_3   0.494413 0.738769 0.292437 -0.409650
C20   C     C_3   0.482287 0.807968 0.221818 -0.399669
H9    H     H_    0.529827 0.667932 0.270487 0.165580
H10   H     H_    0.578793 0.764022 0.347147 0.175408
H11   H     H_    0.511413 0.777487 0.158938 0.169467
H12   H     H_    0.558923 0.873396 0.235857 0.168913
C21   C     C_R   0.486885 0.312135 0.737722 0.041521
C22   C     C_R   0.647503 0.317730 0.685351 -0.103546
C23   C     C_R   0.800204 0.256538 0.700584 -0.187502
H13   H     H_    0.924462 0.256555 0.660335 0.152407
C24   C     C_R   0.787494 0.189831 0.763804 -0.185515
H14   H     H_    0.901791 0.140893 0.771537 0.165568
C25   C     C_R   0.621707 0.181107 0.812759 -0.101920
C26   C     C_R   0.472140 0.242836 0.797522 0.045368
C27   C     C_3   0.268710 0.223772 0.773259 0.138083
C28   C     C_3   0.281371 0.304412 0.712990 -0.381608
H15   H     H_    0.168218 0.236176 0.826200 0.092999
H16   H     H_    0.198090 0.365372 0.734841 0.127086
H17   H     H_    0.261320 0.288924 0.645471 0.180023
C29   C     C_R   0.491616 0.250848 0.309170 0.100040
C30   C     C_R   0.647493 0.310987 0.317343 -0.110199
C31   C     C_R   0.799782 0.299899 0.260250 -0.180783
H18   H     H_    0.922810 0.344838 0.264007 0.130270
C32   C     C_R   0.788238 0.235458 0.193857 -0.181206
H19   H     H_    0.903774 0.231854 0.148843 0.129854
C33   C     C_R   0.623462 0.180725 0.182313 -0.110538
C34   C     C_R   0.479805 0.187370 0.243283 0.099502
C35   C     C_3   0.270202 0.203336 0.232698 -0.413951
C36   C     C_3   0.282998 0.272162 0.304788 -0.397507
H20   H     H_    0.184295 0.141297 0.247875 0.172570
H21   H     H_    0.236314 0.235752 0.171618 0.169519
H22   H     H_    0.205118 0.249759 0.361790 0.172021
H23   H     H_    0.255762 0.344407 0.285662 0.166330
O11   O     O_R   0.771650 0.079500 0.908680 -0.540703
O12   O     O_R   0.441690 0.091800 0.082800 -0.539005
O13   O     O_R   0.271460 0.912980 0.083410 -0.535852
C37   C     C_R   0.610689 0.114153 0.111629 0.696574
O14   O     O_R   0.441930 0.090510 0.909280 -0.547284
O15   O     O_R   0.271690 0.911670 0.908660 -0.539079
C38   C     C_R   0.610367 0.111462 0.879791 0.691315
O16   O     O_R   0.771410 0.080810 0.083440 -0.538560
O17   O     O_3   0.605100 0.937580 0.996050 -0.369011
V3    V     V_3+5 0.330220 0.007110 0.996030 1.384290
O18   O     O_R   0.941980 0.900620 0.909250 -0.541967
C39   C     C_R   0.110757 0.878371 0.880600 0.671002
O19   O     O_R   0.941740 0.901920 0.082770 -0.542396
C40   C     C_R   0.110644 0.880154 0.111734 0.695895
V4    V     V_3+5 0.830220 0.985300 0.996000 1.387903
O20   O     O_3   0.105210 0.054870 0.996020 -0.372452
N1    N     N_2   0.242303 0.133097 0.733855 -0.514159
H24   H     H_    0.242925 0.079438 0.775630 0.258191
C41   C     C_3   0.329160 0.110498 0.653560 -0.535356
H25   H     H_    0.317554 0.035435 0.641377 0.170940
H26   H     H_    0.483037 0.129249 0.652561 0.213975
H27   H     H_    0.251299 0.145110 0.602061 0.190616

loop_
_geom_bond_atom_site_label_1
_geom_bond_atom_site_label_2
_ccdc_geom_bond_type
C35   H20   S    
C6    C7    S    
C16   H8    S    
C1    O6    A    
C23   C24   A    
C1    C22   S    
C21   C22   A    
C17   C18   A    
C5    C12   S    
C16   C17   A    
O14   C38   A    
O5    C3    A    
C18   C19   S    
C35   H21   S    
O15   C39   A    
V2    O10   S    
C5    H2    S    
C13   C20   S    
C31   C32   A    
C6    H1    S    
C9    C12   S    
O12   V3    S    
C3    C17   S    
C10   H5    S    
C32   C33   A    
O8    V2    S    
C20   H11   S    
C13   C14   A    
C24   C25   A    
O17   V4    S    
C9    C10   S    
O1    V2    S    
O7    V1    S    
C35   C36   S    
C30   C31   A    
O9    C4    A    
O12   C37   A    
C6    C11   S    
C2    C30   S    
C15   H7    S    
C19   H10   S    
C27   H15   S    
C28   H16   S    
C25   C26   A    
C7    C39   S    
C10   C11   S    
C19   H9    S    
C19   C20   S    
O4    C2    A    
V4    O20   S    
C21   C26   A    
C29   C30   A    
O18   V4    S    
C4    C12   S    
C31   H18   S    
O2    C1    A    
C32   H19   S    
C29   C34   A    
C41   H26   S    
C23   H13   S    
O15   V3    S    
C5    C6    S    
C9    H4    S    
O19   C40   A    
V3    O20   S    
O3    C4    A    
N1    C41   S    
C21   C28   S    
O18   C39   A    
O6    V2    S    
C8    H3    S    
O9    V2    S    
O13   V3    S    
O2    V1    S    
C26   C27   S    
C41   H27   S    
C11   H6    S    
C22   C23   A    
O1    C2    A    
O19   V4    S    
O17   V3    S    
O14   V3    S    
O5    V1    S    
O11   V4    S    
O8    C3    A    
C27   C28   S    
C5    C8    S    
C13   C18   A    
C36   H22   S    
C14   C15   A    
C11   C12   S    
C25   C38   S    
O4    V1    S    
O3    V1    S    
V1    O10   S    
C33   C34   A    
C41   H25   S    
C14   C40   S    
C15   C16   A    
C33   C37   S    
C27   N1    S    
C36   H23   S    
C34   C35   S    
O13   C40   A    
O7    V2    S    
C29   C36   S    
C20   H12   S    
N1    H24   S    
C24   H14   S    
C7    C10   S    
O11   C38   A    
C8    C9    S    
C7    C8    S    
C37   O16   A    
O16   V4    S    
C28   H17   S    
