data_mof_unit_772.cif
_audit_creation_date              2012-10-26T20:19:17-0400
_audit_creation_method            fapswitch 2.2
_symmetry_space_group_name_H-M    P1
_symmetry_Int_Tables_number       1
_space_group_crystal_system       triclinic
_cell_length_a                    15.088006
_cell_length_b                    13.018064
_cell_length_c                    11.6646
_cell_angle_alpha                 100.506391
_cell_angle_beta                  92.718415
_cell_angle_gamma                 91.277385
_cell_volume                      2249.05783379

loop_
_atom_site_label
_atom_site_type_symbol
_atom_type_description
_atom_site_fract_x
_atom_site_fract_y
_atom_site_fract_z
_atom_type_partial_charge
C1    C     C_R   0.500829 0.298833 0.477561 0.544716
C2    C     C_R   0.479694 0.880280 0.645318 -0.020522
C3    C     C_R   0.490589 0.139746 0.561725 -0.138089
C4    C     C_R   0.506466 0.860187 0.438025 -0.144610
C5    C     C_R   0.491532 0.032155 0.553865 0.034496
C6    C     C_R   0.505410 0.967730 0.445905 0.033612
C7    C     C_R   0.427308 0.387338 0.020570 0.115517
C8    C     C_R   0.573152 0.612630 0.979487 0.117090
C9    C     C_R   0.432175 0.402160 0.144197 0.098957
C10   C     C_R   0.567141 0.598549 0.855805 0.099946
C11   C     C_R   0.530237 0.548727 0.157881 0.044979
C12   C     C_R   0.498373 0.701116 0.522457 0.532488
C13   C     C_R   0.471851 0.449862 0.842353 0.037955
C14   C     C_R   0.526262 0.541037 0.034781 -0.005655
C15   C     C_R   0.474969 0.458397 0.965444 -0.004911
C16   C     C_R   0.328878 0.495344 0.500837 0.575616
C17   C     C_R   0.671182 0.503386 0.499106 0.563461
C18   C     C_R   0.814408 0.578568 0.444480 0.141825
C19   C     C_R   0.184873 0.416120 0.544770 0.138590
C20   C     C_R   0.767839 0.507037 0.498366 0.009358
C21   C     C_R   0.232527 0.495422 0.504637 0.013995
C22   C     C_R   0.812887 0.438086 0.555974 -0.159952
C23   C     C_R   0.042830 0.357145 0.614012 0.128356
C24   C     C_R   0.188846 0.576002 0.465208 -0.158721
C25   C     C_R   0.905323 0.434402 0.558040 -0.031111
C26   C     C_R   0.096276 0.580492 0.463911 -0.030422
C27   C     C_R   0.953873 0.508142 0.508409 -0.020808
C28   C     C_R   0.047358 0.504837 0.510125 -0.020908
C29   C     C_R   0.908775 0.584738 0.456701 0.043612
C30   C     C_R   0.092011 0.425076 0.556651 0.044220
C31   C     C_R   0.949773 0.359987 0.611556 0.001165
C32   C     C_R   0.052332 0.661126 0.420719 0.001253
C33   C     C_3   0.714905 0.721829 0.422214 -0.263997
C34   C     C_R   0.959276 0.665632 0.420879 0.127534
C35   C     C_3   0.282486 0.313557 0.652440 -0.257182
C36   C     C_3   0.313194 0.243142 0.004361 -0.319051
C37   C     C_3   0.684924 0.759239 0.994798 -0.310388
C38   C     C_1   0.900698 0.286570 0.666593 0.173928
C39   C     C_1   0.102232 0.742007 0.378290 0.175935
C40   C     C_3   0.101358 0.339816 0.805202 -0.294805
C41   C     C_3   0.916716 0.841584 0.495085 -0.294349
C42   C     C_1   0.462463 0.839821 0.749797 0.211540
C43   C     C_1   0.535760 0.159826 0.250110 0.212492
C44   C     C_R   0.494911 0.815224 0.536877 -0.016745
C45   C     C_R   0.503100 0.184675 0.463046 -0.009444
C46   C     C_R   0.518705 0.011525 0.347129 -0.132438
C47   C     C_R   0.478411 0.988284 0.652662 -0.131514
C48   C     C_R   0.518100 0.119524 0.354572 -0.020405
Cu1   Cu    Cu3+1 0.506660 0.507730 0.615930 0.946338
Cu2   Cu    Cu3+1 0.493340 0.492270 0.384070 0.965068
H1    H     H_    0.774081 0.384388 0.595905 0.146160
H2    H     H_    0.397144 0.349526 0.189191 0.138353
H3    H     H_    0.793579 0.641732 0.291253 0.274020
H4    H     H_    0.743458 0.796452 0.405289 0.150448
H5    H     H_    0.711467 0.726184 0.517992 0.136149
H6    H     H_    0.647222 0.712546 0.381138 0.152308
H7    H     H_    0.190950 0.252492 0.513904 0.267342
H8    H     H_    0.258045 0.249280 0.694632 0.150991
H9    H     H_    0.283953 0.387827 0.717056 0.169467
H10   H     H_    0.350289 0.294890 0.625761 0.154000
H11   H     H_    0.412314 0.256053 0.887996 0.243562
H12   H     H_    0.228477 0.634564 0.433841 0.141089
H13   H     H_    0.273385 0.189353 0.935096 0.142441
H14   H     H_    0.267075 0.297004 0.054996 0.150455
H15   H     H_    0.347814 0.195605 0.061632 0.160123
H16   H     H_    0.588843 0.742383 0.114034 0.242120
H17   H     H_    0.725254 0.812857 0.063661 0.150156
H18   H     H_    0.648220 0.807021 0.939686 0.153178
H19   H     H_    0.730875 0.707022 0.941715 0.151626
H20   H     H_    0.061819 0.216774 0.671267 0.257066
H21   H     H_    0.141461 0.287771 0.851101 0.139445
H22   H     H_    0.036917 0.351879 0.847215 0.156982
H23   H     H_    0.517010 0.811568 0.354173 0.112494
H24   H     H_    0.137891 0.416170 0.814241 0.162761
H25   H     H_    0.938109 0.780834 0.321541 0.258178
H26   H     H_    0.879669 0.907557 0.470058 0.143364
H27   H     H_    0.985457 0.869895 0.524863 0.156879
H28   H     H_    0.883320 0.815360 0.568114 0.158251
H29   H     H_    0.479774 0.188451 0.645444 0.110343
H30   H     H_    0.530280 0.961518 0.264323 0.109832
H31   H     H_    0.466749 0.038237 0.735467 0.109432
H32   H     H_    0.433479 0.387919 0.787290 0.119892
H33   H     H_    0.571505 0.608335 0.213175 0.139634
H34   H     H_    0.601205 0.651922 0.810779 0.134480
N1    N     N_R   0.516670 0.519360 0.790130 -0.255309
N2    N     N_2   0.917572 0.756772 0.395760 -0.523337
N3    N     N_1   0.448445 0.807910 0.833721 -0.300429
N4    N     N_1   0.550096 0.191606 0.166202 -0.296766
N5    N     N_R   0.483330 0.480640 0.209870 -0.258168
N6    N     N_2   0.766406 0.634991 0.369092 -0.489844
N7    N     N_2   0.227160 0.319850 0.549464 -0.511334
N8    N     N_2   0.377121 0.301549 0.950906 -0.550461
N9    N     N_2   0.623302 0.698523 0.049044 -0.538207
N10   N     N_1   0.861663 0.228046 0.710443 -0.311514
N11   N     N_1   0.141950 0.806496 0.344521 -0.306752
N12   N     N_2   0.087188 0.292412 0.683202 -0.520697
O1    O     O_R   0.504720 0.354460 0.582000 -0.524580
O2    O     O_R   0.495280 0.645540 0.418000 -0.524412
O3    O     O_R   0.493480 0.341410 0.386200 -0.494137
O4    O     O_R   0.506520 0.658590 0.613800 -0.497381
O5    O     O_R   0.375880 0.506510 0.597910 -0.496167
O6    O     O_R   0.624120 0.493490 0.402090 -0.468857
O7    O     O_R   0.364640 0.493450 0.402110 -0.506118
O8    O     O_R   0.635360 0.506550 0.597890 -0.516567

loop_
_geom_bond_atom_site_label_1
_geom_bond_atom_site_label_2
_ccdc_geom_bond_type
C25   C31   A    
C10   N1    A    
C26   C32   A    
C16   C21   S    
C40   H21   S    
C37   H19   S    
C27   C29   A    
C3    H29   S    
C1    O3    A    
Cu1   O8    S    
C41   N2    S    
C5    C47   A    
Cu2   O3    S    
C35   H8    S    
C43   N4    T    
C19   C21   A    
C17   O8    A    
C24   C26   A    
C41   H27   S    
C5    C6    A    
C11   C14   A    
C37   H18   S    
C37   H17   S    
C17   C20   S    
C23   N12   S    
C35   H9    S    
C34   N2    S    
C32   C39   S    
Cu2   N5    S    
C2    C44   A    
C22   C25   A    
C24   H12   S    
C36   H13   S    
H7    N7    S    
C43   C48   S    
C12   O2    A    
H11   N8    S    
C36   N8    S    
C33   H6    S    
C7    C15   A    
Cu2   O7    S    
C40   H22   S    
C9    H2    S    
C40   N12   S    
C46   C48   A    
Cu2   O2    S    
C18   N6    S    
C23   C30   A    
Cu1   N1    S    
C4    C6    A    
C9    N5    A    
C41   H28   S    
C36   H15   S    
C4    C44   A    
C11   H33   S    
C29   C34   A    
C3    C45   A    
C35   H10   S    
C32   C34   A    
H20   N12   S    
C17   O6    A    
C11   N5    A    
C16   O7    A    
C38   N10   T    
C37   N9    S    
C33   H5    S    
C18   C29   A    
C39   N11   T    
C4    H23   S    
H16   N9    S    
C20   C22   A    
Cu2   O6    S    
C13   C15   A    
C1    O1    A    
H3    N6    S    
C45   C48   A    
C33   H4    S    
C7    C9    A    
C8    C14   A    
C6    C46   A    
C8    N9    S    
C3    C5    A    
C2    C47   A    
C25   C27   A    
C26   C28   A    
C31   C38   S    
C28   C30   A    
C12   C44   S    
C33   N6    S    
Cu1   O4    S    
C46   H30   S    
C1    C45   S    
C2    C42   S    
C7    N8    S    
C13   H32   S    
C10   H34   S    
C40   H24   S    
C18   C20   A    
C47   H31   S    
C12   O4    A    
C19   N7    S    
Cu1   O1    S    
C16   O5    A    
C8    C10   A    
Cu1   Cu2   S    
C21   C24   A    
C13   N1    A    
C27   C28   A    
C14   C15   A    
H25   N2    S    
C42   N3    T    
C36   H14   S    
C19   C30   A    
Cu1   O5    S    
C23   C31   A    
C22   H1    S    
C41   H26   S    
C35   N7    S    
