data_mof_unit_1000.cif
_audit_creation_date              2012-10-26T20:03:19-0400
_audit_creation_method            fapswitch 2.2
_symmetry_space_group_name_H-M    P1
_symmetry_Int_Tables_number       1
_space_group_crystal_system       triclinic
_cell_length_a                    10.702415
_cell_length_b                    12.486521
_cell_length_c                    13.300242
_cell_angle_alpha                 117.297086
_cell_angle_beta                  73.842814
_cell_angle_gamma                 101.826404
_cell_volume                      1510.83629915

loop_
_atom_site_label
_atom_site_type_symbol
_atom_type_description
_atom_site_fract_x
_atom_site_fract_y
_atom_site_fract_z
_atom_type_partial_charge
Br1   Br    Br    0.533975 0.984016 0.110938 -0.214289
Br2   Br    Br    0.638689 0.785577 0.841718 -0.368719
Br3   Br    Br    0.752980 0.268160 0.128348 -0.447215
Br4   Br    Br    0.004601 0.923375 0.227003 -0.539506
Br5   Br    Br    0.829331 0.797478 0.586883 -0.437339
Br6   Br    Br    0.424090 0.022608 0.899156 -0.265240
Br7   Br    Br    0.336332 0.220152 0.167314 -0.416188
C1    C     C_R   0.500506 0.856347 0.288265 0.550648
C2    C     C_R   0.480703 0.565778 0.014880 -0.008371
C3    C     C_R   0.445251 0.649615 0.132291 -0.022464
C4    C     C_R   0.741573 0.997671 0.495614 0.586088
C5    C     C_R   0.454311 0.439315 0.984865 0.007211
C6    C     C_R   0.400342 0.398597 0.072719 0.028674
C7    C     C_R   0.352993 0.482907 0.185220 -0.130471
C8    C     C_R   0.369509 0.605344 0.212758 -0.114059
C9    C     C_R   0.477825 0.352407 0.869649 -0.176371
C10   C     C_R   0.426256 0.189300 0.929759 0.216866
C11   C     C_R   0.487711 0.774998 0.166108 -0.038423
C12   C     C_3   0.006711 0.030332 0.610513 -0.193218
C13   C     C_R   0.663020 0.311760 0.288448 0.168458
C14   C     C_R   0.325715 0.763022 0.653984 0.452786
C15   C     C_R   0.300444 0.675457 0.697635 0.259554
C16   C     C_R   0.481975 0.145007 0.714657 0.540930
C17   C     C_R   0.363279 0.569347 0.635036 -0.152063
C18   C     C_R   0.457601 0.550960 0.532740 -0.072306
C19   C     C_R   0.491025 0.647601 0.496105 0.153231
C20   C     C_R   0.520676 0.439861 0.466945 -0.025778
C21   C     C_R   0.601844 0.419613 0.357616 -0.026415
C22   C     C_R   0.630554 0.510131 0.320891 -0.120636
C23   C     C_3   0.928901 0.917259 0.534488 0.154812
C24   C     C_R   0.589579 0.626398 0.390973 0.319435
C25   C     C_R   0.506285 0.346148 0.503530 0.023059
C26   C     C_R   0.656901 0.231127 0.335410 0.473022
C27   C     C_R   0.259167 0.003044 0.505290 0.576413
C28   C     C_3   0.998889 0.970107 0.388497 0.120043
C29   C     C_3   0.046019 0.892465 0.431124 0.272120
C30   C     C_3   0.122410 0.004051 0.506379 0.034385
C31   C     C_3   0.074297 0.082587 0.466513 0.272896
C32   C     C_3   0.957072 0.110081 0.570760 -0.191350
C33   C     C_3   0.032191 0.690215 0.299582 -0.100323
C34   C     C_3   0.880040 0.996330 0.493497 -0.037270
C35   C     C_3   0.857619 0.162627 0.274512 -0.054200
C36   C     C_3   0.126391 0.827858 0.691946 -0.037233
C37   C     C_3   0.260778 0.702665 0.885501 -0.047625
C38   C     C_3   0.719230 0.694250 0.250428 -0.092991
C39   C     C_3   0.104182 0.250691 0.426729 -0.067528
C40   C     C_R   0.391499 0.274348 0.045684 0.192634
C41   C     C_R   0.462885 0.228254 0.840074 -0.030185
C42   C     C_R   0.530969 0.817234 0.078759 0.194810
C43   C     C_R   0.563690 0.734577 0.962965 0.153213
C44   C     C_R   0.545514 0.611357 0.932520 -0.154907
Cu1   Cu    Cu3+1 0.529830 0.098270 0.475420 1.065175
Cu2   Cu    Cu3+1 0.470170 0.901730 0.524580 1.111113
H1    H     H_    0.503481 0.379873 0.800391 0.135161
H2    H     H_    0.032460 0.699817 0.220780 0.166308
H3    H     H_    0.931669 0.681587 0.349191 0.175697
H4    H     H_    0.074849 0.604310 0.270341 0.133916
H5    H     H_    0.915530 0.102980 0.190496 0.223949
H6    H     H_    0.877804 0.148765 0.344435 0.146552
H7    H     H_    0.892529 0.257639 0.287173 0.078624
H8    H     H_    0.068671 0.776730 0.741840 0.193824
H9    H     H_    0.123886 0.774455 0.598494 0.138329
H10   H     H_    0.076705 0.910425 0.724717 0.160776
H11   H     H_    0.339537 0.778118 0.902333 0.207479
H12   H     H_    0.582142 0.554327 0.842901 0.142018
H13   H     H_    0.298080 0.617151 0.866525 0.098119
H14   H     H_    0.184398 0.725331 0.966317 0.187427
H15   H     H_    0.652033 0.634130 0.192726 0.122194
H16   H     H_    0.811885 0.652735 0.221413 0.097479
H17   H     H_    0.742811 0.779723 0.240084 0.178839
H18   H     H_    0.009891 0.275240 0.489681 0.079306
H19   H     H_    0.091501 0.215303 0.336932 0.174410
H20   H     H_    0.169921 0.335527 0.443898 0.151707
H21   H     H_    0.321509 0.664315 0.298414 0.188197
H22   H     H_    0.700519 0.493681 0.241121 0.148959
H23   H     H_    0.441589 0.350314 0.583089 0.124371
H24   H     H_    0.332392 0.500644 0.666644 0.119534
H25   H     H_    0.917646 0.199023 0.628947 0.139512
H26   H     H_    0.012228 0.058388 0.701326 0.154994
H27   H     H_    0.300223 0.455649 0.253084 0.145007
N1    N     N_R   0.575030 0.246270 0.438190 -0.253826
N2    N     N_R   0.425760 0.754330 0.561190 -0.246322
O1    O     O_R   0.537510 0.972500 0.318130 -0.408581
O2    O     O_3   0.724058 0.129440 0.272445 -0.476971
O3    O     O_3   0.255430 0.863337 0.709864 -0.503009
O4    O     O_3   0.204152 0.689495 0.796102 -0.571781
O5    O     O_3   0.663262 0.721478 0.368797 -0.508974
O6    O     O_3   0.165990 0.167220 0.435502 -0.496569
O7    O     O_R   0.487140 0.806530 0.359650 -0.500590
O8    O     O_R   0.708330 0.082950 0.479220 -0.514108
O9    O     O_R   0.657960 0.916980 0.520740 -0.390844
O10   O     O_R   0.512860 0.193470 0.640350 -0.548514
O11   O     O_R   0.462490 0.027500 0.681870 -0.418319
O12   O     O_R   0.342040 0.083020 0.479260 -0.453746
O13   O     O_R   0.291670 0.917050 0.520780 -0.495064
O14   O     O_3   0.111179 0.785645 0.366976 -0.570361

loop_
_geom_bond_atom_site_label_1
_geom_bond_atom_site_label_2
_ccdc_geom_bond_type
Cu2   O13   S    
C27   C30   S    
Cu1   O8    S    
C28   C29   S    
C2    C44   A    
C10   C41   A    
C35   H5    S    
C36   H10   S    
C32   C34   S    
C37   H11   S    
C25   N1    A    
C29   C30   S    
C38   O5    S    
C3    C8    A    
C31   C32   S    
C1    O1    A    
C44   H12   S    
Br2   C43   S    
C37   H13   S    
C5    C9    A    
C33   H3    S    
Cu2   O9    S    
C23   C34   S    
Cu1   O12   S    
C33   H4    S    
C7    H27   S    
C12   C30   S    
C2    C3    A    
C39   H19   S    
C20   C25   A    
Br4   C28   S    
C19   C24   A    
C19   N2    A    
C14   C15   A    
C9    C41   A    
C33   O14   S    
C37   O4    S    
C26   O2    S    
C39   O6    S    
C14   O3    S    
C24   O5    S    
C38   H16   S    
C36   O3    S    
C32   H25   S    
C10   C40   A    
C28   C31   S    
C35   O2    S    
C27   O13   A    
C35   H7    S    
C6    C40   A    
C13   C21   A    
C18   C19   A    
Cu2   O11   S    
C1    C11   S    
C16   O11   A    
C31   O6    S    
Cu2   N2    S    
Br7   C40   S    
Cu1   O1    S    
C30   C31   S    
C29   O14   S    
C33   H2    S    
C38   H15   S    
C43   C44   A    
Br3   C13   S    
C17   C18   A    
C12   H26   S    
C39   H18   S    
C12   C32   S    
C13   C26   A    
Cu2   O7    S    
C15   C17   A    
Cu1   O10   S    
Cu1   Cu2   S    
C36   H8    S    
Br5   C23   S    
Br6   C10   S    
C21   C22   A    
C16   C41   S    
C38   H17   S    
C7    C8    A    
C27   O12   A    
C35   H6    S    
C25   H23   S    
C22   H22   S    
C18   C20   A    
C23   C29   S    
C22   C24   A    
C14   N2    A    
C4    O8    A    
C26   N1    A    
C3    C11   A    
C4    C34   S    
C15   O4    S    
Cu1   N1    S    
C28   C34   S    
C2    C5    A    
C9    H1    S    
C4    O9    A    
C17   H24   S    
C8    H21   S    
C5    C6    A    
C11   C42   A    
C42   C43   A    
C20   C21   A    
C16   O10   A    
C37   H14   S    
C1    O7    A    
C6    C7    A    
C12   C23   S    
Br1   C42   S    
C39   H20   S    
C36   H9    S    
