data_mof_unit_1015.cif
_audit_creation_date              2012-12-10T18:45:10-0500
_audit_creation_method            fapswitch 2.2
_symmetry_space_group_name_H-M    P1
_symmetry_Int_Tables_number       1
_space_group_crystal_system       triclinic
_cell_length_a                    10.78212
_cell_length_b                    9.807534
_cell_length_c                    10.67079
_cell_angle_alpha                 87.731472
_cell_angle_beta                  89.61267
_cell_angle_gamma                 90.34293
_cell_volume                      1127.46127459

loop_
_atom_site_label
_atom_site_type_symbol
_atom_type_description
_atom_site_fract_x
_atom_site_fract_y
_atom_site_fract_z
_atom_type_partial_charge
C1    C     C_R   0.259570 0.499988 0.500404 1.024617
C2    C     C_R   0.493389 0.496993 0.740646 1.002476
C3    C     C_R   0.490741 0.766596 0.092478 0.684555
C4    C     C_R   0.349605 0.692142 0.886204 0.598099
C5    C     C_R   0.407417 0.860083 0.034621 -0.249022
C6    C     C_R   0.333546 0.820425 0.935811 -0.275219
C7    C     C_R   0.440973 0.603328 0.937462 -0.177958
C8    C     C_R   0.489457 0.629161 0.054644 -0.143386
C9    C     C_R   0.533682 0.514526 0.126069 -0.296839
C10   C     C_R   0.487962 0.490917 0.874902 -0.327193
C11   C     C_R   0.570467 0.396457 0.066776 0.545136
C12   C     C_R   0.740164 0.501415 0.493013 1.001920
C13   C     C_R   0.553422 0.387734 0.939894 0.548794
C14   C     C_R   0.063384 0.388083 0.451858 0.508276
C15   C     C_R   0.936275 0.388943 0.448252 0.536291
C16   C     C_R   0.872651 0.507004 0.479202 -0.471724
C17   C     C_R   0.126981 0.502772 0.493059 -0.473136
C18   C     C_3   0.634726 0.932831 0.142080 -0.214867
C19   C     C_3   0.182400 0.560919 0.845579 -0.223718
C20   C     C_3   0.854392 0.817078 0.403433 -0.163584
C21   C     C_3   0.134402 0.847692 0.519549 0.021216
C22   C     C_R   0.937244 0.629513 0.501855 0.363312
C23   C     C_R   0.064192 0.623937 0.520294 0.336279
C24   C     C_R   0.571310 0.068969 0.582941 0.504592
C25   C     C_R   0.429961 0.075098 0.415951 0.485119
C26   C     C_R   0.570798 0.924873 0.583440 0.465587
C27   C     C_R   0.430894 0.931134 0.415304 0.424107
C28   C     C_R   0.513785 0.503954 0.259947 0.938695
F1    F     F_    0.625189 0.291105 0.131335 -0.620780
F2    F     F_    0.600656 0.278881 0.881420 -0.565139
F3    F     F_    0.123369 0.273427 0.418551 -0.567577
F4    F     F_    0.875945 0.274194 0.414286 -0.581874
F5    F     F_    0.644037 0.134320 0.664674 -0.518024
F6    F     F_    0.359167 0.146295 0.332175 -0.552843
F7    F     F_    0.642228 0.853530 0.666572 -0.556686
F8    F     F_    0.361854 0.865893 0.330498 -0.625742
H1    H     H_    0.398407 0.962811 0.066729 0.216420
H2    H     H_    0.796063 0.754450 0.341971 0.167453
H3    H     H_    0.941961 0.843460 0.352634 0.118242
H4    H     H_    0.147571 0.834373 0.417236 0.163932
H5    H     H_    0.216998 0.901944 0.554142 0.150240
H6    H     H_    0.054191 0.914426 0.537779 0.198041
H7    H     H_    0.265798 0.890277 0.895788 0.197739
H8    H     H_    0.575834 0.019335 0.169458 0.228459
H9    H     H_    0.656618 0.939930 0.039798 0.208491
H10   H     H_    0.723745 0.942201 0.192274 0.177326
H11   H     H_    0.126733 0.610200 0.919319 0.171986
H12   H     H_    0.225847 0.465878 0.884451 0.142869
H13   H     H_    0.117442 0.530214 0.771718 0.207992
H14   H     H_    0.804459 0.913584 0.418939 0.205828
N1    N     N_R   0.500000 0.857200 0.500000 -0.237417
N2    N     N_R   0.500000 0.142810 0.500000 -0.252584
O1    O     O_R   0.316770 0.614620 0.499990 -0.559711
O2    O     O_3   0.271688 0.652196 0.792049 -0.581404
O3    O     O_3   0.876316 0.750745 0.521446 -0.514764
O4    O     O_3   0.122549 0.723015 0.589006 -0.548107
O5    O     O_R   0.683230 0.614620 0.500010 -0.570920
O6    O     O_R   0.316800 0.385290 0.500000 -0.559300
O7    O     O_R   0.683200 0.385290 0.500000 -0.525466
O8    O     O_R   0.500010 0.614690 0.316770 -0.565063
O9    O     O_R   0.499990 0.614690 0.683230 -0.556032
O10   O     O_R   0.500040 0.385360 0.316770 -0.530025
O11   O     O_R   0.499960 0.385360 0.683230 -0.562329
O12   O     O_3   0.578236 0.807094 0.179185 -0.615216
Zn1   Zn    Zn3+2 0.500000 0.653120 0.500000 1.097784
Zn2   Zn    Zn3+2 0.500000 0.346880 0.500000 1.141775

loop_
_geom_bond_atom_site_label_1
_geom_bond_atom_site_label_2
_ccdc_geom_bond_type
C24   N2    A    
C21   O4    S    
C16   C22   A    
C22   O3    S    
C18   H8    S    
C27   F8    S    
C7    C10   A    
C20   H2    S    
C19   H13   S    
C1    C17   S    
C24   F5    S    
C14   C15   A    
C2    O9    A    
C14   F3    S    
O5    Zn1   S    
O1    Zn1   S    
C28   O8    A    
C25   N2    A    
C15   F4    S    
C1    O6    A    
C9    C11   A    
C14   C17   A    
C18   O12   S    
C17   C23   A    
C21   H4    S    
C4    C7    A    
C21   H5    S    
C12   O5    A    
C18   H10   S    
C19   O2    S    
C27   N1    A    
O8    Zn1   S    
C3    C8    A    
C5    H1    S    
C6    H7    S    
C20   O3    S    
O7    Zn2   S    
C5    C6    A    
C19   H11   S    
O11   Zn2   S    
C26   N1    A    
C25   C27   A    
C15   C16   A    
O10   Zn2   S    
C21   H6    S    
C2    C10   S    
C18   H9    S    
O9    Zn1   S    
C13   F2    S    
C11   C13   A    
C25   F6    S    
N2    Zn2   S    
C2    O11   A    
C11   F1    S    
C4    C6    A    
C7    C8    A    
N1    Zn1   S    
C23   O4    S    
C26   F7    S    
C20   H3    S    
C1    O1    A    
C19   H12   S    
C20   H14   S    
C4    O2    S    
C3    O12   S    
C12   O7    A    
O6    Zn2   S    
C22   C23   A    
C12   C16   S    
C9    C28   S    
C24   C26   A    
C8    C9    A    
C3    C5    A    
C10   C13   A    
C28   O10   A    
