data_mof_unit_2696.cif
_audit_creation_date              2012-12-11T14:22:57-0500
_audit_creation_method            fapswitch 2.2
_symmetry_space_group_name_H-M    P1
_symmetry_Int_Tables_number       1
_space_group_crystal_system       triclinic
_cell_length_a                    11.1734
_cell_length_b                    11.115988
_cell_length_c                    18.661868
_cell_angle_alpha                 90.846418
_cell_angle_beta                  90.322602
_cell_angle_gamma                 59.778483
_cell_volume                      2002.61320902

loop_
_atom_site_label
_atom_site_type_symbol
_atom_type_description
_atom_site_fract_x
_atom_site_fract_y
_atom_site_fract_z
_atom_type_partial_charge
C1    C     C_R   0.230064 0.649150 0.607316 0.574709
C2    C     C_3   0.659208 0.598857 0.803263 -0.202636
C3    C     C_3   0.725795 0.690403 0.807457 0.027369
C4    C     C_3   0.680535 0.654416 0.673323 0.067998
C5    C     C_3   0.835049 0.611094 0.684300 -0.269966
C6    C     C_3   0.648314 0.563900 0.724308 0.023885
C7    C     C_R   0.693876 0.140187 0.819526 -0.008090
C8    C     C_R   0.795721 0.156308 0.783329 -0.024787
C9    C     C_R   0.800510 0.151189 0.706310 0.008593
C10   C     C_R   0.595499 0.128764 0.706229 -0.187824
C11   C     C_R   0.590490 0.135790 0.779261 -0.175865
C12   C     C_R   0.655988 0.624282 0.599180 0.552417
C13   C     C_R   0.880361 0.195061 0.821447 -0.136495
C14   C     C_R   0.967774 0.227641 0.785280 -0.211609
C15   C     C_R   0.980689 0.211175 0.711511 -0.130684
C16   C     C_R   0.909274 0.160694 0.671960 0.269705
C17   C     C_R   0.688645 0.150720 0.668654 0.018607
C18   C     C_R   0.156252 0.680189 0.829184 -0.007204
C19   C     C_R   0.180885 0.557033 0.792454 -0.010404
C20   C     C_R   0.170958 0.558605 0.716758 -0.025195
C21   C     C_R   0.140831 0.790607 0.716374 -0.151941
C22   C     C_R   0.136399 0.795274 0.789780 -0.170995
C23   C     C_R   0.632494 0.223696 0.600649 0.582119
C24   C     C_R   0.219623 0.431366 0.828172 -0.132542
C25   C     C_R   0.244607 0.312202 0.789834 -0.136226
C26   C     C_R   0.229703 0.315186 0.715411 0.132293
C27   C     C_R   0.178599 0.442543 0.681069 -0.063590
C28   C     C_R   0.165321 0.671232 0.678661 0.002897
C29   C     C_R   0.645540 0.665648 0.165989 -0.016724
C30   C     C_R   0.738035 0.544086 0.202335 0.040791
C31   C     C_R   0.763272 0.556362 0.274900 0.042909
C32   C     C_R   0.543326 0.769592 0.281863 -0.143017
C33   C     C_R   0.544520 0.778707 0.206776 -0.148955
C34   C     C_R   0.216399 0.650864 0.403562 0.551729
C35   C     C_R   0.822570 0.417435 0.166074 -0.078787
C36   C     C_R   0.948339 0.321750 0.195446 -0.133901
C37   C     C_R   0.985537 0.348449 0.262632 -0.147298
C38   C     C_R   0.894474 0.463917 0.302388 -0.082046
C39   C     C_R   0.655789 0.658776 0.317268 -0.010062
C40   C     C_R   0.649208 0.173080 0.174482 -0.014450
C41   C     C_R   0.536873 0.186028 0.213270 0.040115
C42   C     C_R   0.557280 0.148322 0.285338 0.042724
C43   C     C_R   0.758004 0.175568 0.286227 -0.141972
C44   C     C_R   0.760950 0.167488 0.212082 -0.141758
C45   C     C_R   0.642274 0.623728 0.392083 0.525147
C46   C     C_R   0.409458 0.223975 0.181362 -0.080994
C47   C     C_R   0.316876 0.197857 0.216324 -0.145219
C48   C     C_R   0.350125 0.134254 0.283469 -0.145448
C49   C     C_R   0.470431 0.108051 0.317546 -0.078543
C50   C     C_R   0.655740 0.165083 0.324003 -0.010570
C51   C     C_R   0.142136 0.675907 0.187507 -0.010301
C52   C     C_R   0.148623 0.779490 0.228886 0.046830
C53   C     C_R   0.107962 0.796387 0.300511 0.033688
C54   C     C_R   0.144788 0.563339 0.298052 -0.145724
C55   C     C_R   0.136701 0.568379 0.223273 -0.145637
C56   C     C_R   0.619038 0.226173 0.395919 0.545797
C57   C     C_R   0.190659 0.868896 0.201254 -0.079412
C58   C     C_R   0.165264 0.986388 0.239688 -0.147891
C59   C     C_R   0.100564 0.016172 0.306503 -0.133255
C60   C     C_R   0.068624 0.922803 0.336382 -0.078190
C61   C     C_R   0.136757 0.676670 0.337167 -0.011299
C62   C     C_R   0.703435 0.098385 0.895086 0.528647
C63   C     C_R   0.753881 0.709127 0.883102 0.552056
C64   C     C_R   0.113854 0.707808 0.904444 0.530689
C65   C     C_R   0.674566 0.110234 0.102915 0.538021
C66   C     C_R   0.693108 0.688710 0.096150 0.546186
C67   C     C_3   0.627064 0.831239 0.771660 -0.249574
C68   C     C_R   0.093018 0.709458 0.113339 0.539451
C69   C     C_3   0.591881 0.809937 0.694243 -0.248914
C70   C     C_3   0.862702 0.622206 0.764398 -0.251249
Cr1   Cr    Cr6+3 0.392940 0.397950 0.502230 0.987471
Cr2   Cr    Cr6+3 0.398400 0.708500 0.501260 1.028313
Cr3   Cr    Cr6+3 0.708640 0.393530 0.496460 1.112003
Cr4   Cr    Cr6+3 0.937880 0.938320 0.007620 0.997443
Cr5   Cr    Cr6+3 0.625560 0.937220 0.994510 0.998752
Cr6   Cr    Cr6+3 0.938080 0.625010 0.001190 0.997409
H1    H     H_    0.685119 0.886772 0.770081 0.141987
H2    H     H_    0.729219 0.453575 0.714176 0.162195
H3    H     H_    0.935416 0.516968 0.785338 0.151942
H4    H     H_    0.904953 0.502049 0.665955 0.135115
H5    H     H_    0.518000 0.116262 0.678581 0.185929
H6    H     H_    0.870245 0.214421 0.878574 0.147880
H7    H     H_    0.510694 0.123065 0.803804 0.154739
H8    H     H_    0.025246 0.266379 0.814727 0.131584
H9    H     H_    0.044757 0.240235 0.683988 0.172326
H10   H     H_    0.135121 0.878365 0.689904 0.218194
H11   H     H_    0.529356 0.893603 0.802504 0.135135
H12   H     H_    0.240090 0.420714 0.885061 0.139705
H13   H     H_    0.115903 0.891852 0.815460 0.163298
H14   H     H_    0.278388 0.216226 0.818287 0.097437
H15   H     H_    0.145101 0.451140 0.626156 0.125188
H16   H     H_    0.456892 0.849436 0.312157 0.143320
H17   H     H_    0.796954 0.398003 0.112656 0.120309
H18   H     H_    0.469098 0.873781 0.181030 0.142315
H19   H     H_    0.017046 0.230521 0.164228 0.097886
H20   H     H_    0.083223 0.280666 0.285779 0.103144
H21   H     H_    0.479469 0.846838 0.690091 0.139710
H22   H     H_    0.928364 0.481317 0.353984 0.131571
H23   H     H_    0.833132 0.193106 0.313756 0.157978
H24   H     H_    0.382493 0.271011 0.128953 0.124610
H25   H     H_    0.851855 0.152627 0.184343 0.153557
H26   H     H_    0.222527 0.224508 0.188792 0.100061
H27   H     H_    0.283527 0.107585 0.311619 0.099505
H28   H     H_    0.492870 0.060819 0.369936 0.124371
H29   H     H_    0.163011 0.469770 0.324738 0.141170
H30   H     H_    0.243376 0.848524 0.150162 0.128364
H31   H     H_    0.129320 0.488021 0.193641 0.145580
H32   H     H_    0.614001 0.873272 0.656848 0.118199
H33   H     H_    0.195202 0.053113 0.215841 0.101950
H34   H     H_    0.079626 0.107410 0.337332 0.111828
H35   H     H_    0.025350 0.942968 0.390024 0.160677
H36   H     H_    0.910785 0.688042 0.770527 0.134522
H37   H     H_    0.860832 0.678936 0.652421 0.129416
H38   H     H_    0.721482 0.500271 0.832897 0.126934
H39   H     H_    0.555183 0.655551 0.829104 0.139440
O1    O     O_R   0.507340 0.255690 0.581430 -0.551675
O2    O     O_R   0.524510 0.695820 0.424050 -0.513147
O3    O     O_R   0.736370 0.504260 0.414810 -0.517128
O4    O     O_R   0.691220 0.277270 0.422180 -0.474614
O5    O     O_3   0.499990 0.499990 0.499980 -0.259468
O6    O     O_R   0.089570 0.825450 0.930590 -0.524052
O7    O     O_R   0.818700 0.054260 0.929860 -0.510695
O8    O     O_R   0.606310 0.077010 0.915520 -0.541463
O9    O     O_R   0.646730 0.806540 0.917560 -0.512250
O10   O     O_R   0.837290 0.593240 0.915240 -0.531985
O11   O     O_R   0.065320 0.635310 0.931580 -0.524224
O12   O     O_R   0.280360 0.527380 0.578910 -0.530505
O13   O     O_R   0.068470 0.828620 0.091850 -0.523572
O14   O     O_R   0.799150 0.057200 0.079350 -0.505600
O15   O     O_R   0.585220 0.080180 0.076770 -0.519718
O16   O     O_R   0.627170 0.809480 0.067050 -0.494497
O17   O     O_R   0.816200 0.596410 0.076500 -0.515256
O18   O     O_R   0.045770 0.638240 0.081070 -0.501324
O19   O     O_3   0.833840 0.833520 0.001110 -0.261334
O20   O     O_R   0.260600 0.739610 0.584580 -0.462925
O21   O     O_R   0.532370 0.695050 0.573830 -0.501474
O22   O     O_R   0.744850 0.503430 0.576380 -0.506564
O23   O     O_R   0.699080 0.276500 0.571950 -0.419887
O24   O     O_R   0.498860 0.256520 0.419860 -0.532268
O25   O     O_R   0.272490 0.528150 0.429140 -0.509631
O26   O     O_R   0.252110 0.740440 0.423010 -0.514317
S1    S     S_3+6 0.979771 0.090284 0.585429 -0.041627
O27   O     O_2   0.930487 0.994474 0.558571 -0.316499
O28   O     O_2   0.942609 0.204810 0.532784 -0.300830
O29   O     O_3   0.152752 0.002381 0.590362 -0.577184
H40   H     H_    0.184544 0.985426 0.539808 0.361121
N1    N     N_2   0.276656 0.187839 0.675999 -0.553021
H41   H     H_    0.287882 0.102461 0.703015 0.254513
C71   C     C_3   0.266586 0.186391 0.598416 -0.281030
H42   H     H_    0.333333 0.078673 0.577626 0.151324
H43   H     H_    0.302124 0.251817 0.573316 0.185103
H44   H     H_    0.157890 0.227358 0.581602 0.180914
N2    N     N_2   0.514698 0.576380 0.710020 -0.510275
H45   H     H_    0.431472 0.676340 0.709403 0.270432
C72   C     C_3   0.488083 0.481305 0.749090 -0.304623
H46   H     H_    0.425480 0.534074 0.797269 0.138089
H47   H     H_    0.584184 0.393078 0.768693 0.148510
H48   H     H_    0.438170 0.439491 0.713416 0.196063

loop_
_geom_bond_atom_site_label_1
_geom_bond_atom_site_label_2
_ccdc_geom_bond_type
C45   O3    A    
C34   O26   A    
C8    C13   A    
Cr3   O4    S    
C72   H47   S    
C58   H33   S    
Cr6   O11   S    
C41   C42   A    
C23   O23   A    
C35   C36   A    
C67   H1    S    
C14   H8    S    
C38   H22   S    
C33   H18   S    
C49   H28   S    
O29   H40   S    
Cr5   O19   S    
C7    C8    A    
C7    C11   A    
C26   C27   A    
C37   C38   A    
Cr1   O5    S    
Cr5   O8    S    
C68   O18   A    
N1    C71   S    
C9    C16   A    
C43   H23   S    
C71   H43   S    
C30   C31   A    
Cr2   O21   S    
Cr3   O23   S    
C10   C17   A    
C15   C16   A    
C29   C33   A    
C59   H34   S    
C18   C19   A    
C32   C39   A    
C4    C69   S    
C23   O1    A    
C54   C55   A    
C53   C61   A    
C69   H32   S    
Cr4   O13   S    
N1    H41   S    
C8    C9    A    
Cr2   O2    S    
C1    C28   S    
C41   C46   A    
C27   H15   S    
N2    C72   S    
C68   O13   A    
Cr5   O15   S    
C63   O9    A    
C39   C45   S    
C57   H30   S    
C59   C60   A    
Cr3   O5    S    
C13   C14   A    
C72   H48   S    
Cr6   O10   S    
S1    O29   S    
Cr1   O12   S    
C2    C6    S    
C62   O8    A    
C53   C60   A    
Cr5   O16   S    
C65   O15   A    
C66   O17   A    
C35   H17   S    
Cr2   O26   S    
C54   C61   A    
Cr5   O9    S    
C3    C70   S    
C24   C25   A    
C4    C6    S    
C10   C11   A    
C71   H44   S    
C56   O24   A    
Cr6   O19   S    
Cr2   O20   S    
Cr1   O24   S    
C20   C28   A    
C11   H7    S    
C25   C26   A    
C48   H27   S    
C13   H6    S    
C34   C61   S    
C50   C56   S    
C51   C52   A    
C37   H20   S    
C55   H31   S    
C67   C69   S    
C16   S1    S    
C43   C44   A    
C7    C62   S    
C29   C30   A    
C2    H39   S    
C47   C48   A    
C14   C15   A    
Cr6   O18   S    
Cr2   O5    S    
C25   H14   S    
C17   C23   S    
C5    H4    S    
C24   H12   S    
C63   O10   A    
C70   H36   S    
C42   C50   A    
C30   C35   A    
C9    C17   A    
C40   C41   A    
Cr4   O7    S    
C21   C28   A    
C64   O11   A    
C40   C65   S    
C56   O4    A    
S1    O28   D    
C4    C12   S    
C62   O7    A    
C52   C53   A    
C66   O16   A    
C45   O2    A    
C46   H24   S    
C46   C47   A    
C48   C49   A    
Cr3   O3    S    
C54   H29   S    
C5    H37   S    
C70   H3    S    
C18   C22   A    
C12   O22   A    
C3    C67   S    
C1    O12   A    
C4    C5    S    
C5    C70   S    
C21   H10   S    
C65   O14   A    
C44   H25   S    
C43   C50   A    
Cr1   O25   S    
C20   C27   A    
C3    C63   S    
C10   H5    S    
C67   H11   S    
C31   C38   A    
C15   H9    S    
C32   C33   A    
C19   C20   A    
C19   C24   A    
C58   C59   A    
C60   H35   S    
C1    O20   A    
C71   H42   S    
Cr6   O17   S    
C2    H38   S    
C36   H19   S    
C18   C64   S    
C57   C58   A    
C32   H16   S    
Cr3   O22   S    
Cr4   O19   S    
C34   O25   A    
C22   H13   S    
C31   C39   A    
Cr1   O1    S    
C2    C3    S    
C51   C55   A    
C51   C68   S    
C26   N1    S    
C6    N2    S    
C6    H2    S    
C52   C57   A    
C42   C49   A    
C29   C66   S    
C40   C44   A    
Cr4   O6    S    
C36   C37   A    
C12   O21   A    
Cr4   O14   S    
C72   H46   S    
C47   H26   S    
S1    O27   D    
N2    H45   S    
C21   C22   A    
C64   O6    A    
C69   H21   S    
