data_mof_unit_1644.cif
_audit_creation_date              2012-12-10T17:13:33-0500
_audit_creation_method            fapswitch 2.2
_symmetry_space_group_name_H-M    P1
_symmetry_Int_Tables_number       1
_space_group_crystal_system       triclinic
_cell_length_a                    10.964488
_cell_length_b                    12.991831
_cell_length_c                    11.742125
_cell_angle_alpha                 99.781258
_cell_angle_beta                  94.47954
_cell_angle_gamma                 94.205073
_cell_volume                      1636.90583493

loop_
_atom_site_label
_atom_site_type_symbol
_atom_type_description
_atom_site_fract_x
_atom_site_fract_y
_atom_site_fract_z
_atom_type_partial_charge
C1    C     C_R   0.499286 0.299052 0.478777 0.889199
C2    C     C_3   0.878594 0.498561 0.501463 -0.152039
C3    C     C_3   0.936464 0.604090 0.470368 0.047688
C4    C     C_3   0.911708 0.404340 0.404705 0.385338
C5    C     C_R   0.460646 0.810895 0.534583 -0.228685
C6    C     C_R   0.487961 0.184867 0.467164 -0.063710
C7    C     C_R   0.399645 0.017866 0.357390 -0.165990
C8    C     C_R   0.422778 0.125520 0.367337 -0.244624
C9    C     C_R   0.528951 0.135333 0.559353 0.274896
C10   C     C_R   0.495885 0.027986 0.552970 -0.010382
C11   C     C_R   0.439958 0.967040 0.447998 0.102735
C12   C     C_R   0.259954 0.499860 0.499845 0.844612
C13   C     C_R   0.425425 0.856969 0.437026 0.170899
C14   C     C_R   0.476100 0.874990 0.645796 0.248891
C15   C     C_R   0.507380 0.982198 0.652420 -0.172341
C16   C     C_R   0.389621 0.391408 0.022049 -0.215123
C17   C     C_R   0.398650 0.403739 0.143331 0.055563
C18   C     C_R   0.552550 0.543157 0.158595 0.120035
C19   C     C_R   0.545701 0.535448 0.035921 -0.095509
C20   C     C_R   0.462465 0.458293 0.965955 -0.012070
C21   C     C_R   0.454681 0.449691 0.842536 0.438660
C22   C     C_R   0.598950 0.598682 0.860335 0.380031
C23   C     C_R   0.485294 0.698930 0.521223 0.803940
C24   C     C_R   0.616413 0.604826 0.982029 0.098629
C25   C     C_R   0.740393 0.500072 0.500636 0.921138
C26   C     C_3   0.082994 0.488764 0.625791 0.044617
C27   C     C_3   0.940718 0.492708 0.630734 0.340807
C28   C     C_3   0.078775 0.603013 0.468637 -0.459438
C29   C     C_3   0.055462 0.402678 0.411579 0.010725
C30   C     C_3   0.122676 0.499868 0.500591 -0.100471
Cu1   Cu    Cu3+1 0.509350 0.507730 0.615930 1.055360
Cu2   Cu    Cu3+1 0.490650 0.492270 0.384070 0.977858
H1    H     H_    0.110084 0.616211 0.384757 0.180845
H2    H     H_    0.346494 0.975874 0.279839 0.176172
H3    H     H_    0.532439 0.031092 0.736003 0.201346
H4    H     H_    0.387330 0.162718 0.297264 0.166937
H5    H     H_    0.107028 0.409075 0.636198 0.154422
H6    H     H_    0.324883 0.329499 0.974348 0.182535
H7    H     H_    0.343064 0.351144 0.184548 0.133532
H8    H     H_    0.617541 0.599268 0.214306 0.138109
H9    H     H_    0.125888 0.670512 0.531281 0.157973
H10   H     H_    0.921818 0.667102 0.540331 0.180883
H11   H     H_    0.075883 0.333797 0.452327 0.110965
N1    N     N_R   0.523430 0.519360 0.790130 -0.236088
N2    N     N_R   0.476570 0.480640 0.209880 -0.185827
O1    O     O_R   0.506640 0.354460 0.582000 -0.514311
O2    O     O_R   0.490840 0.341410 0.386200 -0.586134
O3    O     O_R   0.325590 0.506510 0.597900 -0.525190
O4    O     O_R   0.309790 0.493450 0.402100 -0.598891
O5    O     O_R   0.509160 0.658590 0.613800 -0.526575
O6    O     O_R   0.493360 0.645540 0.418000 -0.604387
O7    O     O_R   0.690210 0.506550 0.597900 -0.557692
O8    O     O_R   0.674410 0.493490 0.402100 -0.519408
Br1   Br    Br    0.180884 0.564670 0.770021 -0.556061
Br2   Br    Br    0.836507 0.405519 0.246070 -0.464250
N3    N     N_2   0.876810 0.632556 0.365793 -0.387132
H12   H     H_    0.926705 0.628545 0.294843 0.273779
C31   C     C_3   0.812009 0.726530 0.384064 -0.686575
H13   H     H_    0.761582 0.735854 0.302357 0.213855
H14   H     H_    0.878282 0.796557 0.414237 0.231438
H15   H     H_    0.744492 0.721104 0.449032 0.237645
N4    N     N_2   0.366247 0.794485 0.332678 -0.428466
H16   H     H_    0.315495 0.727453 0.343752 0.258561
C32   C     C_3   0.440660 0.778731 0.235752 -0.643405
H17   H     H_    0.391458 0.720363 0.163639 0.226704
H18   H     H_    0.529170 0.750615 0.262808 0.233485
H19   H     H_    0.460489 0.852521 0.202823 0.217056
N5    N     N_2   0.451515 0.831584 0.747110 -0.360943
H20   H     H_    0.382913 0.770826 0.731869 0.283650
C33   C     C_3   0.445367 0.900483 0.856960 -0.639127
H21   H     H_    0.418039 0.853354 0.922831 0.221691
H22   H     H_    0.375567 0.957148 0.848078 0.220530
H23   H     H_    0.536875 0.942362 0.888403 0.248548
Br3   Br    Br    0.639612 0.209704 0.688999 -0.490029
Br4   Br    Br    0.341042 0.340352 0.751149 -0.498589
Br5   Br    Br    0.679880 0.710962 0.800583 -0.535746
N6    N     N_2   0.708898 0.679169 0.047975 -0.418424
H24   H     H_    0.764781 0.653872 0.110308 0.259184
C34   C     C_3   0.682710 0.788235 0.071406 -0.606373
H25   H     H_    0.686372 0.817316 0.165744 0.191442
H26   H     H_    0.590657 0.799569 0.031456 0.238901
H27   H     H_    0.753346 0.836601 0.036320 0.268169
N7    N     N_2   0.893590 0.395247 0.667928 -0.405402
H28   H     H_    0.925565 0.328806 0.624564 0.274194
C35   C     C_3   0.902097 0.389425 0.791109 -0.519480
H29   H     H_    0.899462 0.306215 0.802952 0.241198
H30   H     H_    0.822227 0.422448 0.831873 0.234621
H31   H     H_    0.989041 0.430374 0.836801 0.248074
N8    N     N_2   0.910538 0.582708 0.717204 -0.378053
H32   H     H_    0.838724 0.569238 0.764970 0.311262
C36   C     C_3   0.966512 0.690722 0.744871 -0.567188
H33   H     H_    0.900864 0.745714 0.720405 0.232531
H34   H     H_    0.048400 0.704571 0.699188 0.229336
H35   H     H_    0.992084 0.712041 0.839820 0.261112
N9    N     N_2   0.105014 0.379644 0.297737 -0.386621
H36   H     H_    0.090208 0.301871 0.258560 0.272132
C37   C     C_3   0.112817 0.452087 0.215593 -0.534045
H37   H     H_    0.099547 0.407376 0.125409 0.210115
H38   H     H_    0.203256 0.497106 0.225341 0.224787
H39   H     H_    0.043927 0.509076 0.223864 0.230541
Br6   Br    Br    0.834003 0.266355 0.417694 -0.509088

loop_
_geom_bond_atom_site_label_1
_geom_bond_atom_site_label_2
_ccdc_geom_bond_type
C3    H10   S    
N9    H36   S    
Cu2   N2    S    
C19   C20   A    
C22   Br5   S    
Cu1   O7    S    
C12   O3    A    
C6    C9    A    
C12   O4    A    
C7    C8    A    
C35   H29   S    
C7    C11   A    
C26   C27   S    
N4    H16   S    
C3    C28   S    
C17   N2    A    
C10   C15   A    
C17   H7    S    
C1    O1    A    
C31   H14   S    
C28   H9    S    
N3    H12   S    
C18   C19   A    
C8    H4    S    
C18   H8    S    
N4    C32   S    
N5    H20   S    
C22   N1    A    
C13   N4    S    
Cu1   Cu2   S    
C16   C17   A    
Cu1   O1    S    
C27   N8    S    
C2    C27   S    
N8    C36   S    
C9    C10   A    
C5    C13   A    
C4    C29   S    
C31   H15   S    
C35   H30   S    
C29   H11   S    
C26   Br1   S    
C15   H3    S    
C37   H38   S    
C37   H37   S    
N6    C34   S    
Cu1   N1    S    
C1    C6    S    
C32   H19   S    
C36   H33   S    
C29   N9    S    
C1    O2    A    
C23   O5    A    
C6    C8    A    
C31   H13   S    
N6    H24   S    
C32   H18   S    
C2    C4    S    
Cu2   O6    S    
C29   C30   S    
C36   H34   S    
C21   N1    A    
C3    N3    S    
C23   O6    A    
N7    H28   S    
C5    C23   S    
C16   C20   A    
C4    Br6   S    
C33   H23   S    
C5    C14   A    
C33   H21   S    
N7    C35   S    
C28   H1    S    
C26   C30   S    
Cu1   O3    S    
C4    Br2   S    
Cu2   O2    S    
C22   C24   A    
C9    Br3   S    
Cu1   O5    S    
C18   N2    A    
Cu2   O8    S    
C37   H39   S    
C34   H26   S    
C35   H31   S    
C12   C30   S    
C25   O8    A    
C34   H27   S    
N9    C37   S    
C26   H5    S    
C21   Br4   S    
C32   H17   S    
C27   N7    S    
C19   C24   A    
C25   O7    A    
C36   H35   S    
C11   C13   A    
C28   C30   S    
C7    H2    S    
N3    C31   S    
C2    C3    S    
C2    C25   S    
Cu2   O4    S    
C10   C11   A    
C34   H25   S    
C24   N6    S    
C20   C21   A    
N5    C33   S    
C14   N5    S    
C14   C15   A    
C33   H22   S    
N8    H32   S    
C16   H6    S    
