data_mof_unit_631.cif
_audit_creation_date              2012-12-10T20:36:42-0500
_audit_creation_method            fapswitch 2.2
_symmetry_space_group_name_H-M    P1
_symmetry_Int_Tables_number       1
_space_group_crystal_system       triclinic
_cell_length_a                    10.517498
_cell_length_b                    10.729892
_cell_length_c                    9.936057
_cell_angle_alpha                 89.168888
_cell_angle_beta                  89.640584
_cell_angle_gamma                 91.417454
_cell_volume                      1120.8143902

loop_
_atom_site_label
_atom_site_type_symbol
_atom_type_description
_atom_site_fract_x
_atom_site_fract_y
_atom_site_fract_z
_atom_type_partial_charge
C1    C     C_R   0.503212 0.260510 0.500649 0.956542
C2    C     C_R   0.509710 0.934759 0.621052 -0.186551
C3    C     C_3   0.410040 0.925064 0.730015 -0.333776
C4    C     C_R   0.257852 0.505749 0.499999 0.961758
C5    C     C_3   0.413102 0.066658 0.730441 1.044120
C6    C     C_R   0.442229 0.404828 0.073134 0.005478
C7    C     C_R   0.577755 0.581013 0.068539 -0.157264
C8    C     C_R   0.577041 0.579521 0.924115 0.702924
C9    C     C_R   0.438775 0.407257 0.931866 0.083416
C10   C     C_3   0.301692 0.364260 0.930951 -0.487866
C11   C     C_3   0.308602 0.356277 0.084867 0.517982
C12   C     C_3   0.958372 0.428642 0.401834 -0.170358
C13   C     C_R   0.502046 0.740007 0.499172 0.901276
C14   C     C_R   0.742126 0.499257 0.499770 0.897160
C15   C     C_3   0.039885 0.583031 0.595071 0.588279
C16   C     C_3   0.957147 0.464589 0.620997 -0.193904
C17   C     C_3   0.876722 0.502549 0.499458 -0.220320
C18   C     C_3   0.957385 0.620923 0.475712 -0.253347
C19   C     C_3   0.040885 0.547852 0.379736 0.755661
C20   C     C_2   0.458063 0.867733 0.858177 0.630980
C21   C     C_2   0.666414 0.669618 0.135852 0.640750
C22   C     C_2   0.210458 0.460260 0.881569 0.750050
C23   C     C_3   0.041441 0.390688 0.523400 -0.292347
C24   C     C_2   0.300858 0.225754 0.142073 0.415826
C25   C     C_2   0.904912 0.747885 0.452366 0.509748
C26   C     C_3   0.122826 0.509750 0.499383 -0.268390
C27   C     C_R   0.511308 0.062482 0.621775 0.015095
C28   C     C_R   0.520016 0.129621 0.501470 -0.177090
C29   C     C_R   0.546586 0.068737 0.381232 -0.241943
C30   C     C_R   0.543551 0.940105 0.379184 0.656282
C31   C     C_R   0.516358 0.872504 0.498832 -0.189994
F1    F     F_    0.300248 0.117695 0.687893 -0.679531
F2    F     F_    0.460952 0.119766 0.846485 -0.719442
F3    F     F_    0.653647 0.658264 0.850402 -0.627576
F4    F     F_    0.229495 0.437024 0.149894 -0.542050
F5    F     F_    0.084707 0.664481 0.691285 -0.596641
F6    F     F_    0.084649 0.595455 0.257633 -0.517278
F7    F     F_    0.557503 0.884046 0.258907 -0.642010
H1    H     H_    0.918134 0.430850 0.719396 0.192046
H2    H     H_    0.359245 0.153563 0.100331 0.100436
H3    H     H_    0.843769 0.787957 0.527770 0.075517
H4    H     H_    0.287122 0.272912 0.881950 0.206107
H5    H     H_    0.921308 0.365968 0.322449 0.196053
H6    H     H_    0.080014 0.296816 0.543191 0.235923
H7    H     H_    0.561232 0.119712 0.287241 0.191496
H8    H     H_    0.318228 0.883573 0.694821 0.228603
H9    H     H_    0.554500 0.887453 0.891547 0.143180
H10   H     H_    0.676458 0.670238 0.242823 0.120226
H11   H     H_    0.125752 0.429582 0.829281 0.020365
N1    N     N_R   0.499140 0.499140 0.142800 -0.136229
N2    N     N_R   0.499140 0.499180 0.857150 -0.144870
O1    O     O_R   0.500020 0.316790 0.614690 -0.591674
O2    O     O_2   0.731928 0.745033 0.071446 -0.449815
O3    O     O_2   0.227610 0.570947 0.904328 -0.390840
O4    O     O_2   0.229500 0.200014 0.236321 -0.490174
O5    O     O_2   0.929943 0.806264 0.348911 -0.458007
O6    O     O_R   0.500000 0.316760 0.385350 -0.643338
O7    O     O_R   0.313960 0.499990 0.614650 -0.623567
O8    O     O_R   0.313940 0.499950 0.385310 -0.506039
O9    O     O_R   0.500000 0.683240 0.614650 -0.577280
O10   O     O_R   0.499980 0.683210 0.385310 -0.597884
O11   O     O_R   0.686060 0.500050 0.614690 -0.579950
O12   O     O_R   0.686040 0.500010 0.385350 -0.685701
O13   O     O_2   0.387843 0.800467 0.927051 -0.469923
Zn1   Zn    Zn3+2 0.500010 0.500020 0.653130 1.064077
Zn2   Zn    Zn3+2 0.499990 0.499980 0.346870 1.035612

loop_
_geom_bond_atom_site_label_1
_geom_bond_atom_site_label_2
_ccdc_geom_bond_type
C12   C17   S    
C20   O13   D    
C15   C18   S    
C4    C26   S    
C29   C30   A    
C1    O6    A    
C10   H4    S    
C19   F6    S    
C9    C10   S    
C11   C24   S    
O7    Zn1   S    
C12   C23   S    
C25   O5    D    
O6    Zn2   S    
C5    F1    S    
C9    N2    A    
C21   H10   S    
C6    C9    A    
C11   F4    S    
C2    C3    S    
O12   Zn2   S    
C3    C20   S    
C22   O3    D    
C13   O9    A    
C8    F3    S    
C10   C22   S    
C24   O4    D    
C21   O2    D    
C1    C28   S    
N1    Zn2   S    
C14   C17   S    
C30   F7    S    
C2    C27   A    
C18   C25   S    
C22   H11   S    
C14   O12   A    
O10   Zn2   S    
C4    O8    A    
C28   C29   A    
C24   H2    S    
O9    Zn1   S    
C17   C18   S    
C16   C23   S    
O8    Zn2   S    
C30   C31   A    
C1    O1    A    
C20   H9    S    
C10   C11   S    
O1    Zn1   S    
C16   H1    S    
C25   H3    S    
C15   C16   S    
C14   O11   A    
C3    C5    S    
C15   F5    S    
C7    C8    A    
C13   O10   A    
C12   C19   S    
C18   C19   S    
N2    Zn1   S    
C23   C26   S    
C8    N2    A    
C6    C11   S    
C19   C26   S    
C16   C17   S    
C15   C26   S    
C3    H8    S    
O11   Zn1   S    
C4    O7    A    
C5    C27   S    
C12   H5    S    
C13   C31   S    
C6    N1    A    
C23   H6    S    
C7    N1    A    
C29   H7    S    
C2    C31   A    
C27   C28   A    
C7    C21   S    
C5    F2    S    
