data_mof_unit_2386.cif
_audit_creation_date              2012-12-10T17:54:19-0500
_audit_creation_method            fapswitch 2.2
_symmetry_space_group_name_H-M    P1
_symmetry_Int_Tables_number       1
_space_group_crystal_system       triclinic
_cell_length_a                    27.694169
_cell_length_b                    10.661241
_cell_length_c                    9.890209
_cell_angle_alpha                 88.64228
_cell_angle_beta                  89.483107
_cell_angle_gamma                 91.733666
_cell_volume                      2917.83114872

loop_
_atom_site_label
_atom_site_type_symbol
_atom_type_description
_atom_site_fract_x
_atom_site_fract_y
_atom_site_fract_z
_atom_type_partial_charge
C1    C     C_R   0.502909 0.259457 0.502342 0.849191
C2    C     C_R   0.277427 0.410543 0.586721 -0.169280
C3    C     C_R   0.253223 0.494775 0.502641 0.220784
C4    C     C_R   0.101588 0.494849 0.523248 -0.053601
C5    C     C_R   0.125323 0.385825 0.486535 -0.021344
C6    C     C_R   0.098629 0.274418 0.467615 -0.227293
C7    C     C_R   0.128912 0.604085 0.553057 -0.021110
C8    C     C_R   0.353823 0.495092 0.500348 -0.128988
C9    C     C_R   0.646752 0.504100 0.498169 -0.053199
C10   C     C_R   0.973465 0.396329 0.471281 0.064083
C11   C     C_R   0.975971 0.603568 0.576273 0.040149
C12   C     C_R   0.406253 0.498815 0.500327 0.865846
C13   C     C_R   0.949529 0.502048 0.519892 0.064178
C14   C     C_R   0.947051 0.309495 0.393319 -0.127761
C15   C     C_R   0.897288 0.315964 0.381345 -0.126169
C16   C     C_R   0.872622 0.412189 0.442820 -0.027781
C17   C     C_R   0.898750 0.507025 0.509938 -0.053353
C18   C     C_R   0.874118 0.607082 0.566400 -0.025049
C19   C     C_R   0.823724 0.608203 0.558588 0.509165
C20   C     C_R   0.822282 0.416921 0.437534 0.514598
C21   C     C_R   0.722141 0.494051 0.618851 -0.096112
C22   C     C_R   0.671985 0.490360 0.619829 -0.216878
C23   C     C_R   0.494028 0.738398 0.498909 0.868712
C24   C     C_R   0.672368 0.522298 0.375700 -0.198260
C25   C     C_R   0.722585 0.526556 0.375142 -0.098928
C26   C     C_R   0.747485 0.512154 0.496667 0.310387
C27   C     C_R   0.023600 0.385422 0.493756 0.028400
C28   C     C_R   0.050607 0.494923 0.529089 0.050730
C29   C     C_R   0.027042 0.604727 0.569414 0.055086
C30   C     C_R   0.048384 0.270942 0.479642 -0.025245
C31   C     C_R   0.105474 0.712389 0.590302 -0.132143
C32   C     C_R   0.950271 0.701672 0.634447 -0.200413
C33   C     C_R   0.900167 0.702801 0.630147 -0.119164
C34   C     C_R   0.593971 0.500879 0.499423 0.888724
C35   C     C_R   0.055437 0.712983 0.598320 -0.214454
C36   C     C_R   0.503912 0.099690 0.760953 -0.154188
C37   C     C_R   0.486115 0.034307 0.875362 -0.232878
C38   C     C_R   0.457450 0.926293 0.861079 -0.137250
C39   C     C_R   0.450873 0.875209 0.732845 -0.007752
C40   C     C_R   0.475714 0.932249 0.619183 -0.008400
C41   C     C_R   0.494770 0.054508 0.629856 0.108040
C42   C     C_R   0.504150 0.124480 0.507825 -0.104595
C43   C     C_R   0.506070 0.064659 0.383789 -0.245599
C44   C     C_R   0.497990 0.937881 0.379067 -0.211596
C45   C     C_R   0.175757 0.389058 0.476293 0.531197
C46   C     C_R   0.485258 0.870478 0.497133 -0.141119
C47   C     C_R   0.436438 0.335140 0.145514 -0.241674
C48   C     C_R   0.405221 0.252884 0.077587 0.521872
C49   C     C_R   0.405292 0.255256 0.937589 -0.196439
C50   C     C_R   0.436971 0.335781 0.865281 -0.162921
C51   C     C_R   0.468898 0.418885 0.930547 0.134559
C52   C     C_R   0.468827 0.418672 0.074986 0.009118
C53   C     C_R   0.529647 0.579927 0.070042 0.574611
C54   C     C_R   0.529909 0.577607 0.925095 -0.226016
C55   C     C_R   0.179349 0.602213 0.545162 0.520698
C56   C     C_R   0.279380 0.577391 0.415303 -0.073644
C57   C     C_R   0.329573 0.577940 0.414618 -0.295012
C58   C     C_R   0.327607 0.407404 0.582974 0.531011
H1    H     H_    0.260771 0.641764 0.349013 0.168662
H2    H     H_    0.125721 0.797895 0.612422 0.192603
H3    H     H_    0.967896 0.777521 0.686966 0.160777
H4    H     H_    0.653693 0.533843 0.280666 0.187922
H5    H     H_    0.881955 0.779741 0.676257 0.198500
H6    H     H_    0.742205 0.540767 0.280539 0.148845
H7    H     H_    0.039944 0.801270 0.622847 0.153786
H8    H     H_    0.514140 0.115550 0.289709 0.169433
H9    H     H_    0.526309 0.182352 0.777803 0.171954
H10   H     H_    0.492822 0.070648 0.974992 0.138978
H11   H     H_    0.257177 0.345991 0.653562 0.174971
H12   H     H_    0.440430 0.882863 0.950171 0.169892
H13   H     H_    0.503258 0.892442 0.283570 0.173821
H14   H     H_    0.433688 0.331685 0.252637 0.216733
H15   H     H_    0.380940 0.192700 0.884573 0.206777
H16   H     H_    0.435782 0.329980 0.758363 0.252027
H17   H     H_    0.554652 0.637670 0.866250 0.162368
H18   H     H_    0.117112 0.187707 0.451390 0.186411
H19   H     H_    0.653057 0.476073 0.715527 0.164778
H20   H     H_    0.741421 0.482105 0.712843 0.146397
H21   H     H_    0.878278 0.245288 0.323540 0.192892
H22   H     H_    0.964622 0.237321 0.337908 0.148522
H23   H     H_    0.349521 0.643988 0.348692 0.175188
N1    N     N_R   0.201633 0.495925 0.506434 -0.344222
N2    N     N_R   0.799006 0.513211 0.496285 -0.356926
N3    N     N_R   0.499540 0.498800 0.142780 -0.143500
N4    N     N_R   0.499520 0.498720 0.857170 -0.126423
O1    O     O_R   0.500000 0.316780 0.614690 -0.658295
O2    O     O_2   0.796664 0.325049 0.376367 -0.552744
O3    O     O_2   0.205976 0.705151 0.577532 -0.551144
O4    O     O_2   0.799525 0.703371 0.612416 -0.551026
O5    O     O_R   0.500000 0.316750 0.385360 -0.645474
O6    O     O_R   0.428760 0.500030 0.614650 -0.588515
O7    O     O_R   0.428750 0.500010 0.385320 -0.645091
O8    O     O_R   0.500000 0.683250 0.614640 -0.618244
O9    O     O_R   0.500000 0.683220 0.385310 -0.579425
O10   O     O_R   0.571250 0.499990 0.614680 -0.627226
O11   O     O_R   0.571240 0.499970 0.385350 -0.571839
O12   O     O_2   0.198840 0.286388 0.436103 -0.551986
Zn1   Zn    Zn3+2 0.500000 0.500020 0.653130 0.961033
Zn2   Zn    Zn3+2 0.500000 0.499980 0.346870 0.982937
O13   O     O_3   0.350547 0.318889 0.661237 -0.623000
C59   C     C_3   0.359469 0.214449 0.580618 -0.339782
H24   H     H_    0.384220 0.240374 0.494666 0.151618
H25   H     H_    0.325215 0.171262 0.542832 0.205910
H26   H     H_    0.377549 0.142324 0.643106 0.184324
C60   C     C_2   0.414240 0.772345 0.716448 0.482547
H27   H     H_    0.401803 0.748797 0.616254 0.018884
O14   O     O_2   0.397189 0.713910 0.814237 -0.556064
O15   O     O_3   0.561488 0.655801 0.141836 -0.580363
C61   C     C_3   0.566996 0.777236 0.082641 -0.345157
H28   H     H_    0.532026 0.814844 0.047708 0.151875
H29   H     H_    0.593919 0.778092 0.998726 0.174163
H30   H     H_    0.581363 0.841541 0.160181 0.202738
O16   O     O_3   0.371347 0.176943 0.146295 -0.581028
C62   C     C_3   0.395069 0.082048 0.219052 -0.314613
H31   H     H_    0.413242 0.120703 0.309074 0.157245
H32   H     H_    0.421308 0.032793 0.154553 0.147631
H33   H     H_    0.367651 0.011054 0.256019 0.207678
C63   C     C_2   0.024999 0.144329 0.497108 0.363771
H34   H     H_    0.041179 0.063891 0.451339 0.063111
O17   O     O_2   0.989239 0.127295 0.569135 -0.551142

loop_
_geom_bond_atom_site_label_1
_geom_bond_atom_site_label_2
_ccdc_geom_bond_type
C10   C27   A    
C21   C26   A    
C38   H12   S    
C26   N2    S    
C41   C42   A    
C12   O6    A    
C45   N1    A    
C7    C55   A    
O11   Zn2   S    
C51   N4    A    
C62   H31   S    
C36   H9    S    
C53   C54   A    
O15   C61   S    
C40   C46   A    
C60   O14   D    
C28   C29   A    
C1    O5    A    
C53   N3    A    
C36   C37   A    
C34   O11   A    
C32   H3    S    
C61   H29   S    
C5    C6    A    
C9    C22   A    
C35   H7    S    
C15   C16   A    
C37   H10   S    
C56   C57   A    
C44   H13   S    
C18   C19   A    
C55   O3    S    
C52   N3    A    
C63   H34   S    
N4    Zn1   S    
C8    C58   A    
C15   H21   S    
C16   C17   A    
C21   H20   S    
C14   H22   S    
C8    C12   S    
C2    H11   S    
C16   C20   A    
C59   H25   S    
C23   C46   S    
C21   C22   A    
C27   C30   A    
C36   C41   A    
C4    C7    A    
C19   N2    A    
C4    C28   A    
C44   C46   A    
C17   C18   A    
O10   Zn1   S    
C7    C31   A    
C51   C52   A    
C59   H24   S    
C58   O13   S    
C24   C25   A    
C10   C14   A    
C61   H30   S    
C39   C40   A    
C30   C63   S    
C25   C26   A    
C5    C45   A    
C23   O8    A    
C25   H6    S    
C31   H2    S    
C43   C44   A    
C37   C38   A    
C19   O4    S    
C8    C57   A    
C3    C56   A    
C47   C48   A    
C33   H5    S    
C3    N1    S    
C50   C51   A    
C34   O10   A    
C55   N1    A    
C48   C49   A    
C6    C30   A    
C11   C32   A    
C59   H26   S    
C9    C34   S    
C49   H15   S    
C42   C43   A    
O5    Zn2   S    
O16   C62   S    
C1    O1    A    
C39   C60   S    
C40   C41   A    
C24   H4    S    
N3    Zn2   S    
C12   O7    A    
C22   H19   S    
C4    C5    A    
C10   C13   A    
C54   N4    A    
C62   H32   S    
C2    C58   A    
C9    C24   A    
C6    H18   S    
C47   C52   A    
C60   H27   S    
C29   C35   A    
C56   H1    S    
C13   C17   A    
C32   C33   A    
C50   H16   S    
C2    C3    A    
C45   O12   S    
C61   H28   S    
C20   O2    S    
C11   C13   A    
C53   O15   S    
C38   C39   A    
O9    Zn2   S    
C43   H8    S    
C31   C35   A    
O13   C59   S    
C57   H23   S    
O6    Zn1   S    
O1    Zn1   S    
C18   C33   A    
C63   O17   D    
C47   H14   S    
C62   H33   S    
C54   H17   S    
C23   O9    A    
C1    C42   S    
C11   C29   A    
C49   C50   A    
C20   N2    A    
C27   C28   A    
C14   C15   A    
O8    Zn1   S    
O7    Zn2   S    
C48   O16   S    
