data_mof_unit_3549.cif
_audit_creation_date              2012-12-11T15:57:34-0500
_audit_creation_method            fapswitch 2.2
_symmetry_space_group_name_H-M    P1
_symmetry_Int_Tables_number       1
_space_group_crystal_system       triclinic
_cell_length_a                    10.693517
_cell_length_b                    10.780564
_cell_length_c                    17.02599
_cell_angle_alpha                 99.772393
_cell_angle_beta                  99.322778
_cell_angle_gamma                 61.71028
_cell_volume                      1695.74407116

loop_
_atom_site_label
_atom_site_type_symbol
_atom_type_description
_atom_site_fract_x
_atom_site_fract_y
_atom_site_fract_z
_atom_type_partial_charge
C1    C     C_R   0.358272 0.770569 0.400012 0.579132
C2    C     C_2   0.323638 0.312416 0.813641 0.289359
C3    C     C_2   0.329907 0.207740 0.755485 -0.122058
C4    C     C_R   0.369944 0.346330 0.357266 0.546279
C5    C     C_2   0.366283 0.201320 0.675205 0.208682
C6    C     C_1   0.816869 0.342587 0.708809 -0.024444
C7    C     C_1   0.844261 0.313288 0.776267 -0.021039
C8    C     C_1   0.357705 0.765046 0.713229 -0.016064
C9    C     C_1   0.325149 0.812727 0.780078 -0.037239
C10   C     C_R   0.891090 0.308945 0.085135 0.543379
C11   C     C_R   0.318632 0.299375 0.119816 0.543534
C12   C     C_2   0.819666 0.332532 0.155044 -0.141207
C13   C     C_R   0.293283 0.892103 0.083745 0.543655
C14   C     C_R   0.886185 0.296493 0.858488 0.543769
C15   C     C_R   0.306996 0.290164 0.892394 0.520822
C16   C     C_R   0.773451 0.378354 0.403383 0.622900
C17   C     C_R   0.280176 0.881626 0.856965 0.530683
C18   C     C_R   0.380865 0.714447 0.631294 0.558678
C19   C     C_R   0.364063 0.345544 0.579055 0.615658
C20   C     C_R   0.772350 0.381717 0.629840 0.531226
C21   C     C_1   0.343240 0.335554 0.273976 -0.016154
C22   C     C_1   0.331048 0.326196 0.203128 -0.027703
C23   C     C_2   0.852336 0.219864 0.192470 -0.156028
C24   C     C_2   0.844520 0.331018 0.330477 0.257280
C25   C     C_3   0.382556 0.493208 0.868381 -0.095199
C26   C     C_3   0.693141 0.744875 0.295632 -0.081576
C27   C     C_3   0.150788 0.060506 0.376950 -0.104874
C28   C     C_2   0.820233 0.236243 0.274392 0.204522
C29   C     C_2   0.338397 0.851851 0.334626 0.285846
C30   C     C_2   0.343101 0.825229 0.156913 -0.098582
C31   C     C_2   0.420181 0.867481 0.214250 -0.115583
C32   C     C_2   0.450559 0.817868 0.293133 0.242549
C33   C     C_2   0.294477 0.316700 0.635314 0.313847
Cr1   Cr    Cr6+3 0.608020 0.610770 0.522990 1.090442
Cr2   Cr    Cr6+3 0.289390 0.599570 0.488050 1.073849
Cr3   Cr    Cr6+3 0.602610 0.289690 0.489020 1.079209
Cr4   Cr    Cr6+3 0.053780 0.052210 0.965970 1.041254
Cr5   Cr    Cr6+3 0.060060 0.372530 0.992430 1.034184
Cr6   Cr    Cr6+3 0.372600 0.061970 0.991430 1.018957
H1    H     H_    0.908973 0.111973 0.164686 0.168493
H2    H     H_    0.112482 0.383317 0.679252 0.314537
H3    H     H_    0.748954 0.096682 0.244308 0.323120
H4    H     H_    0.991624 0.338248 0.279350 0.316385
H5    H     H_    0.669105 0.858141 0.310913 0.117736
H6    H     H_    0.706467 0.711738 0.230784 0.119963
H7    H     H_    0.796330 0.681206 0.329323 0.206588
H8    H     H_    0.138225 0.161538 0.361451 0.142412
H9    H     H_    0.219526 0.040594 0.434857 0.100035
H10   H     H_    0.045770 0.072925 0.387701 0.172016
H11   H     H_    0.761465 0.439956 0.183089 0.148006
H12   H     H_    0.459088 0.939773 0.204484 0.129533
H13   H     H_    0.301697 0.756091 0.168641 0.119059
H14   H     H_    0.322807 0.116255 0.769015 0.089448
H15   H     H_    0.522771 0.012379 0.684092 0.334234
H16   H     H_    0.476488 0.416501 0.903687 0.105053
H17   H     H_    0.290949 0.555268 0.905227 0.137722
H18   H     H_    0.414793 0.567855 0.851393 0.135925
O1    O     O_R   0.749250 0.499990 0.439200 -0.452518
O2    O     O_R   0.411120 0.181190 0.091480 -0.515905
O3    O     O_R   0.364220 0.944920 0.062310 -0.502521
O4    O     O_R   0.477870 0.725740 0.440280 -0.465123
O5    O     O_R   0.158740 0.906940 0.874970 -0.493409
O6    O     O_R   0.930920 0.176940 0.885610 -0.489354
O7    O     O_R   0.910730 0.394510 0.895320 -0.511220
O8    O     O_R   0.185840 0.361180 0.920280 -0.501169
O9    O     O_R   0.399210 0.173040 0.915160 -0.530773
O10   O     O_R   0.353170 0.937370 0.898860 -0.505050
O11   O     O_3   0.162150 0.162240 0.983280 -0.256925
O12   O     O_R   0.299400 0.468710 0.556310 -0.481331
O13   O     O_R   0.260770 0.742210 0.412610 -0.502799
O14   O     O_R   0.297990 0.466320 0.394220 -0.500403
O15   O     O_R   0.487720 0.253870 0.385870 -0.486225
O16   O     O_R   0.721940 0.304340 0.422320 -0.470571
O17   O     O_R   0.750770 0.502570 0.614050 -0.503539
O18   O     O_R   0.479280 0.728140 0.602370 -0.493886
O19   O     O_R   0.262290 0.744790 0.587460 -0.489731
O20   O     O_3   0.482614 0.083475 0.644968 -0.681732
O21   O     O_3   0.343059 0.424904 0.797908 -0.554263
O22   O     O_3   0.161065 0.423269 0.654188 -0.670403
O23   O     O_R   0.489240 0.256450 0.560730 -0.472587
O24   O     O_3   0.761844 0.155708 0.293270 -0.682608
O25   O     O_3   0.920986 0.398879 0.318130 -0.746266
O26   O     O_3   0.587704 0.718044 0.318345 -0.555449
O27   O     O_3   0.203525 0.955548 0.311626 -0.604504
O28   O     O_R   0.723350 0.306730 0.584410 -0.497878
O29   O     O_3   0.500010 0.500010 0.500020 -0.312659
O30   O     O_R   0.170650 0.915100 0.051290 -0.511487
O31   O     O_R   0.941960 0.184500 0.049060 -0.497001
O32   O     O_R   0.922640 0.402670 0.071640 -0.507581
O33   O     O_R   0.196880 0.368740 0.083740 -0.495342

loop_
_geom_bond_atom_site_label_1
_geom_bond_atom_site_label_2
_ccdc_geom_bond_type
C27   H9    S    
C26   O26   S    
Cr6   O11   S    
Cr4   O31   S    
C25   H17   S    
Cr4   O5    S    
C26   H5    S    
C13   O3    A    
C12   C23   D    
C10   O31   A    
C18   O18   A    
C27   O27   S    
C29   C32   D    
C30   C31   D    
Cr2   O29   S    
C14   O6    A    
C23   H1    S    
C15   O8    A    
Cr4   O11   S    
Cr1   O29   S    
C24   O25   S    
C26   H6    S    
C7    C14   S    
Cr2   O13   S    
C8    C9    T    
C5    C33   D    
Cr1   O18   S    
H15   O20   S    
Cr6   O2    S    
C16   C24   S    
C21   C22   T    
H3    O24   S    
C25   H18   S    
C11   O2    A    
Cr4   O6    S    
Cr5   O7    S    
Cr2   O19   S    
C17   O10   A    
C16   O16   A    
C24   C28   D    
C13   C30   S    
C10   O32   A    
C29   O27   S    
Cr3   O23   S    
C33   O22   S    
Cr3   O29   S    
C15   O9    A    
Cr1   O4    S    
C8    C18   S    
C25   O21   S    
C2    O21   S    
C17   O5    A    
C31   C32   S    
Cr5   O32   S    
Cr5   O8    S    
C14   O7    A    
C20   O28   A    
C13   O30   A    
C1    C29   S    
C20   O17   A    
C16   O1    A    
C23   C28   S    
C2    C15   S    
C10   C12   S    
Cr1   O17   S    
C9    C17   S    
Cr5   O11   S    
C19   C33   S    
Cr6   O9    S    
C19   O12   A    
C5    O20   S    
C4    O15   A    
C27   H8    S    
C32   O26   S    
C30   H13   S    
C18   O19   A    
C28   O24   S    
Cr6   O10   S    
Cr4   O30   S    
C25   H16   S    
C31   H12   S    
C3    C5    S    
C1    O4    A    
H2    O22   S    
C12   H11   S    
C6    C7    T    
Cr3   O28   S    
C6    C20   S    
Cr5   O33   S    
C11   C22   S    
C1    O13   A    
C2    C3    D    
C4    C21   S    
C3    H14   S    
C11   O33   A    
Cr6   O3    S    
C19   O23   A    
Cr3   O16   S    
C26   H7    S    
Cr2   O14   S    
C27   H10   S    
Cr2   O12   S    
Cr1   O1    S    
H4    O25   S    
C4    O14   A    
Cr3   O15   S    
