data_mof_unit_1815.cif
_audit_creation_date              2013-03-05T16:12:34-0500
_audit_creation_method            fapswitch 2.2
_symmetry_space_group_name_H-M    P1
_symmetry_Int_Tables_number       1
_space_group_crystal_system       triclinic
_cell_length_a                    8.517186
_cell_length_b                    16.44746
_cell_length_c                    18.970928
_cell_angle_alpha                 112.488111
_cell_angle_beta                  90.729296
_cell_angle_gamma                 83.524724
_cell_volume                      2438.47587131

loop_
_atom_site_label
_atom_site_type_symbol
_atom_site_description
_atom_site_fract_x
_atom_site_fract_y
_atom_site_fract_z
_atom_type_partial_charge
P1    P     P_3+3 0.586140 0.411610 0.321630 0.482178
O1    O     O_2   0.405910 0.437000 0.315050 -0.367513
O2    O     O_3   0.650250 0.445090 0.405140 -0.370526
O3    O     O_3   0.110870 0.602570 0.387980 -0.383419
O4    O     O_2   0.203590 0.532482 0.244926 -0.355058
O5    O     O_3   0.608996 0.296035 0.283521 -0.594258
O6    O     O_3   0.104592 0.702464 0.294192 -0.426430
H1    H     H_    0.123369 0.764103 0.411280 0.152815
C1    C     C_3   0.055434 0.859675 0.361958 -0.914231
H2    H     H_    0.990379 0.911563 0.412269 0.216918
H3    H     H_    0.179894 0.873514 0.363454 0.306997
P2    P     P_3+3 0.070040 0.709050 0.593050 0.531715
P3    P     P_3+3 0.501008 0.764024 0.452512 0.506588
O7    O     O_2   0.240060 0.720390 0.573650 -0.259421
O8    O     O_3   0.508300 0.651290 0.432440 -0.273060
O9    O     O_2   0.354062 0.806480 0.506143 -0.392820
O10   O     O_3   0.027396 0.760254 0.693927 -0.624374
O11   O     O_3   0.444339 0.785747 0.371337 -0.536283
C2    C     C_3   0.561906 0.751151 0.312594 1.012697
H4    H     H_    0.641158 0.695215 0.317170 -1.457288
C3    C     C_3   0.660302 0.823343 0.312558 0.056188
H5    H     H_    0.759755 0.790276 0.269958 0.105745
C4    C     C_3   0.610860 0.768166 0.715214 1.215523
H6    H     H_    0.729348 0.744584 0.686539 -0.138179
C5    C     C_3   0.617650 0.848416 0.792951 -1.009137
H7    H     H_    0.639462 0.828020 0.841719 0.266975
H8    H     H_    0.708403 0.890503 0.789903 0.250562
H9    H     H_    0.501984 0.889848 0.809618 0.249534
Ba1   Ba    Ba6+2 0.334020 0.539200 0.472300 1.591495
C6    C     C_3   0.573005 0.264676 0.339533 0.354581
H10   H     H_    0.446778 0.285027 0.357622 0.010819
H11   H     H_    0.648491 0.289378 0.389781 0.122245
C7    C     C_3   0.603303 0.164018 0.305214 0.121998
H12   H     H_    0.525784 0.137405 0.255680 0.114286
H13   H     H_    0.567236 0.138691 0.348025 0.028614
C8    C     C_3   0.033075 0.700545 0.731548 0.839885
H14   H     H_    0.003102 0.635131 0.693429 0.034282
C9    C     C_3   0.935871 0.734415 0.806705 0.043704
H15   H     H_    0.975234 0.694386 0.841111 0.113653
H16   H     H_    0.815098 0.718691 0.794967 0.048481
P4    P     P_3+3 0.603540 0.588460 0.678390 0.548644
O12   O     O_2   0.783780 0.563030 0.685000 -0.463191
O13   O     O_3   0.539430 0.554980 0.594880 -0.333377
O14   O     O_3   0.078810 0.397510 0.612040 -0.338832
O15   O     O_3   0.554783 0.702448 0.735400 -0.534823
P5    P     P_3+3 0.692106 0.233555 0.540798 0.454621
O16   O     O_3   0.165590 0.389880 0.444220 -0.470021
O17   O     O_3   0.681380 0.348790 0.567580 -0.402392
O18   O     O_2   0.830632 0.188625 0.482169 -0.327089
O19   O     O_3   0.749946 0.205507 0.617930 -0.530252
Ba2   Ba    Ba6+2 0.855780 0.460880 0.527720 1.613467
P6    P     P_3+3 0.071082 0.600577 0.296416 0.525022
C10   C     C_3   0.048589 0.768745 0.364334 0.558819
H17   H     H_    0.924632 0.762492 0.376820 -0.032092
H18   H     H_    0.001870 0.862838 0.309303 0.253491
O20   O     O_3   0.024090 0.610190 0.555810 -0.437538
C11   C     C_3   0.121178 0.280591 0.266509 0.280194
H19   H     H_    0.994700 0.306782 0.271114 -0.046184
H20   H     H_    0.201234 0.332582 0.288645 0.088121
C12   C     C_3   0.159376 0.230164 0.181428 0.219652
H21   H     H_    0.085951 0.174603 0.159267 0.088304
H22   H     H_    0.122558 0.274881 0.150743 -0.022028
P7    P     P_3+3 0.129168 0.276597 0.404157 0.481886
O21   O     O_2   0.949630 0.279650 0.426400 -0.295251
O22   O     O_3   0.143525 0.222131 0.303923 -0.550647
H23   H     H_    0.710357 0.854702 0.369183 0.070936
C13   C     C_3   0.645389 0.253251 0.680293 0.351135
H24   H     H_    0.683557 0.319916 0.710980 0.106411
H25   H     H_    0.521305 0.260432 0.662832 0.116553
C14   C     C_3   0.649717 0.204169 0.734139 -0.976950
H26   H     H_    0.568660 0.241183 0.784252 0.239974
H27   H     H_    0.612758 0.137128 0.704087 0.264753
H28   H     H_    0.770793 0.196815 0.754580 0.254120
P8    P     P_3+3 0.119044 0.418532 0.707039 0.519107
C15   C     C_3   0.072403 0.269405 0.726399 1.110965
O23   O     O_2   0.036762 0.513906 0.746789 -0.417467
O24   O     O_3   0.010054 0.358986 0.744457 -0.589684
H29   H     H_    0.985658 0.228690 0.689439 0.055816
H30   H     H_    0.181128 0.279470 0.833345 0.268608
C16   C     C_3   0.077005 0.253138 0.800666 -1.130004
H31   H     H_    0.084839 0.181267 0.788718 0.238271
H32   H     H_    0.968200 0.286359 0.836378 0.247540
C17   C     C_R   0.555266 0.533471 0.802996 -0.255499
H33   H     H_    0.620525 0.587661 0.835754 0.137291
C18   C     C_R   0.522042 0.522224 0.726529 0.446251
C19   C     C_R   0.400243 0.415387 0.790571 -0.401668
H34   H     H_    0.366404 0.362426 0.804925 0.166426
C20   C     C_R   0.331267 0.425907 0.726571 0.344126
C21   C     C_R   0.814885 0.560975 0.193146 -0.268465
H35   H     H_    0.846047 0.611793 0.174883 0.204681
C22   C     C_R   0.876124 0.561798 0.262179 0.089649
C23   C     C_R   0.676592 0.437524 0.185017 -0.468691
H36   H     H_    0.622950 0.378271 0.153246 0.139741
C24   C     C_R   0.691866 0.461245 0.264572 0.261834
C25   C     C_R   0.506787 0.474084 0.835359 0.101637
C26   C     C_R   0.408102 0.468273 0.689321 -0.383023
H37   H     H_    0.363501 0.468865 0.635841 0.171056
C27   C     C_R   0.720258 0.494191 0.148780 0.201374
C28   C     C_R   0.798617 0.521146 0.301387 0.320225
C29   C     C_R   0.308551 0.433199 0.946283 -0.151554
C30   C     C_R   0.222967 0.397464 0.986752 -0.155649
C31   C     C_R   0.268531 0.404919 0.058404 -0.174375
C32   C     C_R   0.404578 0.442878 0.086782 -0.039291
C33   C     C_R   0.514793 0.459871 0.039955 0.063962
C34   C     C_R   0.463512 0.455350 0.965702 0.080430
C35   C     C_R   0.667347 0.484970 0.067189 0.011102
C36   C     C_R   0.766316 0.504072 0.015973 0.023444
C37   C     C_R   0.716811 0.496879 0.940948 0.081915
C38   C     C_R   0.562563 0.475106 0.914624 -0.050884
C39   C     C_R   0.919161 0.529205 0.036632 -0.115918
C40   C     C_R   0.003214 0.564755 0.995589 -0.052237
C41   C     C_R   0.961319 0.552039 0.922184 -0.171729
C42   C     C_R   0.829177 0.509684 0.892822 -0.141607
H38   H     H_    0.243872 0.448302 0.903348 0.148606
H39   H     H_    0.110254 0.374470 0.966823 0.152936
H40   H     H_    0.191614 0.387966 0.094433 0.124997
H41   H     H_    0.415811 0.460321 0.146590 0.201797
H42   H     H_    0.982299 0.517745 0.081829 0.138261
H43   H     H_    0.112987 0.591207 0.016709 0.151984
H44   H     H_    0.038743 0.569058 0.886686 0.190008
H45   H     H_    0.818048 0.487243 0.832125 0.181731
C43   C     C_2   0.393622 0.240371 0.485138 -0.608922
C44   C     C_R   0.800336 0.747827 0.515130 -0.362140
C45   C     C_2   0.244642 0.116219 0.411714 0.402887
C46   C     C_2   0.253892 0.204608 0.441950 0.233799
C47   C     C_2   0.509103 0.187326 0.500114 0.202396
C48   C     C_3   0.476759 0.095415 0.491243 -0.104754
C49   C     C_3   0.375338 0.052200 0.423222 -0.020343
C50   C     C_2   0.614883 0.032032 0.495742 -0.056547
C51   C     C_2   0.586856 0.962467 0.512183 -0.170459
C52   C     C_R   0.855454 0.923218 0.551925 0.059346
C53   C     C_R   0.712819 0.895860 0.518499 -0.084759
C54   C     C_R   0.968662 0.864319 0.567392 -0.307701
C55   C     C_R   0.941117 0.776584 0.550722 0.270140
C56   C     C_R   0.685732 0.806628 0.498500 0.166948
H46   H     H_    0.074360 0.888734 0.596128 0.179443
H47   H     H_    0.409425 0.309052 0.497699 0.187869
H48   H     H_    0.775935 0.681061 0.504175 0.212465
H49   H     H_    0.734395 0.039780 0.482371 0.174837
H50   H     H_    0.464862 0.954023 0.520599 0.171269
O25   O     O_3   0.766844 0.136358 0.288171 -0.537301
C57   C     C_3   0.798599 0.104853 0.208811 -0.106015
H51   H     H_    0.766024 0.157468 0.186312 0.139217
H52   H     H_    0.737136 0.045733 0.177630 0.093431
H53   H     H_    0.927200 0.084370 0.197699 0.143282
S1    S     S_3+6 0.223998 0.689139 0.756831 -0.003592
O26   O     O_2   0.248134 0.635476 0.805507 -0.364414
O27   O     O_2   0.296664 0.641115 0.679365 -0.308247
O28   O     O_3   0.284937 0.789465 0.802390 -0.487276
H54   H     H_    0.259449 0.822346 0.768789 0.372916
O29   O     O_3   0.943562 0.826269 0.846799 -0.556240
C58   C     C_3   0.927608 0.848525 0.926128 -0.113601
H55   H     H_    0.819785 0.825372 0.941216 0.115535
H56   H     H_    0.916597 0.921693 0.955466 0.150422
H57   H     H_    0.034463 0.820672 0.947310 0.167280
O30   O     O_3   0.320352 0.194122 0.169454 -0.586385
C59   C     C_3   0.403928 0.236989 0.132875 -0.179083
H58   H     H_    0.393810 0.309537 0.166728 0.149873
H59   H     H_    0.361270 0.223385 0.074236 0.133216
H60   H     H_    0.530772 0.210731 0.127815 0.159598
O31   O     O_3   0.225434 0.246155 0.690800 -0.662299
C60   C     C_3   0.246784 0.155383 0.642528 -0.370991
H61   H     H_    0.189365 0.145354 0.587367 0.180656
H62   H     H_    0.201325 0.112013 0.668480 0.146948
H63   H     H_    0.374734 0.133756 0.631589 0.195713
S2    S     S_3+6 0.466010 0.710748 0.223178 0.044832
O32   O     O_2   0.413824 0.622925 0.211666 -0.241628
O33   O     O_2   0.324301 0.774376 0.223802 -0.225882
O34   O     O_3   0.590311 0.699325 0.150971 -0.564300
H64   H     H_    0.528200 0.676533 0.104369 0.377553
O35   O     O_3   0.832916 0.538226 0.375900 -0.638407
C61   C     C_3   0.953313 0.473078 0.376842 0.127713
H65   H     H_    0.044930 0.455029 0.330875 0.025138
H66   H     H_    0.909017 0.412245 0.374865 0.114606
H67   H     H_    0.011053 0.502330 0.430858 0.245554
O36   O     O_3   0.117988 0.084132 0.366690 -0.557499
C62   C     C_3   0.173969 0.020695 0.294759 -0.072073
H68   H     H_    0.247504 0.049904 0.264573 0.137998
H69   H     H_    0.070966 0.997692 0.259433 0.155243
H70   H     H_    0.241806 0.961347 0.299268 0.179265
O37   O     O_3   0.564518 0.888324 0.294882 -0.547891
C63   C     C_3   0.660549 0.940387 0.274260 -0.055516
H71   H     H_    0.741531 0.899647 0.224689 0.139923
H72   H     H_    0.728452 0.979738 0.323664 0.149557
H73   H     H_    0.582030 0.986410 0.255941 0.136527
O38   O     O_3   0.503548 0.791100 0.665826 -0.573859
C64   C     C_3   0.526383 0.874874 0.664495 -0.297148
H74   H     H_    0.653581 0.882763 0.660679 0.126952
H75   H     H_    0.466728 0.930184 0.714278 0.145177
H76   H     H_    0.467521 0.884335 0.616431 0.209810

loop_
_geom_bond_atom_site_label_1
_geom_bond_atom_site_label_2
_geom_bond_distance
_ccdc_geom_bond_type
C9    H16   1.088445 S    
O35   C61   1.402269 S    
P7    O22   1.763915 S    
C47   C48   1.512474 S    
C4    O15   1.407414 S    
P2    Ba1   3.453380 S    
P3    C56   1.863751 S    
P4    O12   1.561318 D    
C2    H4    1.108646 S    
C51   H50   1.085415 S    
C39   H42   1.071886 S    
C20   C26   1.380030 A    
O31   C60   1.413426 S    
C23   C27   1.433328 A    
C10   H17   1.109418 S    
C5    H9    1.107498 S    
C3    O37   1.410968 S    
P5    O18   1.543762 D    
C29   C34   1.415558 A    
C59   H58   1.111598 S    
P8    O23   1.543075 D    
P3    O11   1.759307 S    
O3    P6    1.754209 S    
O1    Ba1   2.842206 S    
C12   H22   1.117585 S    
O30   C59   1.409041 S    
C2    C3    1.528818 S    
Ba1   Ba2   4.656686 S    
O6    P6    1.747499 S    
Ba2   O20   2.853641 S    
O16   P7    1.785088 S    
C6    H10   1.107246 S    
C3    H23   1.102646 S    
C18   C26   1.387462 A    
C19   C20   1.403154 A    
C11   H20   1.105445 S    
C28   O35   1.366280 S    
C35   C36   1.437848 A    
S1    O28   1.682259 S    
C37   C38   1.433940 A    
C40   H43   1.082979 S    
P1    O1    1.561017 D    
O34   H64   0.990588 S    
O2    Ba1   2.985288 S    
C39   C40   1.384726 A    
C41   C42   1.387915 A    
C64   H76   1.089162 S    
C63   H71   1.113255 S    
O17   Ba2   2.808872 S    
C40   C41   1.375386 A    
P1    C24   1.875009 S    
C62   H69   1.108083 S    
P8    O24   1.754556 S    
C50   H49   1.085024 S    
P2    O10   1.794242 S    
C54   H46   1.081884 S    
C4    H6    1.108646 S    
O4    P6    1.545422 D    
C14   H26   1.109156 S    
C1    H18   1.109725 S    
C2    S2    1.791921 S    
C21   C22   1.399275 A    
C15   C16   1.530610 S    
S1    O27   1.480408 D    
O3    Ba1   2.829965 S    
C61   H67   1.089397 S    
O12   Ba2   2.842689 S    
C45   C49   1.516841 S    
C59   H59   1.112307 S    
P2    C55   1.862560 S    
C3    H5    1.115225 S    
Ba1   O13   2.841311 S    
S2    O33   1.502696 D    
P4    O13   1.577879 S    
C57   H53   1.107246 S    
C32   H41   1.064533 S    
P1    Ba1   3.425836 S    
C33   C34   1.446436 A    
C61   H66   1.095865 S    
O8    Ba1   2.808253 S    
C60   H62   1.112165 S    
O10   C8    1.414468 S    
C9    H15   1.115918 S    
P5    O17   1.756185 S    
C44   C55   1.407254 A    
C13   H24   1.110903 S    
C30   C31   1.372271 A    
C29   H38   1.068227 S    
C16   H32   1.111279 S    
C25   C38   1.565711 S    
C11   O22   1.393522 S    
C41   H44   1.078822 S    
O2    Ba2   2.841916 S    
C19   H34   1.075199 S    
O11   C2    1.408250 S    
C11   C12   1.525569 S    
O16   Ba2   2.971879 S    
C7    O25   1.416938 S    
C5    H7    1.105423 S    
O37   C63   1.406295 S    
P1    O5    1.744379 S    
O19   C13   1.402769 S    
C44   C56   1.414320 A    
C12   H21   1.109617 S    
P1    O2    1.577879 S    
C63   H73   1.105503 S    
C37   C42   1.417274 A    
C43   C47   1.340995 D    
C51   C53   1.482414 S    
C48   C50   1.505629 S    
Ba1   O16   2.854417 S    
C60   H63   1.104109 S    
C1    H3    1.106810 S    
C17   H33   1.081093 S    
C44   H48   1.080774 S    
C58   H57   1.112258 S    
O29   C58   1.410620 S    
C62   H70   1.108772 S    
C17   C25   1.434464 A    
C26   H37   1.081974 S    
C14   H28   1.107259 S    
C23   C24   1.415244 A    
C7    H12   1.115922 S    
P7    C46   1.841402 S    
O14   P8    1.737610 S    
C23   H36   1.079738 S    
C15   O24   1.418530 S    
P2    O20   1.598084 S    
O14   Ba2   2.829327 S    
C8    S1    1.699916 S    
O36   C62   1.411831 S    
C17   C18   1.419421 A    
C58   H56   1.109192 S    
C59   H60   1.108425 S    
P3    O8    1.738217 S    
C54   C55   1.400974 A    
C30   H39   1.082046 S    
C36   C39   1.415499 A    
C57   H52   1.111929 S    
C1    C10   1.520999 S    
O6    C10   1.405622 S    
C36   C37   1.443854 A    
C48   C49   1.524798 S    
C21   H35   1.078429 S    
C9    O29   1.416772 S    
C61   H65   1.106583 S    
S1    O26   1.500563 D    
C1    H2    1.109059 S    
C13   H25   1.110614 S    
C34   C38   1.442134 A    
C8    H14   1.098975 S    
C6    C7    1.521425 S    
O5    C6    1.397255 S    
P5    C47   1.841484 S    
Ba2   O21   2.887444 S    
C43   H47   1.085596 S    
P2    O7    1.547321 D    
C16   H31   1.109426 S    
C52   C54   1.397790 A    
H1    C10   1.109634 S    
C4    O38   1.423484 S    
C33   C35   1.437472 A    
C45   O36   1.389917 S    
Ba1   O20   2.972809 S    
C60   H61   1.111119 S    
P4    C18   1.857535 S    
P5    O19   1.744545 S    
C27   C35   1.562060 S    
C21   C27   1.428174 A    
C15   O31   1.419010 S    
C13   C14   1.523046 S    
C22   C28   1.388738 A    
C43   C46   1.482584 S    
C8    C9    1.532017 S    
C50   C51   1.341610 D    
C64   H74   1.112053 S    
O25   C57   1.410760 S    
C6    H11   1.110934 S    
O13   Ba2   2.986115 S    
C11   H19   1.105701 S    
S2    O32   1.494243 D    
C24   C28   1.394494 A    
C53   C56   1.413975 A    
P7    O21   1.581713 D    
C29   C30   1.386463 A    
C7    H13   1.105225 S    
C12   O30   1.415771 S    
C4    C5    1.564086 S    
C31   C32   1.382916 A    
C15   H29   1.106857 S    
C63   H72   1.112822 S    
C64   H75   1.108339 S    
C31   H40   1.082825 S    
C19   C25   1.424043 A    
H30   C16   1.107070 S    
C42   H45   1.072885 S    
C58   H55   1.113222 S    
S2    O34   1.681597 S    
C62   H68   1.112865 S    
P3    O9    1.543053 D    
C32   C33   1.420841 A    
P4    O15   1.772511 S    
C57   H51   1.110605 S    
P6    C22   1.865585 S    
C14   H27   1.110306 S    
O7    Ba1   2.887265 S    
P8    C20   1.848573 S    
O38   C64   1.422736 S    
O28   H54   0.989760 S    
P4    Ba2   3.426381 S    
C52   C53   1.402083 A    
C45   C46   1.354790 D    
C5    H8    1.110156 S    
