data_mof_unit_68.cif
_audit_creation_date              2013-03-05T15:49:23-0500
_audit_creation_method            fapswitch 2.2
_symmetry_space_group_name_H-M    P1
_symmetry_Int_Tables_number       1
_space_group_crystal_system       triclinic
_cell_length_a                    17.222541
_cell_length_b                    13.002913
_cell_length_c                    11.738454
_cell_angle_alpha                 100.576732
_cell_angle_beta                  89.512757
_cell_angle_gamma                 91.189662
_cell_volume                      2583.49802714

loop_
_atom_site_label
_atom_site_type_symbol
_atom_site_description
_atom_site_fract_x
_atom_site_fract_y
_atom_site_fract_z
_atom_type_partial_charge
O1    O     O_R   0.504120 0.354440 0.581590 -0.561484
O2    O     O_R   0.495880 0.645560 0.418410 -0.586712
O3    O     O_R   0.494320 0.341440 0.386760 -0.619475
O4    O     O_R   0.505680 0.658560 0.613240 -0.631201
C1    C     C_R   0.498761 0.299114 0.478207 0.917216
C2    C     C_R   0.501600 0.700875 0.521736 0.756179
O5    O     O_R   0.391870 0.507230 0.608700 -0.584228
O6    O     O_R   0.608130 0.492770 0.391300 -0.591500
O7    O     O_R   0.382070 0.494240 0.413880 -0.573691
O8    O     O_R   0.617930 0.505760 0.586120 -0.552208
C3    C     C_R   0.351008 0.502578 0.516109 0.849564
C4    C     C_R   0.649102 0.501349 0.484465 0.839708
Cu1   Cu    Cu3+1 0.505800 0.507690 0.615350 1.005485
Cu2   Cu    Cu3+1 0.494200 0.492310 0.384650 0.988724
C5    C     C_R   0.267140 0.512647 0.529440 -0.204922
C6    C     C_R   0.733474 0.507936 0.473742 -0.212325
C7    C     C_R   0.217296 0.426426 0.487071 0.366284
C8    C     C_R   0.780222 0.436648 0.518676 0.362917
C9    C     C_R   0.137034 0.439918 0.495220 -0.123800
C10   C     C_R   0.860873 0.445982 0.510718 -0.134114
C11   C     C_R   0.106413 0.535973 0.547210 0.011840
C12   C     C_R   0.895121 0.523177 0.457155 0.013017
C13   C     C_R   0.155460 0.619348 0.593641 0.000870
C14   C     C_R   0.849219 0.591767 0.410254 0.006267
C15   C     C_R   0.236082 0.609611 0.584386 -0.090120
C16   C     C_R   0.768254 0.586808 0.419790 -0.096507
C17   C     C_2   0.022003 0.550070 0.551918 0.165684
C18   C     C_2   0.980080 0.533968 0.452381 0.166758
H1    H     H_    0.130290 0.692980 0.633858 0.208537
H2    H     H_    0.877193 0.651769 0.370328 0.209089
H3    H     H_    0.897374 0.392017 0.544910 0.185525
H4    H     H_    0.097906 0.375083 0.462496 0.186489
C19   C     C_R   0.501363 0.814514 0.534778 -0.071144
C20   C     C_R   0.499083 0.185441 0.465164 -0.036734
C21   C     C_R   0.508615 0.014213 0.343325 -0.004646
C22   C     C_R   0.491696 0.985696 0.656606 0.001397
C23   C     C_R   0.508219 0.122863 0.356027 -0.229774
C24   C     C_R   0.491894 0.877052 0.643861 -0.244451
C25   C     C_R   0.490689 0.139933 0.563387 -0.127170
C26   C     C_R   0.510049 0.860029 0.436613 -0.167826
C27   C     C_R   0.496065 0.031958 0.555851 0.115539
C28   C     C_R   0.504495 0.967982 0.444115 0.121367
H5    H     H_    0.522082 0.809960 0.354688 0.204412
H6    H     H_    0.478942 0.190022 0.645390 0.202982
H7    H     H_    0.486434 0.841146 0.720039 0.156662
H8    H     H_    0.513287 0.158738 0.279787 0.154455
N1    N     N_R   0.514530 0.519260 0.788680 -0.248944
N2    N     N_R   0.485470 0.480740 0.211320 -0.247099
C29   C     C_R   0.420434 0.410740 0.028442 0.259129
C30   C     C_R   0.580122 0.588619 0.971116 0.250965
C31   C     C_R   0.428357 0.418009 0.149999 0.017824
C32   C     C_R   0.571572 0.582169 0.849777 0.049286
C33   C     C_R   0.534789 0.536974 0.153527 0.104061
C34   C     C_R   0.465660 0.462449 0.846291 0.100374
C35   C     C_R   0.529342 0.531401 0.031406 -0.096424
C36   C     C_R   0.471170 0.468032 0.968334 -0.099451
H9    H     H_    0.422720 0.412121 0.796143 0.185491
H10   H     H_    0.577939 0.587066 0.203508 0.166205
N3    N     N_R   0.246778 0.324755 0.438385 0.133267
O9    O     O_R   0.309652 0.291156 0.478799 -0.388887
O10   O     O_R   0.205480 0.259909 0.364030 -0.259129
N4    N     N_R   0.747023 0.353556 0.570431 0.144384
O11   O     O_R   0.783210 0.321433 0.653875 -0.262961
O12   O     O_R   0.686536 0.300500 0.524700 -0.354209
C37   C     C_2   0.627424 0.642273 0.790385 0.545944
H11   H     H_    0.608058 0.700757 0.743278 0.055341
O13   O     O_2   0.697069 0.628538 0.796715 -0.448298
C38   C     C_2   0.371336 0.359444 0.209203 0.569390
H12   H     H_    0.389537 0.304782 0.261946 0.095610
O14   O     O_2   0.301866 0.370501 0.196796 -0.435265
N5    N     N_R   0.361437 0.343607 0.966604 0.132138
O15   O     O_R   0.304543 0.383471 0.918036 -0.276946
O16   O     O_R   0.361941 0.243305 0.964980 -0.314546
N6    N     N_R   0.640044 0.654278 0.032425 0.133322
O17   O     O_R   0.697078 0.612738 0.078831 -0.266808
O18   O     O_R   0.640283 0.754818 0.035540 -0.315446
C39   C     C_2   0.721611 0.667946 0.378698 0.476480
H13   H     H_    0.660172 0.675249 0.398110 0.035266
O19   O     O_2   0.751712 0.729233 0.323422 -0.453574
C40   C     C_2   0.286645 0.702188 0.629481 0.450006
H14   H     H_    0.349008 0.699077 0.618439 0.059399
O20   O     O_2   0.259010 0.784011 0.679683 -0.489364
N7    N     N_R   0.016759 0.524006 0.339873 0.135208
O21   O     O_R   0.981991 0.471002 0.249082 -0.251174
O22   O     O_R   0.078732 0.579172 0.325106 -0.286561
N8    N     N_R   0.985741 0.578586 0.664390 0.133854
O23   O     O_R   0.018717 0.554974 0.755300 -0.249226
O24   O     O_R   0.926502 0.640290 0.678965 -0.280374
C41   C     C_2   0.511926 0.954377 0.222748 0.423637
H15   H     H_    0.543767 0.987024 0.157055 0.104350
O25   O     O_2   0.475231 0.872603 0.193418 -0.513785
C42   C     C_2   0.488188 0.045480 0.777181 0.422026
H16   H     H_    0.455969 0.012982 0.842630 0.107729
O26   O     O_2   0.525138 0.127003 0.806802 -0.505148

loop_
_geom_bond_atom_site_label_1
_geom_bond_atom_site_label_2
_geom_bond_distance
_ccdc_geom_bond_type
C35   C36   1.408975 A    
C15   C40   1.489295 S    
C27   C28   1.426407 A    
C25   C27   1.395440 A    
C39   H13   1.082916 S    
O5    C3    1.291250 A    
N6    O18   1.301026 A    
O1    C1    1.295151 A    
C13   H1    1.084095 S    
C9    C11   1.397362 A    
C14   C16   1.399046 A    
C30   N6    1.436102 S    
N8    O24   1.301747 A    
C5    C15   1.419641 A    
C20   C23   1.395452 A    
O4    Cu1   1.966492 S    
C21   C28   1.422691 A    
C24   H7    1.084634 S    
N4    O12   1.301171 A    
C3    C5    1.457544 S    
N2    C31   1.383542 A    
C4    C6    1.459576 S    
C38   H12   1.077436 S    
C37   O13   1.221241 D    
C30   C32   1.420076 A    
C41   O25   1.220651 D    
C22   C42   1.485858 S    
C39   O19   1.221377 D    
C11   C17   1.468341 S    
N3    O9    1.301135 A    
C12   C18   1.468590 S    
Cu1   Cu2   2.687422 S    
C18   N7    1.444445 S    
C22   C27   1.422710 A    
O2    C2    1.294979 A    
C9    H4    1.083668 S    
C33   C35   1.425793 A    
C6    C16   1.420609 A    
N2    C33   1.364874 A    
C34   C36   1.424941 A    
N3    O10   1.301589 A    
C19   C26   1.394347 A    
N6    O17   1.300947 A    
C20   C25   1.394444 A    
C16   C39   1.489868 S    
O4    C2    1.296628 A    
N5    O16   1.301070 A    
N8    O23   1.301320 A    
C8    N4    1.439708 S    
Cu2   N2    2.019117 S    
C29   C31   1.420150 A    
C17   N8    1.444457 S    
O7    Cu2   1.958401 S    
N4    O11   1.301415 A    
N7    O21   1.301321 A    
O6    C4    1.292839 A    
C1    C20   1.457895 S    
C26   H5    1.078880 S    
C42   O26   1.220657 D    
C6    C8    1.415412 A    
O7    C3    1.296804 A    
N1    C32   1.382696 A    
O3    Cu2   1.966490 S    
O8    C4    1.296403 A    
C7    N3    1.441439 S    
N1    C34   1.363572 A    
C21   C41   1.485973 S    
C40   O20   1.221417 D    
N7    O22   1.301720 A    
C10   C12   1.396978 A    
C11   C13   1.392412 A    
C12   C14   1.393000 A    
O1    Cu1   1.958729 S    
Cu1   N1    2.019118 S    
C5    C7    1.415557 A    
O6    Cu2   1.964219 S    
C21   C23   1.393279 A    
C19   C24   1.395403 A    
C40   H14   1.081446 S    
O3    C1    1.296562 A    
O8    Cu1   1.958402 S    
C33   H10   1.080640 S    
C25   H6    1.078757 S    
C29   C36   1.404200 A    
C30   C35   1.405342 A    
C2    C19   1.457414 S    
C22   C24   1.393086 A    
C23   H8    1.084614 S    
N5    O15   1.301124 A    
C26   C28   1.395469 A    
C42   H16   1.085774 S    
C7    C9    1.397277 A    
C8    C10   1.395624 A    
C31   C38   1.476107 S    
C13   C15   1.398380 A    
O2    Cu2   1.958732 S    
C14   H2    1.084104 S    
O5    Cu1   1.964221 S    
C38   O14   1.221139 D    
C37   H11   1.078574 S    
C29   N5    1.436811 S    
C17   C18   1.359633 D    
C41   H15   1.085759 S    
C10   H3    1.083820 S    
C32   C37   1.476329 S    
C34   H9    1.080539 S    
