data_mof_unit_633.cif
_audit_creation_date              2012-12-10T19:10:02-0500
_audit_creation_method            fapswitch 2.2
_symmetry_space_group_name_H-M    P1
_symmetry_Int_Tables_number       1
_space_group_crystal_system       triclinic
_cell_length_a                    11.037967
_cell_length_b                    11.022655
_cell_length_c                    9.627976
_cell_angle_alpha                 93.429287
_cell_angle_beta                  89.964553
_cell_angle_gamma                 95.49429
_cell_volume                      1163.92864264

loop_
_atom_site_label
_atom_site_type_symbol
_atom_type_description
_atom_site_fract_x
_atom_site_fract_y
_atom_site_fract_z
_atom_type_partial_charge
C1    C     C_R   0.497112 0.261083 0.495358 0.799919
C2    C     C_R   0.155295 0.392185 0.954933 -0.080124
C3    C     C_R   0.933077 0.503577 0.377039 -0.243032
C4    C     C_R   0.870812 0.500582 0.502208 -0.137590
C5    C     C_R   0.936479 0.492711 0.626468 -0.083211
C6    C     C_R   0.064101 0.518108 0.623586 0.350436
C7    C     C_R   0.126892 0.502856 0.496918 -0.127725
C8    C     C_R   0.057013 0.489863 0.371668 -0.049613
C9    C     C_R   0.873946 0.467957 0.878383 -0.179940
C10   C     C_R   0.803047 0.403802 0.975320 -0.252060
C11   C     C_R   0.738740 0.290721 0.937055 0.456000
C12   C     C_R   0.261828 0.500610 0.499186 0.800495
C13   C     C_R   0.749950 0.240707 0.801718 -0.111146
C14   C     C_R   0.817556 0.305619 0.703653 -0.214931
C15   C     C_R   0.878237 0.421568 0.739779 0.147754
C16   C     C_R   0.513024 0.070271 0.612414 -0.008455
C17   C     C_R   0.494690 0.125022 0.487294 -0.175727
C18   C     C_R   0.469524 0.044426 0.365460 0.026082
C19   C     C_R   0.452622 0.917286 0.380953 0.394154
C20   C     C_R   0.481791 0.867121 0.505829 -0.167215
C21   C     C_R   0.510231 0.944532 0.622442 0.038596
C22   C     C_3   0.439902 0.951380 0.755862 0.240995
C23   C     C_R   0.494265 0.736218 0.503438 0.829266
C24   C     C_3   0.445715 0.087516 0.744255 -0.430358
C25   C     C_R   0.538456 0.603563 0.079923 0.172695
C26   C     C_R   0.446891 0.404912 0.067921 -0.074855
C27   C     C_R   0.448072 0.403718 0.919576 -0.053616
C28   C     C_R   0.537636 0.603775 0.933106 0.191250
C29   C     C_3   0.658124 0.676944 0.929074 0.071466
C30   C     C_3   0.660516 0.676484 0.088425 0.155326
C31   C     C_R   0.737274 0.499790 0.500395 0.825162
C32   C     C_R   0.198736 0.506105 0.017324 -0.153912
C33   C     C_R   0.170035 0.537652 0.154508 -0.116182
C34   C     C_R   0.102095 0.453171 0.232907 0.130415
C35   C     C_R   0.055992 0.339836 0.169327 -0.229179
C36   C     C_R   0.080029 0.308823 0.029239 0.124316
Cu1   Cu    Cu3+1 0.499990 0.499980 0.640670 0.979212
Cu2   Cu    Cu3+1 0.500010 0.500020 0.359330 0.958265
H1    H     H_    0.180449 0.370794 0.848574 0.167911
H2    H     H_    0.708879 0.149920 0.773035 0.140568
H3    H     H_    0.822347 0.265442 0.598531 0.128072
H4    H     H_    0.488113 0.925975 0.849360 0.172087
H5    H     H_    0.356001 0.122469 0.727916 0.205384
H6    H     H_    0.504798 0.139362 0.824453 0.187584
H7    H     H_    0.399634 0.332080 0.119738 0.155718
H8    H     H_    0.255532 0.570499 0.959352 0.185338
H9    H     H_    0.403940 0.326470 0.859489 0.131430
H10   H     H_    0.727187 0.627592 0.873098 0.123849
H11   H     H_    0.733292 0.626397 0.130430 0.108286
H12   H     H_    0.200336 0.627726 0.199454 0.136318
H13   H     H_    0.998033 0.276859 0.228365 0.139945
H14   H     H_    0.883329 0.505509 0.280959 0.163096
H15   H     H_    0.918266 0.556447 0.911394 0.122734
H16   H     H_    0.798103 0.441543 0.080376 0.114678
N1    N     N_R   0.500790 0.500930 0.147930 -0.215788
N2    N     N_R   0.500790 0.500890 0.852020 -0.210609
O1    O     O_R   0.500000 0.319640 0.618810 -0.581811
O2    O     O_R   0.500010 0.319680 0.381230 -0.609533
O3    O     O_R   0.319640 0.499990 0.618790 -0.538559
O4    O     O_R   0.319650 0.500030 0.381210 -0.597169
O5    O     O_R   0.499990 0.680320 0.618770 -0.561526
O6    O     O_R   0.500000 0.680360 0.381190 -0.523884
O7    O     O_R   0.680350 0.499970 0.618790 -0.569097
O8    O     O_R   0.680360 0.500010 0.381210 -0.597914
O9    O     O_3   0.671215 0.223931 0.031399 -0.790724
H17   H     H_    0.675643 0.270368 0.123023 0.322444
C37   C     C_3   0.460363 0.082853 0.217145 -0.322736
C38   C     C_3   0.340532 0.029934 0.144383 -0.296097
C39   C     C_3   0.293761 0.113994 0.045637 -0.953360
H18   H     H_    0.247342 0.183446 0.106691 0.268318
H19   H     H_    0.368783 0.158284 0.987154 0.260781
H20   H     H_    0.231460 0.058712 0.971620 0.288384
H21   H     H_    0.356612 0.945518 0.080556 0.264870
H22   H     H_    0.267470 0.007987 0.221268 0.235860
H23   H     H_    0.474513 0.180658 0.208011 0.228941
H24   H     H_    0.536911 0.046923 0.157688 0.220643
O10   O     O_3   0.402752 0.841350 0.272732 -0.762184
H25   H     H_    0.334074 0.789274 0.311541 0.313982
O11   O     O_3   0.320335 0.896078 0.741337 -0.726564
H26   H     H_    0.323851 0.809435 0.762256 0.343816
O12   O     O_3   0.647974 0.791981 0.878815 -0.740742
H27   H     H_    0.731624 0.833995 0.880612 0.337362
O13   O     O_3   0.657231 0.792490 0.157232 -0.675339
H28   H     H_    0.587311 0.831255 0.120665 0.381978
C40   C     C_3   0.024810 0.186058 0.966273 -0.406160
C41   C     C_3   0.058637 0.155946 0.813585 -0.367750
C42   C     C_3   0.002120 0.029455 0.762212 -0.788799
H29   H     H_    0.036230 0.958404 0.825010 0.262451
H30   H     H_    0.901369 0.024203 0.769609 0.242360
H31   H     H_    0.027251 0.010989 0.651801 0.249345
H32   H     H_    0.027339 0.224419 0.745948 0.225958
H33   H     H_    0.158578 0.159148 0.801551 0.215154
H34   H     H_    0.049261 0.112765 0.031851 0.200185
H35   H     H_    0.925253 0.181959 0.974875 0.225004
O14   O     O_3   0.128022 0.562740 0.740661 -0.752515
H36   H     H_    0.076651 0.616934 0.794818 0.315090

loop_
_geom_bond_atom_site_label_1
_geom_bond_atom_site_label_2
_ccdc_geom_bond_type
C42   H29   S    
C16   C21   A    
O14   H36   S    
C26   N1    A    
O12   H27   S    
C28   N2    A    
C7    C8    A    
O10   H25   S    
C25   C28   A    
C26   C27   A    
Cu1   Cu2   S    
C28   C29   S    
C22   O11   S    
C34   C35   A    
C41   H32   S    
C5    C6    A    
C38   H22   S    
C2    C36   A    
C2    C32   A    
C18   C19   A    
C30   O13   S    
C39   H19   S    
C13   H2    S    
C26   H7    S    
Cu2   O2    S    
Cu1   N2    S    
C40   H34   S    
C2    H1    S    
C23   O6    A    
Cu2   N1    S    
C19   C20   A    
C16   C17   A    
C9    C10   A    
C16   C24   S    
C21   C22   S    
C12   O3    A    
Cu1   O7    S    
C33   C34   A    
Cu2   O8    S    
C7    C12   S    
C29   H10   S    
C37   C38   S    
C31   O7    A    
C18   C37   S    
C3    C8    A    
C41   C42   S    
C38   C39   S    
C38   H21   S    
C40   C41   S    
C35   C36   A    
C39   H20   S    
C29   O12   S    
C29   C30   S    
C1    O1    A    
C19   O10   S    
C40   H35   S    
O13   H28   S    
C20   C23   S    
C17   C18   A    
C8    C34   S    
Cu1   O3    S    
C14   H3    S    
Cu2   O4    S    
C30   H11   S    
C6    O14   S    
C42   H30   S    
C35   H13   S    
C24   H6    S    
C22   C24   S    
C37   H23   S    
C3    C4    A    
C27   H9    S    
C25   C30   S    
C27   N2    A    
C32   H8    S    
C31   O8    A    
C25   N1    A    
C4    C5    A    
Cu1   O5    S    
C3    H14   S    
C6    C7    A    
C36   C40   S    
C1    C17   S    
C32   C33   A    
C33   H12   S    
C41   H33   S    
C1    O2    A    
C11   C13   A    
C22   H4    S    
C9    C15   A    
C39   H18   S    
C10   H16   S    
C5    C15   S    
C4    C31   S    
C10   C11   A    
O11   H26   S    
C12   O4    A    
C23   O5    A    
C9    H15   S    
C20   C21   A    
O9    H17   S    
C42   H31   S    
C24   H5    S    
C14   C15   A    
C37   H24   S    
C13   C14   A    
Cu1   O1    S    
C11   O9    S    
Cu2   O6    S    
