data_mof_unit_1299.cif
_audit_creation_date              2012-12-11T15:22:28-0500
_audit_creation_method            fapswitch 2.2
_symmetry_space_group_name_H-M    P1
_symmetry_Int_Tables_number       1
_space_group_crystal_system       triclinic
_cell_length_a                    22.351732
_cell_length_b                    13.021737
_cell_length_c                    26.894032
_cell_angle_alpha                 90.031673
_cell_angle_beta                  90.979248
_cell_angle_gamma                 90.070532
_cell_volume                      7826.58281287

loop_
_atom_site_label
_atom_site_type_symbol
_atom_type_description
_atom_site_fract_x
_atom_site_fract_y
_atom_site_fract_z
_atom_type_partial_charge
C1    C     C_R   0.720517 0.344749 0.178195 0.539004
C2    C     C_R   0.279313 0.345476 0.821447 0.538124
C3    C     C_R   0.220525 0.844772 0.178206 0.538514
C4    C     C_R   0.779306 0.845493 0.821442 0.535470
C5    C     C_R   0.477533 0.164549 0.870451 -0.014660
C6    C     C_R   0.527887 0.160928 0.127092 -0.008595
C7    C     C_R   0.977516 0.664542 0.870459 -0.013664
C8    C     C_R   0.027874 0.660931 0.127099 -0.008635
C9    C     C_R   0.517641 0.255002 0.102944 -0.148947
C10   C     C_R   0.479632 0.258356 0.896333 -0.146274
C11   C     C_R   0.017639 0.755007 0.102948 -0.148960
C12   C     C_R   0.979615 0.758350 0.896340 -0.145696
C13   C     C_R   0.508000 0.257228 0.051375 0.009545
C14   C     C_R   0.491896 0.259450 0.947465 0.008115
C15   C     C_R   0.007989 0.757229 0.051381 0.009550
C16   C     C_R   0.991876 0.759445 0.947472 0.008067
C17   C     C_R   0.509646 0.164488 0.024162 0.074835
C18   C     C_R   0.502807 0.165811 0.972310 0.074604
C19   C     C_R   0.009618 0.664485 0.024172 0.074740
C20   C     C_R   0.002776 0.665804 0.972320 0.074432
C21   C     C_R   0.498713 0.350398 0.026264 -0.143871
C22   C     C_R   0.490225 0.351417 0.974639 -0.144618
C23   C     C_R   0.998711 0.850400 0.026268 -0.143837
C24   C     C_R   0.990218 0.851415 0.974645 -0.144505
C25   C     C_R   0.739700 0.954902 0.130402 0.021191
C26   C     C_R   0.258570 0.951502 0.868506 0.018327
C27   C     C_R   0.239714 0.454868 0.130412 0.021154
C28   C     C_R   0.758544 0.451433 0.868484 0.019309
C29   C     C_R   0.794612 0.965646 0.106494 -0.125834
C30   C     C_R   0.204431 0.967167 0.893015 -0.124675
C31   C     C_R   0.294597 0.465772 0.106477 -0.125797
C32   C     C_R   0.704421 0.467173 0.893005 -0.124879
C33   C     C_R   0.798865 0.942773 0.056196 -0.122648
C34   C     C_R   0.199652 0.942154 0.942993 -0.121451
C35   C     C_R   0.298840 0.442886 0.056181 -0.122639
C36   C     C_R   0.699638 0.442125 0.942979 -0.121517
C37   C     C_R   0.748266 0.909212 0.029147 0.070364
C38   C     C_R   0.248800 0.900670 0.969137 0.070529
C39   C     C_R   0.248265 0.409123 0.029161 0.070340
C40   C     C_R   0.748764 0.400514 0.969106 0.070569
C41   C     C_R   0.694268 0.892771 0.053481 -0.066189
C42   C     C_R   0.301418 0.877731 0.943857 -0.061664
C43   C     C_R   0.194304 0.392508 0.053526 -0.066216
C44   C     C_R   0.801354 0.377474 0.943805 -0.061832
C45   C     C_R   0.553827 0.156910 0.177387 0.543955
C46   C     C_R   0.447042 0.157473 0.822035 0.539363
C47   C     C_R   0.053824 0.656910 0.177389 0.544017
C48   C     C_R   0.947038 0.657472 0.822038 0.538051
C49   C     C_R   0.690041 0.914998 0.103900 -0.131615
C50   C     C_R   0.306301 0.902922 0.893778 -0.131016
C51   C     C_R   0.190083 0.414772 0.103943 -0.131731
C52   C     C_R   0.806243 0.402714 0.893732 -0.131001
C53   C     C_R   0.711911 0.938303 0.941531 0.378642
C54   C     C_R   0.290038 0.921373 0.055920 0.375247
C55   C     C_R   0.211775 0.437898 0.941551 0.378803
C56   C     C_R   0.790076 0.421050 0.055877 0.375288
C57   C     C_R   0.719442 0.926141 0.889969 -0.003670
C58   C     C_R   0.284308 0.909379 0.107722 0.016863
C59   C     C_R   0.219305 0.425758 0.889988 -0.003747
C60   C     C_R   0.784355 0.409086 0.107682 0.016960
C61   C     C_R   0.807321 0.820316 0.907673 -0.141281
C62   C     C_R   0.187244 0.828183 0.092496 -0.143953
C63   C     C_R   0.307453 0.320588 0.907672 -0.141671
C64   C     C_R   0.687166 0.328311 0.092492 -0.144024
C65   C     C_R   0.799769 0.832906 0.958127 -0.185986
C66   C     C_R   0.194108 0.837482 0.041782 -0.181885
C67   C     C_R   0.299888 0.333118 0.958127 -0.185843
C68   C     C_R   0.694026 0.337547 0.041775 -0.181777
C69   C     C_R   0.752487 0.892136 0.975473 0.024545
C70   C     C_R   0.245049 0.884735 0.023036 0.025685
C71   C     C_R   0.252478 0.392030 0.975486 0.024706
C72   C     C_R   0.745023 0.384585 0.023008 0.025775
C73   C     C_R   0.767946 0.866768 0.873470 -0.005925
C74   C     C_R   0.231431 0.864335 0.125758 -0.008262
C75   C     C_R   0.267954 0.366755 0.873477 -0.006627
C76   C     C_R   0.731417 0.364290 0.125741 -0.008430
C77   C     C_R   0.529133 0.169076 0.371391 0.019862
C78   C     C_R   0.473791 0.168628 0.629777 0.019975
C79   C     C_R   0.029111 0.668797 0.371418 0.020848
C80   C     C_R   0.974110 0.668899 0.629933 0.023129
C81   C     C_R   0.541534 0.258061 0.399324 -0.123573
C82   C     C_R   0.466120 0.259765 0.602519 -0.126993
C83   C     C_R   0.039875 0.758933 0.398902 -0.124720
C84   C     C_R   0.965932 0.759725 0.602520 -0.125269
C85   C     C_R   0.531158 0.259999 0.450112 -0.118772
C86   C     C_R   0.478438 0.262099 0.552036 -0.120735
C87   C     C_R   0.029941 0.761049 0.449772 -0.119662
C88   C     C_R   0.978522 0.762085 0.552094 -0.119959
C89   C     C_R   0.731158 0.001737 0.179345 0.557815
C90   C     C_R   0.268549 0.001157 0.820396 0.556832
C91   C     C_R   0.231160 0.501731 0.179348 0.557725
C92   C     C_R   0.768543 0.501141 0.820391 0.545226
C93   C     C_R   0.507246 0.173668 0.473786 0.035905
C94   C     C_R   0.499442 0.173814 0.528080 0.036568
C95   C     C_R   0.008087 0.673690 0.473988 0.036291
C96   C     C_R   0.000499 0.674246 0.528352 0.036569
C97   C     C_R   0.491241 0.087021 0.445322 -0.122702
C98   C     C_R   0.511455 0.085020 0.556130 -0.122437
C99   C     C_R   0.993563 0.585762 0.445928 -0.123086
C100  C     C_R   0.013256 0.586018 0.556654 -0.117712
C101  C     C_R   0.502400 0.084529 0.394509 -0.135649
C102  C     C_R   0.498533 0.082320 0.606600 -0.135095
C103  C     C_R   0.004243 0.583168 0.395054 -0.136463
C104  C     C_R   0.999809 0.583136 0.607038 -0.126270
C105  C     C_R   0.720918 0.030741 0.382283 0.020594
C106  C     C_R   0.279407 0.031865 0.617819 0.019381
C107  C     C_R   0.220638 0.531816 0.382218 0.019021
C108  C     C_R   0.757298 0.448582 0.630260 0.024095
C109  C     C_R   0.667966 0.007446 0.407336 -0.129582
C110  C     C_R   0.331842 0.004169 0.593089 -0.131090
C111  C     C_R   0.168256 0.503538 0.406915 -0.130682
C112  C     C_R   0.806585 0.407811 0.605397 -0.128263
C113  C     C_R   0.668691 0.994824 0.458835 -0.116289
C114  C     C_R   0.331052 0.990758 0.541659 -0.118869
C115  C     C_R   0.169032 0.490142 0.458342 -0.118482
C116  C     C_R   0.802314 0.386748 0.555127 -0.126169
C117  C     C_R   0.722521 0.004917 0.486047 0.037854
C118  C     C_R   0.277674 0.004362 0.514209 0.037185
C119  C     C_R   0.222361 0.504258 0.485836 0.037037
C120  C     C_R   0.748147 0.402801 0.529354 0.037849
C121  C     C_R   0.775139 0.030542 0.461050 -0.122181
C122  C     C_R   0.225756 0.035127 0.538848 -0.120694
C123  C     C_R   0.274230 0.535574 0.461227 -0.120303
C124  C     C_R   0.696898 0.431217 0.555565 -0.118686
C125  C     C_R   0.774310 0.043793 0.409768 -0.129278
C126  C     C_R   0.226720 0.049538 0.590048 -0.129583
C127  C     C_R   0.273266 0.550014 0.410027 -0.129344
C128  C     C_R   0.701594 0.455152 0.605836 -0.128706
C129  C     C_R   0.764738 0.032734 0.571499 -0.119025
C130  C     C_R   0.236237 0.032307 0.428526 -0.120009
C131  C     C_R   0.263795 0.532316 0.571573 -0.119934
C132  C     C_R   0.711426 0.466514 0.447158 -0.121183
C133  C     C_R   0.721383 0.346927 0.321930 0.534325
C134  C     C_R   0.278225 0.348251 0.678477 0.533283
C135  C     C_R   0.221761 0.848226 0.321535 0.533714
C136  C     C_R   0.778165 0.848491 0.678529 0.541240
C137  C     C_R   0.779199 0.993351 0.618289 -0.129601
C138  C     C_R   0.221704 0.993139 0.381699 -0.127578
C139  C     C_R   0.278306 0.493197 0.618388 -0.127811
C140  C     C_R   0.707271 0.457102 0.395791 -0.128975
C141  C     C_R   0.711064 0.851075 0.603746 -0.130613
C142  C     C_R   0.287440 0.848220 0.397004 -0.129830
C143  C     C_R   0.212556 0.348038 0.602990 -0.130610
C144  C     C_R   0.778901 0.317323 0.399187 -0.128044
C145  C     C_R   0.697160 0.889792 0.556665 -0.121121
C146  C     C_R   0.301242 0.886521 0.444171 -0.120207
C147  C     C_R   0.198783 0.386282 0.555832 -0.120444
C148  C     C_R   0.781441 0.324283 0.450466 -0.119711
C149  C     C_R   0.725957 0.978439 0.539333 0.035998
C150  C     C_R   0.273821 0.976740 0.461072 0.035401
C151  C     C_R   0.226223 0.476609 0.538973 0.035497
C152  C     C_R   0.746545 0.397146 0.474979 0.038686
C153  C     C_R   0.754352 0.899981 0.633870 0.020420
C154  C     C_R   0.245440 0.898849 0.366424 0.023689
C155  C     C_R   0.254555 0.398814 0.633611 0.023205
C156  C     C_R   0.739197 0.379622 0.371793 0.024889
C157  C     C_R   0.554589 0.158882 0.321689 0.529953
C158  C     C_R   0.445909 0.158852 0.678585 0.528537
C159  C     C_R   0.054589 0.658846 0.321699 0.530581
C160  C     C_R   0.945966 0.658883 0.678622 0.542302
C161  C     C_R   0.719363 0.047608 0.328194 0.564563
C162  C     C_R   0.280779 0.047979 0.671924 0.566081
C163  C     C_R   0.219249 0.547989 0.328113 0.565660
C164  C     C_R   0.767702 0.500670 0.677557 0.545054
C165  C     C_R   0.525025 0.068761 0.099962 -0.130018
C166  C     C_R   0.493719 0.073238 0.894692 -0.129745
C167  C     C_R   0.024988 0.568760 0.099974 -0.129965
C168  C     C_R   0.993684 0.573227 0.894705 -0.129506
C169  C     C_R   0.518077 0.070052 0.048744 0.028330
C170  C     C_R   0.505176 0.072808 0.945491 0.042241
C171  C     C_R   0.018039 0.570048 0.048756 0.028327
C172  C     C_R   0.005134 0.572797 0.945503 0.042165
C173  C     C_R   0.515370 0.979799 0.970236 -0.065685
C174  C     C_R   0.521599 0.978386 0.021684 -0.089038
C175  C     C_R   0.015315 0.479787 0.970250 -0.065244
C176  C     C_R   0.021551 0.478378 0.021698 -0.088647
Cr1   Cr    Cr6+3 0.756570 0.170940 0.251190 0.997128
Cr2   Cr    Cr6+3 0.243430 0.170940 0.748810 1.002216
Cr3   Cr    Cr6+3 0.256570 0.670940 0.251190 0.998803
Cr4   Cr    Cr6+3 0.743430 0.670940 0.748810 1.008428
Cr5   Cr    Cr6+3 0.623740 0.299110 0.249580 1.006788
Cr6   Cr    Cr6+3 0.376260 0.299110 0.750420 1.002433
Cr7   Cr    Cr6+3 0.123740 0.799110 0.249580 1.005538
Cr8   Cr    Cr6+3 0.876260 0.799110 0.750420 1.009711
Cr9   Cr    Cr6+3 0.625990 0.036240 0.250480 1.006700
Cr10  Cr    Cr6+3 0.374010 0.036240 0.749520 1.000987
Cr11  Cr    Cr6+3 0.125990 0.536240 0.250480 1.005203
Cr12  Cr    Cr6+3 0.874010 0.536240 0.749520 1.001552
H1    H     H_    0.492381 0.000660 0.874943 0.123277
H2    H     H_    0.532804 0.995516 0.118108 0.123368
H3    H     H_    0.992333 0.500645 0.874961 0.123221
H4    H     H_    0.032756 0.495513 0.118121 0.123371
H5    H     H_    0.844085 0.773226 0.895111 0.145975
H6    H     H_    0.147382 0.790626 0.105963 0.149886
H7    H     H_    0.344316 0.273738 0.895104 0.145976
H8    H     H_    0.647259 0.290921 0.105972 0.149843
H9    H     H_    0.655184 0.864851 0.033264 0.140077
H10   H     H_    0.339244 0.843223 0.963199 0.145414
H11   H     H_    0.155240 0.364425 0.033336 0.140169
H12   H     H_    0.839160 0.342860 0.963130 0.145367
H13   H     H_    0.647001 0.906338 0.121333 0.122504
H14   H     H_    0.348561 0.889671 0.875745 0.125579
H15   H     H_    0.147066 0.405979 0.121399 0.122422
H16   H     H_    0.848487 0.389390 0.875685 0.125197
H17   H     H_    0.563024 0.323972 0.382716 0.136050
H18   H     H_    0.446691 0.327350 0.619271 0.133610
H19   H     H_    0.059783 0.825838 0.381868 0.135655
H20   H     H_    0.945787 0.826904 0.619067 0.133901
H21   H     H_    0.529344 0.016840 0.538770 0.096232
H22   H     H_    0.471208 0.020439 0.462526 0.098183
H23   H     H_    0.032004 0.518269 0.539536 0.096404
H24   H     H_    0.975011 0.518289 0.463462 0.102379
H25   H     H_    0.505146 0.011262 0.626865 0.122892
H26   H     H_    0.492529 0.015037 0.373778 0.124129
H27   H     H_    0.006917 0.512407 0.627467 0.121707
H28   H     H_    0.995572 0.512768 0.374694 0.123132
H29   H     H_    0.544332 0.327483 0.471172 0.099918
H30   H     H_    0.468584 0.331484 0.531308 0.102327
H31   H     H_    0.041873 0.829671 0.470439 0.102666
H32   H     H_    0.967999 0.831025 0.531243 0.102368
H33   H     H_    0.626016 0.998774 0.387121 0.139273
H34   H     H_    0.373407 0.992446 0.613497 0.139288
H35   H     H_    0.126745 0.491320 0.386476 0.139260
H36   H     H_    0.850077 0.401029 0.623494 0.132318
H37   H     H_    0.786319 0.102743 0.559425 0.104972
H38   H     H_    0.215722 0.103439 0.440235 0.106194
H39   H     H_    0.284312 0.603546 0.559920 0.105814
H40   H     H_    0.685997 0.526285 0.465119 0.102549
H41   H     H_    0.811829 0.033523 0.641346 0.123456
H42   H     H_    0.190016 0.034431 0.358284 0.126495
H43   H     H_    0.309987 0.534609 0.641838 0.125608
H44   H     H_    0.676736 0.506489 0.375237 0.125110
H45   H     H_    0.517310 0.908019 0.949914 0.094473
H46   H     H_    0.529254 0.905666 0.040304 0.084561
H47   H     H_    0.017244 0.408003 0.949932 0.094449
H48   H     H_    0.029209 0.405660 0.040317 0.084529
H49   H     H_    0.627395 0.976076 0.477289 0.102423
H50   H     H_    0.371909 0.968502 0.523467 0.100927
H51   H     H_    0.128201 0.467478 0.476492 0.100721
H52   H     H_    0.842648 0.365174 0.536038 0.097706
H53   H     H_    0.667304 0.846106 0.532578 0.100728
H54   H     H_    0.330024 0.841619 0.468546 0.098822
H55   H     H_    0.170003 0.341255 0.531434 0.098659
H56   H     H_    0.808776 0.269548 0.470853 0.096934
H57   H     H_    0.691097 0.779114 0.615044 0.127780
H58   H     H_    0.306495 0.775487 0.385906 0.119208
H59   H     H_    0.193487 0.275230 0.614045 0.118962
H60   H     H_    0.804276 0.257099 0.381540 0.125288
H61   H     H_    0.817550 0.036910 0.480886 0.099124
H62   H     H_    0.183660 0.044493 0.518856 0.100252
H63   H     H_    0.316298 0.545358 0.481236 0.100838
H64   H     H_    0.653996 0.439957 0.536731 0.099633
H65   H     H_    0.815781 0.062843 0.391685 0.125160
H66   H     H_    0.185807 0.072677 0.607878 0.125562
H67   H     H_    0.314137 0.573593 0.392223 0.125979
H68   H     H_    0.662768 0.484647 0.624689 0.123096
H69   H     H_    0.467418 0.329218 0.877630 0.127363
H70   H     H_    0.520050 0.326259 0.123752 0.121883
H71   H     H_    0.967410 0.829214 0.877636 0.127482
H72   H     H_    0.020065 0.826266 0.123754 0.121825
H73   H     H_    0.481821 0.423891 0.956036 0.107975
H74   H     H_    0.497547 0.422240 0.046566 0.106547
H75   H     H_    0.981823 0.923891 0.956040 0.107931
H76   H     H_    0.997557 0.922245 0.046569 0.106467
H77   H     H_    0.833460 0.996443 0.126001 0.126966
H78   H     H_    0.166885 0.004170 0.874430 0.129740
H79   H     H_    0.333424 0.496716 0.125956 0.127099
H80   H     H_    0.666896 0.504274 0.874437 0.129117
H81   H     H_    0.841074 0.955280 0.037901 0.106803
H82   H     H_    0.158473 0.959933 0.961836 0.107743
H83   H     H_    0.341021 0.455541 0.037866 0.106818
H84   H     H_    0.658480 0.459988 0.961833 0.107680
H85   H     H_    0.831025 0.796334 0.983769 0.146516
H86   H     H_    0.159311 0.808015 0.017073 0.146088
H87   H     H_    0.331238 0.296752 0.983759 0.146488
H88   H     H_    0.659179 0.308204 0.017079 0.146014
O1    O     O_R   0.769900 0.064540 0.196060 -0.515504
O2    O     O_R   0.230100 0.064540 0.803940 -0.515237
O3    O     O_R   0.269900 0.564540 0.196060 -0.515441
O4    O     O_R   0.730100 0.564540 0.803940 -0.520831
O5    O     O_R   0.574760 0.239320 0.300850 -0.503121
O6    O     O_R   0.425240 0.239320 0.699150 -0.503689
O7    O     O_R   0.074760 0.739320 0.300850 -0.503068
O8    O     O_R   0.925240 0.739320 0.699150 -0.502572
O9    O     O_R   0.566290 0.069580 0.305400 -0.534841
O10   O     O_R   0.433710 0.069580 0.694600 -0.537136
O11   O     O_R   0.066290 0.569580 0.305400 -0.535241
O12   O     O_R   0.933710 0.569580 0.694600 -0.523505
O13   O     O_R   0.680760 0.993330 0.302620 -0.496860
O14   O     O_R   0.319240 0.993330 0.697380 -0.499016
O15   O     O_R   0.180760 0.493330 0.302620 -0.498459
O16   O     O_R   0.819240 0.493330 0.697380 -0.505600
O17   O     O_3   0.668770 0.168760 0.250420 -0.258902
O18   O     O_3   0.331230 0.168760 0.749580 -0.257613
O19   O     O_3   0.168770 0.668760 0.250420 -0.258978
O20   O     O_3   0.831230 0.668760 0.749580 -0.234176
O21   O     O_R   0.750800 0.274080 0.199250 -0.503516
O22   O     O_R   0.249200 0.274080 0.800750 -0.498217
O23   O     O_R   0.250800 0.774080 0.199250 -0.503587
O24   O     O_R   0.749200 0.774080 0.800750 -0.499399
O25   O     O_R   0.669990 0.371670 0.194150 -0.513438
O26   O     O_R   0.330010 0.371670 0.805850 -0.515735
O27   O     O_R   0.169990 0.871670 0.194150 -0.514126
O28   O     O_R   0.830010 0.871670 0.805850 -0.518328
O29   O     O_R   0.574600 0.238480 0.197800 -0.501369
O30   O     O_R   0.425400 0.238480 0.802200 -0.501943
O31   O     O_R   0.074600 0.738480 0.197800 -0.501326
O32   O     O_R   0.925400 0.738480 0.802200 -0.504108
O33   O     O_R   0.566130 0.068680 0.194240 -0.524202
O34   O     O_R   0.433870 0.068680 0.805760 -0.524775
O35   O     O_R   0.066130 0.568680 0.194240 -0.524243
O36   O     O_R   0.933870 0.568680 0.805760 -0.526378
O37   O     O_R   0.680610 0.992490 0.199570 -0.498827
O38   O     O_R   0.319390 0.992490 0.800430 -0.497145
O39   O     O_R   0.180610 0.492490 0.199570 -0.498999
O40   O     O_R   0.819390 0.492490 0.800430 -0.503784
O41   O     O_R   0.770060 0.065440 0.307230 -0.521931
O42   O     O_R   0.229940 0.065440 0.692770 -0.520820
O43   O     O_R   0.270060 0.565440 0.307230 -0.519974
O44   O     O_R   0.729940 0.565440 0.692770 -0.521907
O45   O     O_R   0.750960 0.274920 0.302300 -0.525841
O46   O     O_R   0.249040 0.274920 0.697700 -0.523192
O47   O     O_R   0.250960 0.774920 0.302300 -0.523426
O48   O     O_R   0.749040 0.774920 0.697700 -0.503776
O49   O     O_R   0.670160 0.372580 0.305320 -0.519933
O50   O     O_R   0.329840 0.372580 0.694680 -0.520633
O51   O     O_R   0.170160 0.872580 0.305320 -0.520729
O52   O     O_R   0.829840 0.872580 0.694680 -0.522237
F1    F     F_    0.666718 0.997836 0.958530 -0.664616
F2    F     F_    0.338368 0.971297 0.037640 -0.670572
F3    F     F_    0.166456 0.497142 0.958554 -0.664682
F4    F     F_    0.838461 0.470791 0.037583 -0.670586
C177  C     C_3   0.677483 0.979167 0.853502 -0.225915
C178  C     C_3   0.622632 0.912160 0.841846 -0.295998
C179  C     C_3   0.584875 0.958077 0.799584 -0.447084
H89   H     H_    0.571885 0.038169 0.808543 0.163886
H90   H     H_    0.610471 0.957989 0.764537 0.153725
H91   H     H_    0.543666 0.911554 0.793850 0.147852
H92   H     H_    0.636930 0.833806 0.830775 0.173672
H93   H     H_    0.594934 0.905407 0.875618 0.179421
H94   H     H_    0.662770 0.054088 0.868921 0.194471
H95   H     H_    0.701257 0.997199 0.818597 0.122374
C180  C     C_3   0.333087 0.948874 0.142646 -0.219619
C181  C     C_3   0.379974 0.866421 0.155606 -0.292496
C182  C     C_3   0.415653 0.832112 0.110619 -0.404936
H96   H     H_    0.386702 0.788283 0.084191 0.175518
H97   H     H_    0.434656 0.899671 0.091406 0.195212
H98   H     H_    0.452952 0.781522 0.123041 0.114563
H99   H     H_    0.411702 0.898814 0.183783 0.144195
H100  H     H_    0.358339 0.798365 0.172419 0.182541
H101  H     H_    0.355680 0.016766 0.126313 0.195517
H102  H     H_    0.312978 0.976858 0.177633 0.105135
C183  C     C_3   0.177174 0.478410 0.853530 -0.225465
C184  C     C_3   0.122419 0.411067 0.842032 -0.295909
C185  C     C_3   0.084564 0.456466 0.799697 -0.447126
H103  H     H_    0.071506 0.536607 0.808482 0.164259
H104  H     H_    0.110120 0.456109 0.764630 0.154488
H105  H     H_    0.043396 0.409769 0.794104 0.146624
H106  H     H_    0.136827 0.332685 0.831105 0.174065
H107  H     H_    0.094755 0.404471 0.875829 0.179344
H108  H     H_    0.162368 0.553323 0.868895 0.194814
H109  H     H_    0.200834 0.496407 0.818566 0.123916
C186  C     C_3   0.833216 0.448360 0.142586 -0.219500
C187  C     C_3   0.880019 0.365722 0.155479 -0.292622
C188  C     C_3   0.915676 0.331483 0.110470 -0.404910
H110  H     H_    0.886688 0.287853 0.083992 0.175683
H111  H     H_    0.934762 0.399061 0.091330 0.195059
H112  H     H_    0.952914 0.280722 0.122852 0.114354
H113  H     H_    0.911772 0.397919 0.183690 0.143762
H114  H     H_    0.858313 0.297662 0.172227 0.182524
H115  H     H_    0.855866 0.516207 0.126265 0.195446
H116  H     H_    0.813178 0.476351 0.177600 0.105165

loop_
_geom_bond_atom_site_label_1
_geom_bond_atom_site_label_2
_ccdc_geom_bond_type
C99   C103  A    
C7    C168  A    
C92   O40   A    
C55   C59   A    
C142  C146  A    
C131  C151  A    
C19   C20   A    
C45   O29   A    
C53   C69   A    
C38   C70   S    
C177  C178  S    
C108  C164  S    
C37   C69   S    
C26   C50   A    
C95   C99   A    
C29   C33   A    
C100  C104  A    
C3    C74   S    
C9    C13   A    
C163  O43   A    
C146  C150  A    
C77   C101  A    
C178  H92   S    
Cr7   O51   S    
C12   C16   A    
C142  H58   S    
C169  C174  A    
C172  C175  A    
C141  C145  A    
C108  C112  A    
C138  C154  A    
C6    C165  A    
C21   C22   A    
C135  O51   A    
C112  H36   S    
C174  H46   S    
C41   C49   A    
Cr12  O16   S    
C18   C170  A    
C25   C29   A    
C27   C31   A    
C28   C32   A    
Cr9   O13   S    
Cr10  O10   S    
C179  H90   S    
C62   C66   A    
C167  C171  A    
C98   C102  A    
C65   H85   S    
C60   C76   A    
Cr6   O30   S    
Cr8   O52   S    
Cr2   O2    S    
C102  H25   S    
C185  H103  S    
C54   C70   A    
C36   C40   A    
C68   C72   A    
C58   C180  S    
C165  H2    S    
C137  C153  A    
C2    O26   A    
C182  H98   S    
C135  C154  S    
C186  H115  S    
Cr8   O28   S    
C20   C172  A    
C175  H47   S    
C132  C152  A    
C62   H6    S    
C130  C138  A    
C109  H33   S    
C181  H99   S    
C160  O8    A    
C84   C88   A    
Cr6   O6    S    
C119  C123  A    
C26   C90   S    
C5    C46   S    
C105  C125  A    
C7    C48   S    
Cr6   O26   S    
Cr3   O23   S    
C8    C47   S    
C107  C127  A    
C188  H110  S    
C115  H51   S    
C136  C153  S    
C66   C70   A    
C184  H107  S    
C179  H89   S    
C57   C177  S    
C158  O6    A    
C129  C137  A    
C130  H38   S    
C39   C71   S    
C34   H82   S    
C139  H43   S    
C4    O24   A    
C89   O37   A    
C103  H28   S    
C55   C71   A    
C2    C75   S    
C92   O4    A    
Cr10  O38   S    
C161  O13   A    
C134  O46   A    
Cr4   O4    S    
C46   O34   A    
C6    C9    A    
C129  C149  A    
C127  H67   S    
C64   C68   A    
Cr5   O17   S    
C59   C183  S    
C187  C188  S    
C161  O41   A    
C86   H30   S    
C81   H17   S    
C57   C73   A    
C83   H19   S    
C123  C127  A    
C78   C158  S    
C53   F1    S    
C87   C95   A    
C130  C150  A    
C141  H57   S    
C23   C24   A    
C27   C91   S    
C110  C114  A    
C114  H50   S    
C183  H108  S    
C44   C52   A    
C164  O44   A    
C79   C103  A    
C11   C15   A    
C27   C51   A    
C7    C12   A    
C98   H21   S    
C49   H13   S    
C30   C34   A    
C31   H79   S    
C138  H42   S    
C41   H9    S    
C10   C14   A    
C188  H112  S    
C164  O16   A    
C178  C179  S    
C133  O49   A    
C56   C72   A    
C142  C154  A    
C116  C120  A    
C187  H113  S    
C144  C156  A    
C147  C151  A    
C121  C125  A    
C56   F4    S    
C61   C65   A    
C122  H62   S    
C84   H20   S    
C143  C155  A    
C139  C155  A    
Cr5   O25   S    
C146  H54   S    
C89   O1    A    
C17   C18   A    
C36   H84   S    
C10   H69   S    
C126  H66   S    
C5    C166  A    
C108  C128  A    
C91   O3    A    
C4    C73   S    
Cr12  O20   S    
C42   C50   A    
C113  C117  A    
C185  H104  S    
C107  C163  S    
C177  H95   S    
C26   C30   A    
C115  C119  A    
C105  C161  S    
Cr9   O17   S    
Cr10  O14   S    
C61   H5    S    
C112  C116  A    
Cr11  O19   S    
C58   C74   A    
Cr4   O44   S    
C105  C109  A    
C40   C72   S    
C1    C76   S    
C107  C111  A    
C148  C152  A    
C117  C149  S    
C44   H12   S    
C117  C121  A    
C171  C176  A    
C100  H23   S    
C13   C17   A    
C166  H1    S    
C14   C22   A    
C124  H64   S    
Cr3   O47   S    
C141  C153  A    
C63   C75   A    
C64   H8    S    
C24   H75   S    
C128  H68   S    
C37   C41   A    
C163  O15   A    
C131  C139  A    
C178  H93   S    
C21   H74   S    
C40   C44   A    
C181  C182  S    
C184  C185  S    
C129  H37   S    
C148  H56   S    
C9    H70   S    
C81   C85   A    
C83   C87   A    
C88   C96   A    
Cr1   O17   S    
C6    C45   S    
C93   C97   A    
C78   C102  A    
C133  C156  S    
C29   H77   S    
Cr3   O19   S    
Cr2   O22   S    
Cr7   O19   S    
C80   C84   A    
C183  C184  S    
C15   C19   A    
C60   C186  S    
C80   C104  A    
C1    O21   A    
C132  H40   S    
C79   C159  S    
C80   C160  S    
C94   C98   A    
C135  O47   A    
C47   O35   A    
C4    O28   A    
C118  C150  S    
C90   O38   A    
Cr1   O21   S    
Cr12  O12   S    
C51   H15   S    
C180  H101  S    
C159  O7    A    
C186  C187  S    
Cr11  O39   S    
C12   H71   S    
C182  H97   S    
C82   H18   S    
C46   O30   A    
C124  C128  A    
C50   H14   S    
Cr4   O20   S    
C165  C169  A    
Cr7   O31   S    
Cr6   O18   S    
C173  H45   S    
C181  H100  S    
C162  O42   A    
C137  H41   S    
C53   C57   A    
C157  O9    A    
C61   C73   A    
C82   C86   A    
C33   C37   A    
C56   C60   A    
C52   H16   S    
C48   O36   A    
Cr12  O36   S    
C35   C39   A    
C8    C167  A    
Cr4   O48   S    
C42   H10   S    
C101  H26   S    
Cr9   O33   S    
C111  H35   S    
Cr11  O35   S    
C140  H44   S    
C63   H7    S    
C66   H86   S    
Cr1   O41   S    
C110  H34   S    
C32   C36   A    
Cr3   O43   S    
C133  O45   A    
C54   F2    S    
C104  H27   S    
Cr8   O8    S    
C162  O14   A    
C179  H91   S    
C132  C140  A    
C106  C126  A    
C25   C89   S    
C90   O2    A    
C11   H72   S    
C45   O33   A    
Cr12  O40   S    
C79   C83   A    
C43   C51   A    
C23   H76   S    
C65   C69   A    
C143  H59   S    
C67   C71   A    
C106  C162  S    
C67   H87   S    
Cr10  O18   S    
C25   C49   A    
C186  H116  S    
Cr11  O15   S    
C131  H39   S    
C168  C172  A    
Cr7   O7    S    
C134  O50   A    
C62   C74   A    
C145  C149  A    
C170  C173  A    
C180  C181  S    
C93   C94   S    
Cr2   O46   S    
C14   C18   A    
C95   C96   S    
C144  C148  A    
Cr8   O20   S    
C173  C174  A    
C143  C147  A    
C167  H4    S    
C168  H3    S    
C19   C171  A    
C38   C42   A    
C188  H111  S    
Cr8   O32   S    
C17   C169  A    
C22   H73   S    
C184  H106  S    
C96   C100  A    
C187  H114  S    
C78   C82   A    
Cr9   O9    S    
C86   C94   A    
Cr11  O11   S    
C175  C176  A    
Cr5   O29   S    
Cr2   O18   S    
C32   H80   S    
C30   H78   S    
C77   C81   A    
C16   C20   A    
Cr5   O49   S    
C85   H29   S    
C15   C23   A    
C177  H94   S    
C16   C24   A    
C180  H102  S    
C1    O25   A    
Cr1   O45   S    
C2    O22   A    
C47   O31   A    
C3    O27   A    
C99   H24   S    
C119  C151  S    
C63   C67   A    
C120  C152  S    
C97   H22   S    
C13   C21   A    
C48   O32   A    
C91   O39   A    
C39   C43   A    
C88   H32   S    
C159  O11   A    
C160  O12   A    
C122  C126  A    
C118  C122  A    
C123  H63   S    
C121  H61   S    
C85   C93   A    
C68   H88   S    
C3    O23   A    
Cr4   O24   S    
C64   C76   A    
C145  H53   S    
C28   C92   S    
C125  H65   S    
C109  C113  A    
Cr7   O27   S    
C114  C118  A    
C183  H109  S    
C140  C156  A    
C147  H55   S    
C87   H31   S    
C144  H60   S    
Cr5   O5    S    
C59   C75   A    
C157  O5    A    
C54   C58   A    
C158  O10   A    
C134  C155  S    
C33   H81   S    
C34   C38   A    
C35   H83   S    
C43   H11   S    
Cr1   O1    S    
C116  H52   S    
Cr9   O37   S    
Cr6   O50   S    
Cr10  O34   S    
C55   F3    S    
C5    C10   A    
C28   C52   A    
C176  H48   S    
C8    C11   A    
C113  H49   S    
C166  C170  A    
C136  O48   A    
C31   C35   A    
Cr2   O42   S    
C136  O52   A    
Cr3   O3    S    
C185  H105  S    
C106  C110  A    
C111  C115  A    
C182  H96   S    
C97   C101  A    
C120  C124  A    
C77   C157  S    
