data_mof_unit_3816.cif
_audit_creation_date              2012-12-11T14:23:07-0500
_audit_creation_method            fapswitch 2.2
_symmetry_space_group_name_H-M    P1
_symmetry_Int_Tables_number       1
_space_group_crystal_system       triclinic
_cell_length_a                    11.003751
_cell_length_b                    11.043698
_cell_length_c                    18.842699
_cell_angle_alpha                 91.068891
_cell_angle_beta                  90.204352
_cell_angle_gamma                 59.398811
_cell_volume                      1970.51695817

loop_
_atom_site_label
_atom_site_type_symbol
_atom_type_description
_atom_site_fract_x
_atom_site_fract_y
_atom_site_fract_z
_atom_type_partial_charge
C1    C     C_R   0.246712 0.642061 0.612506 0.596043
C2    C     C_3   0.651999 0.603907 0.801912 -0.239476
C3    C     C_3   0.725446 0.691602 0.807342 0.000626
C4    C     C_3   0.680974 0.655570 0.673805 0.074888
C5    C     C_3   0.840455 0.599321 0.686591 0.235923
C6    C     C_3   0.633527 0.576148 0.723573 -0.282106
C7    C     C_R   0.690249 0.152091 0.822589 0.006229
C8    C     C_R   0.802725 0.147137 0.783031 0.010322
C9    C     C_R   0.796044 0.147761 0.707355 0.019400
C10   C     C_R   0.564437 0.172987 0.714054 -0.164760
C11   C     C_R   0.571918 0.168816 0.786149 -0.156223
C12   C     C_R   0.656139 0.624617 0.599869 0.592894
C13   C     C_R   0.922199 0.139375 0.815518 -0.106595
C14   C     C_R   0.036936 0.118037 0.774826 -0.109599
C15   C     C_R   0.033799 0.108695 0.701308 -0.073323
C16   C     C_R   0.915427 0.122259 0.667724 -0.079759
C17   C     C_R   0.671186 0.170217 0.673622 0.007401
C18   C     C_R   0.203085 0.654587 0.839765 -0.035088
C19   C     C_R   0.219254 0.535509 0.802124 -0.029960
C20   C     C_R   0.207965 0.541805 0.726678 -0.031809
C21   C     C_R   0.237135 0.746239 0.731325 0.315151
C22   C     C_R   0.225821 0.751034 0.804301 -0.115168
C23   C     C_R   0.630008 0.226629 0.602071 0.540620
C24   C     C_R   0.239966 0.413361 0.837263 0.081645
C25   C     C_R   0.220788 0.314603 0.799412 -0.155694
C26   C     C_R   0.191716 0.329769 0.727403 -0.199066
C27   C     C_R   0.185692 0.441010 0.691226 -0.068671
C28   C     C_R   0.218700 0.648875 0.690266 0.035776
C29   C     C_R   0.690088 0.686025 0.179159 0.001442
C30   C     C_R   0.803329 0.586550 0.221165 0.014122
C31   C     C_R   0.778464 0.529004 0.280244 0.038398
C32   C     C_R   0.526598 0.702177 0.269611 -0.158605
C33   C     C_R   0.551387 0.737930 0.202553 -0.129494
C34   C     C_R   0.225173 0.646051 0.400829 0.535463
C35   C     C_R   0.943376 0.540855 0.204329 -0.072506
C36   C     C_R   0.055687 0.417195 0.229479 -0.112113
C37   C     C_R   0.032722 0.351257 0.283734 -0.148085
C38   C     C_R   0.896795 0.404375 0.308381 -0.091942
C39   C     C_R   0.639755 0.603601 0.310532 -0.004314
C40   C     C_R   0.629979 0.167223 0.174832 0.006222
C41   C     C_R   0.545817 0.131896 0.218068 0.025717
C42   C     C_R   0.573474 0.116258 0.291078 0.021795
C43   C     C_R   0.692774 0.248281 0.277669 -0.152469
C44   C     C_R   0.698036 0.230853 0.205257 -0.150617
C45   C     C_R   0.617708 0.586057 0.385607 0.551180
C46   C     C_R   0.433176 0.115841 0.192458 -0.096868
C47   C     C_R   0.366818 0.066104 0.236119 -0.152888
C48   C     C_R   0.412643 0.028164 0.305285 -0.117425
C49   C     C_R   0.517471 0.050336 0.332476 -0.074864
C50   C     C_R   0.642787 0.181839 0.321449 0.003545
C51   C     C_R   0.152481 0.689667 0.184125 -0.004130
C52   C     C_R   0.105452 0.808817 0.231232 0.036850
C53   C     C_R   0.090234 0.791265 0.303070 0.016474
C54   C     C_R   0.245607 0.539479 0.283840 -0.148163
C55   C     C_R   0.233359 0.555904 0.210791 -0.184687
C56   C     C_R   0.617382 0.228706 0.394960 0.521257
C57   C     C_R   0.081415 0.942290 0.211103 -0.079100
C58   C     C_R   0.021558 0.055773 0.258178 -0.151276
C59   C     C_R   0.987036 0.039891 0.326838 -0.120062
C60   C     C_R   0.015660 0.909436 0.348537 -0.081299
C61   C     C_R   0.171514 0.657172 0.329976 0.011774
C62   C     C_R   0.702821 0.100951 0.895729 0.558075
C63   C     C_R   0.754517 0.709108 0.882849 0.544177
C64   C     C_R   0.122473 0.703057 0.907046 0.571342
C65   C     C_R   0.671321 0.108336 0.103643 0.554992
C66   C     C_R   0.723293 0.711465 0.106856 0.542188
C67   C     C_3   0.629957 0.835762 0.771501 -0.240786
C68   C     C_R   0.097383 0.710520 0.111735 0.539425
C69   C     C_3   0.597860 0.814367 0.693764 -0.220888
C70   C     C_3   0.866379 0.615384 0.765742 -0.191106
Cr1   Cr    Cr6+3 0.392940 0.397950 0.502230 1.011280
Cr2   Cr    Cr6+3 0.398400 0.708500 0.501260 1.035060
Cr3   Cr    Cr6+3 0.708640 0.393530 0.496460 0.988149
Cr4   Cr    Cr6+3 0.937880 0.938320 0.007620 1.010135
Cr5   Cr    Cr6+3 0.625560 0.937220 0.994510 1.024658
Cr6   Cr    Cr6+3 0.938080 0.625010 0.001190 1.046257
H1    H     H_    0.686426 0.895059 0.772144 0.139454
H2    H     H_    0.697051 0.460863 0.712174 0.123903
H3    H     H_    0.934626 0.509554 0.788237 0.121142
H4    H     H_    0.904157 0.485752 0.671597 0.138972
H5    H     H_    0.470724 0.182080 0.690167 0.157394
H6    H     H_    0.928770 0.152106 0.871966 0.152440
H7    H     H_    0.487838 0.164981 0.812778 0.156219
H8    H     H_    0.130628 0.103631 0.800735 0.120159
H9    H     H_    0.124752 0.087274 0.669798 0.161770
H10   H     H_    0.921665 0.106043 0.610829 0.139512
H11   H     H_    0.528574 0.899273 0.800967 0.147867
H12   H     H_    0.227748 0.836035 0.832896 0.160316
H13   H     H_    0.237262 0.220954 0.825086 0.138744
H14   H     H_    0.178465 0.252432 0.698491 0.107515
H15   H     H_    0.156361 0.448680 0.636212 0.188063
H16   H     H_    0.419311 0.751359 0.289623 0.135516
H17   H     H_    0.962115 0.608043 0.175331 0.154490
H18   H     H_    0.462986 0.807457 0.169749 0.137753
H19   H     H_    0.160461 0.372471 0.208122 0.119693
H20   H     H_    0.119182 0.257432 0.306270 0.121374
H21   H     H_    0.482720 0.857512 0.687815 0.190153
H22   H     H_    0.890488 0.339261 0.347656 0.140387
H23   H     H_    0.727515 0.314470 0.299733 0.124806
H24   H     H_    0.387753 0.149840 0.140600 0.139768
H25   H     H_    0.753546 0.268063 0.173162 0.135302
H26   H     H_    0.280759 0.055251 0.215788 0.103488
H27   H     H_    0.363674 0.985940 0.338616 0.127889
H28   H     H_    0.549085 0.022510 0.387022 0.138231
H29   H     H_    0.316126 0.435482 0.304107 0.157777
H30   H     H_    0.116882 0.960883 0.161373 0.144961
H31   H     H_    0.286004 0.465504 0.175131 0.121437
H32   H     H_    0.627375 0.873971 0.657651 0.166367
H33   H     H_    0.999053 0.156049 0.239477 0.118088
H34   H     H_    0.941048 0.126486 0.364349 0.119954
H35   H     H_    0.991409 0.898760 0.402950 0.127648
H36   H     H_    0.922150 0.675299 0.771638 0.154671
H37   H     H_    0.715374 0.501467 0.828847 0.152034
H38   H     H_    0.546933 0.661456 0.828682 0.159325
H39   H     H_    0.521667 0.608555 0.713793 0.170130
O1    O     O_R   0.507340 0.255690 0.581430 -0.524834
O2    O     O_R   0.524510 0.695820 0.424050 -0.497772
O3    O     O_R   0.736370 0.504260 0.414810 -0.526769
O4    O     O_R   0.691220 0.277270 0.422180 -0.541593
O5    O     O_3   0.499990 0.499990 0.499980 -0.277508
O6    O     O_R   0.089570 0.825450 0.930590 -0.526287
O7    O     O_R   0.818700 0.054260 0.929860 -0.515539
O8    O     O_R   0.606310 0.077010 0.915520 -0.511624
O9    O     O_R   0.646730 0.806540 0.917560 -0.497036
O10   O     O_R   0.837290 0.593240 0.915240 -0.506569
O11   O     O_R   0.065320 0.635310 0.931580 -0.496976
O12   O     O_R   0.280360 0.527380 0.578910 -0.523074
O13   O     O_R   0.068470 0.828620 0.091850 -0.530497
O14   O     O_R   0.799150 0.057200 0.079350 -0.493616
O15   O     O_R   0.585220 0.080180 0.076770 -0.543042
O16   O     O_R   0.627170 0.809480 0.067050 -0.491493
O17   O     O_R   0.816200 0.596410 0.076500 -0.504421
O18   O     O_R   0.045770 0.638240 0.081070 -0.524395
O19   O     O_3   0.833840 0.833520 0.001110 -0.288066
O20   O     O_R   0.260600 0.739610 0.584580 -0.444713
O21   O     O_R   0.532370 0.695050 0.573830 -0.490158
O22   O     O_R   0.744850 0.503430 0.576380 -0.520013
O23   O     O_R   0.699080 0.276500 0.571950 -0.519412
O24   O     O_R   0.498860 0.256520 0.419860 -0.523377
O25   O     O_R   0.272490 0.528150 0.429140 -0.499747
O26   O     O_R   0.252110 0.740440 0.423010 -0.535806
F1    F     F_    0.270575 0.836070 0.701495 -0.680911
C71   C     C_2   0.299731 0.375702 0.910024 0.594591
O27   O     O_2   0.374221 0.419561 0.933551 -0.527018
O28   O     O_R   0.273853 0.286677 0.950936 -0.714028
H40   H     H_    0.320577 0.268321 0.999145 0.335500
F2    F     F_    0.885992 0.671548 0.645328 -0.664420

loop_
_geom_bond_atom_site_label_1
_geom_bond_atom_site_label_2
_ccdc_geom_bond_type
C45   O3    A    
C34   O26   A    
C8    C13   A    
C5    F2    S    
C58   H33   S    
Cr6   O11   S    
C41   C42   A    
C23   O23   A    
C19   C20   A    
C67   H1    S    
C14   H8    S    
C38   H22   S    
C33   H18   S    
C49   H28   S    
C65   O15   A    
Cr5   O19   S    
C7    C8    A    
C7    C11   A    
C26   C27   A    
C17   C23   S    
Cr1   O5    S    
Cr5   O8    S    
C36   C37   A    
C9    C16   A    
C43   H23   S    
C21   F1    S    
O28   H40   S    
C30   C31   A    
C2    H37   S    
Cr3   O4    S    
Cr2   O21   S    
Cr3   O23   S    
C24   C71   S    
C71   O27   D    
C29   C33   A    
C59   H34   S    
C18   C19   A    
C32   C39   A    
C62   O8    A    
C23   O1    A    
C54   C55   A    
C53   C61   A    
C69   H32   S    
Cr4   O13   S    
C35   C36   A    
C8    C9    A    
Cr2   O2    S    
C1    C28   S    
C41   C46   A    
C27   H15   S    
C22   H12   S    
C4    C12   S    
C68   O13   A    
Cr5   O15   S    
C39   C45   S    
C68   O18   A    
C57   H30   S    
C59   C60   A    
C47   H26   S    
C13   C14   A    
C16   H10   S    
Cr6   O10   S    
Cr1   O12   S    
C2    C6    S    
C4    C69   S    
C53   C60   A    
Cr5   O16   S    
C64   O6    A    
C63   O9    A    
C66   O17   A    
C35   H17   S    
Cr2   O26   S    
C54   C61   A    
Cr5   O9    S    
C3    C70   S    
C24   C25   A    
C4    C6    S    
C10   C11   A    
C56   O24   A    
Cr6   O19   S    
Cr2   O20   S    
Cr1   O24   S    
C20   C28   A    
C11   H7    S    
C58   C59   A    
C48   H27   S    
C13   H6    S    
C34   C61   S    
C50   C56   S    
C51   C52   A    
C37   H20   S    
C55   H31   S    
C67   C69   S    
C37   C38   A    
C43   C44   A    
C7    C62   S    
C29   C30   A    
C47   C48   A    
C14   C15   A    
Cr6   O18   S    
Cr2   O5    S    
C5    H4    S    
C63   O10   A    
C70   H36   S    
C42   C50   A    
C30   C35   A    
C9    C17   A    
C40   C41   A    
Cr4   O7    S    
C21   C28   A    
C64   O11   A    
C40   C65   S    
C56   O4    A    
C62   O7    A    
C52   C53   A    
C66   O16   A    
C45   O2    A    
C71   O28   S    
C46   H24   S    
C46   C47   A    
C48   C49   A    
Cr3   O3    S    
C54   H29   S    
C70   H3    S    
C18   C22   A    
C25   H13   S    
C3    C67   S    
C1    O12   A    
C4    C5    S    
C5    C70   S    
C65   O14   A    
C44   H25   S    
C43   C50   A    
Cr1   O25   S    
C20   C27   A    
C3    C63   S    
C26   H14   S    
C10   H5    S    
C67   H11   S    
C31   C38   A    
C15   H9    S    
C32   C33   A    
C19   C24   A    
C25   C26   A    
C60   H35   S    
C1    O20   A    
Cr6   O17   S    
C2    H38   S    
C36   H19   S    
C18   C64   S    
C57   C58   A    
C32   H16   S    
Cr3   O22   S    
Cr4   O19   S    
C34   O25   A    
C31   C39   A    
Cr1   O1    S    
C2    C3    S    
C51   C55   A    
C51   C68   S    
C6    H39   S    
C6    H2    S    
C52   C57   A    
C42   C49   A    
C29   C66   S    
C40   C44   A    
Cr4   O6    S    
C12   O21   A    
Cr4   O14   S    
Cr3   O5    S    
C12   O22   A    
C10   C17   A    
C21   C22   A    
C15   C16   A    
C69   H21   S    
