data_mof_unit_1116.cif
_audit_creation_date              2012-10-26T18:44:09-0400
_audit_creation_method            fapswitch 2.2
_symmetry_space_group_name_H-M    P1
_symmetry_Int_Tables_number       1
_space_group_crystal_system       triclinic
_cell_length_a                    19.385217
_cell_length_b                    9.079966
_cell_length_c                    7.768537
_cell_angle_alpha                 89.960785
_cell_angle_beta                  89.775315
_cell_angle_gamma                 90.829488
_cell_volume                      1367.24125781

loop_
_atom_site_label
_atom_site_type_symbol
_atom_type_description
_atom_site_fract_x
_atom_site_fract_y
_atom_site_fract_z
_atom_type_partial_charge
C1    C     C_R   0.499949 0.219972 0.500036 0.551900
C2    C     C_R   0.254983 0.448178 0.356145 -0.147832
C3    C     C_R   0.183087 0.534168 0.652551 0.212487
C4    C     C_R   0.819111 0.506585 0.352872 0.208351
C5    C     C_R   0.814304 0.454045 0.661150 0.215500
C6    C     C_R   0.182894 0.436207 0.358965 0.203404
C7    C     C_R   0.145729 0.480799 0.507886 0.027283
C8    C     C_R   0.853159 0.474073 0.508823 0.029219
C9    C     C_R   0.291405 0.492914 0.502165 -0.078208
C10   C     C_R   0.708689 0.495562 0.501547 -0.079790
C11   C     C_R   0.928865 0.467816 0.513316 0.348952
C12   C     C_R   0.500069 0.780029 0.499964 0.552726
C13   C     C_R   0.068926 0.474575 0.510928 0.347548
C14   C     C_3   0.162898 0.733979 0.828868 0.024406
C15   C     C_3   0.191975 0.756701 0.010357 -0.240078
C16   C     C_3   0.135220 0.758031 0.147050 -0.394438
C17   C     C_3   0.875661 0.679258 0.190843 0.024354
C18   C     C_3   0.928598 0.698114 0.045752 -0.212422
C19   C     C_3   0.957357 0.855233 0.036613 -0.509330
C20   C     C_3   0.845303 0.273941 0.852414 0.039588
C21   C     C_3   0.779646 0.228485 0.951778 -0.256849
C22   C     C_3   0.786704 0.078824 0.038502 -0.487312
C23   C     C_R   0.367114 0.498299 0.500412 0.543926
C24   C     C_3   0.154610 0.247558 0.176042 0.033218
C25   C     C_3   0.124875 0.211377 0.998449 -0.234569
C26   C     C_3   0.048258 0.246882 0.986095 -0.350534
C27   C     C_R   0.632948 0.500432 0.499895 0.544968
C28   C     C_1   0.499997 0.065385 0.500049 -0.056413
C29   C     C_1   0.500037 0.934619 0.499950 -0.056223
C30   C     C_R   0.255327 0.532504 0.650511 -0.145995
C31   C     C_R   0.747080 0.512429 0.349442 -0.145821
C32   C     C_R   0.742957 0.471625 0.657249 -0.132975
Cu1   Cu    Cu3+1 0.500000 0.500000 0.669080 1.006131
Cu2   Cu    Cu3+1 0.500000 0.500000 0.330920 1.006283
H1    H     H_    0.283159 0.567392 0.764413 0.144100
H2    H     H_    0.158714 0.757943 0.277160 0.132862
H3    H     H_    0.100709 0.660132 0.134206 0.230873
H4    H     H_    0.899742 0.719018 0.312844 0.125993
H5    H     H_    0.829866 0.747562 0.161994 0.126875
H6    H     H_    0.971877 0.621231 0.066753 0.205556
H7    H     H_    0.903902 0.670915 0.920979 0.227211
H8    H     H_    0.916229 0.932735 0.001105 0.138429
H9    H     H_    0.998280 0.862046 0.936517 0.152953
H10   H     H_    0.979697 0.888676 0.162301 0.144136
H11   H     H_    0.890791 0.251683 0.934458 0.172742
H12   H     H_    0.721508 0.533323 0.228288 0.147443
H13   H     H_    0.851376 0.204826 0.734636 0.103142
H14   H     H_    0.768294 0.312020 0.051821 0.208297
H15   H     H_    0.735332 0.221794 0.861948 0.143205
H16   H     H_    0.797525 0.992797 0.940886 0.143866
H17   H     H_    0.737753 0.049243 0.105619 0.154882
H18   H     H_    0.828706 0.082803 0.135299 0.150368
H19   H     H_    0.125859 0.183146 0.275901 0.133310
H20   H     H_    0.209387 0.212155 0.175815 0.096570
H21   H     H_    0.153810 0.274690 0.898455 0.193774
H22   H     H_    0.131724 0.092287 0.971752 0.084395
H23   H     H_    0.714197 0.463921 0.776709 0.150172
H24   H     H_    0.018394 0.185074 0.085571 0.144847
H25   H     H_    0.028682 0.214570 0.857179 0.122163
H26   H     H_    0.040155 0.366839 0.003191 0.237590
H27   H     H_    0.282484 0.421068 0.238950 0.144882
H28   H     H_    0.113934 0.794879 0.814984 0.146588
H29   H     H_    0.199546 0.786185 0.734819 0.085294
H30   H     H_    0.229120 0.668222 0.040210 0.191775
H31   H     H_    0.220457 0.863754 0.015640 0.097834
H32   H     H_    0.104323 0.859197 0.133970 0.110469
N1    N     N_1   0.500000 0.500000 0.076820 -0.085687
N2    N     N_1   0.500000 0.500000 0.923180 -0.085747
N3    N     N_R   0.033033 0.410733 0.380454 -0.217529
N4    N     N_R   0.964322 0.530088 0.645051 -0.230790
N5    N     N_R   0.964458 0.407715 0.381078 -0.214920
N6    N     N_R   0.032888 0.533238 0.643775 -0.200789
O1    O     O_R   0.500000 0.288390 0.642760 -0.495092
O2    O     O_3   0.855788 0.529072 0.201806 -0.533327
O3    O     O_3   0.846216 0.427005 0.816842 -0.546014
O4    O     O_3   0.149056 0.400223 0.207761 -0.539138
O5    O     O_R   0.500000 0.711610 0.357240 -0.494520
O6    O     O_R   0.500000 0.711610 0.642760 -0.494669
O7    O     O_R   0.500000 0.288390 0.357240 -0.495498
O8    O     O_R   0.400140 0.500000 0.642830 -0.503835
O9    O     O_R   0.599860 0.500000 0.357170 -0.503062
O10   O     O_R   0.599860 0.500000 0.642830 -0.505852
O11   O     O_R   0.400140 0.500000 0.357170 -0.504433
O12   O     O_3   0.149243 0.581814 0.799668 -0.533146

loop_
_geom_bond_atom_site_label_1
_geom_bond_atom_site_label_2
_ccdc_geom_bond_type
C10   C27   S    
C12   C29   S    
C25   H22   S    
C14   O12   S    
C4    C8    A    
C21   H15   S    
C11   N4    A    
C23   O11   A    
C30   H1    S    
C28   C29   T    
C3    C7    A    
Cu2   O5    S    
C11   N5    A    
Cu1   O6    S    
C24   H20   S    
C15   C16   S    
C15   H31   S    
C18   C19   S    
C17   H5    S    
N3    N5    A    
C18   H6    S    
C10   C31   A    
C31   H12   S    
C12   O6    A    
C1    C28   S    
C15   H30   S    
Cu2   O9    S    
C23   O8    A    
Cu1   O10   S    
C4    O2    S    
C20   H11   S    
C19   H8    S    
C16   H3    S    
C22   H16   S    
C5    C32   A    
C21   C22   S    
C2    C6    A    
C32   H23   S    
C19   H9    S    
Cu1   Cu2   S    
N1    N2    T    
C20   H13   S    
C27   O9    A    
C24   C25   S    
C18   H7    S    
C24   O4    S    
C25   C26   S    
C20   O3    S    
C5    O3    S    
C3    C30   A    
Cu2   O7    S    
C12   O5    A    
C17   C18   S    
C26   H24   S    
C9    C30   A    
Cu1   O1    S    
C17   O2    S    
C1    O7    A    
C16   H32   S    
Cu2   O11   S    
C19   H10   S    
C22   H18   S    
C26   H25   S    
C27   O10   A    
C9    C23   S    
C25   H21   S    
Cu2   N1    S    
C5    C8    A    
C2    H27   S    
Cu1   O8    S    
C6    O4    S    
C6    C7    A    
C13   N6    A    
C1    O1    A    
C21   H14   S    
C24   H19   S    
C16   H2    S    
C13   N3    A    
C8    C11   S    
C14   H29   S    
C17   H4    S    
C4    C31   A    
C10   C32   A    
C7    C13   S    
C20   C21   S    
C3    O12   S    
C14   C15   S    
N4    N6    A    
C2    C9    A    
C26   H26   S    
Cu1   N2    S    
C22   H17   S    
C14   H28   S    
