data_mof_unit_4720.cif
_audit_creation_date              2012-12-10T19:25:54-0500
_audit_creation_method            fapswitch 2.2
_symmetry_space_group_name_H-M    P1
_symmetry_Int_Tables_number       1
_space_group_crystal_system       triclinic
_cell_length_a                    9.81585
_cell_length_b                    10.532879
_cell_length_c                    16.522919
_cell_angle_alpha                 90.361928
_cell_angle_beta                  84.251716
_cell_angle_gamma                 91.439743
_cell_volume                      1699.15161931

loop_
_atom_site_label
_atom_site_type_symbol
_atom_type_description
_atom_site_fract_x
_atom_site_fract_y
_atom_site_fract_z
_atom_type_partial_charge
C1    C     C_R   0.500646 0.742032 0.503059 1.005631
C2    C     C_3   0.584313 0.957491 0.440907 -0.229288
C3    C     C_3   0.961810 0.605441 0.474174 0.548666
C4    C     C_3   0.038798 0.394652 0.526351 0.538368
C5    C     C_3   0.062263 0.517134 0.427386 -0.174720
C6    C     C_3   0.937920 0.483116 0.572668 -0.157141
C7    C     C_3   0.044133 0.588976 0.546473 -0.172696
C8    C     C_3   0.956063 0.410162 0.453844 -0.212291
C9    C     C_R   0.479448 0.496269 0.653632 0.959758
C10   C     C_R   0.519704 0.496180 0.345722 0.941377
C11   C     C_R   0.463216 0.458143 0.738857 -0.163386
C12   C     C_R   0.498942 0.257708 0.499782 0.943779
C13   C     C_R   0.527726 0.456950 0.259355 -0.169244
C14   C     C_R   0.554472 0.367802 0.762233 -0.219280
C15   C     C_R   0.414816 0.386330 0.235286 -0.129115
C16   C     C_R   0.536464 0.314236 0.838981 -0.088322
C17   C     C_R   0.419707 0.328402 0.159722 -0.070656
C18   C     C_R   0.428367 0.352346 0.894729 0.097769
C19   C     C_R   0.535789 0.344317 0.104282 0.100876
C20   C     C_R   0.334113 0.439055 0.871158 -0.210501
C21   C     C_R   0.648507 0.415299 0.126620 -0.213715
C22   C     C_R   0.350225 0.493370 0.793749 0.466836
C23   C     C_3   0.371624 0.953145 0.498576 -0.195809
C24   C     C_R   0.645069 0.474579 0.202846 0.431330
C25   C     C_2   0.420420 0.317326 0.980894 -0.159451
C26   C     C_2   0.534741 0.307368 0.018506 -0.161640
C27   C     C_3   0.627703 0.046397 0.509247 -0.205552
C28   C     C_3   0.455886 0.035095 0.434535 0.522090
C29   C     C_3   0.543440 0.963862 0.573414 0.499502
C30   C     C_3   0.498145 0.122702 0.501551 -0.203501
C31   C     C_3   0.501141 0.876833 0.505802 -0.215492
C32   C     C_3   0.414966 0.042453 0.566995 -0.251945
H1    H     H_    0.638260 0.335323 0.720057 0.207390
H2    H     H_    0.607979 0.244042 0.854674 0.165872
H3    H     H_    0.266874 0.913337 0.494153 0.241025
H4    H     H_    0.732487 0.086215 0.513828 0.244489
H5    H     H_    0.347100 0.079219 0.619136 0.237038
H6    H     H_    0.650671 0.923401 0.387471 0.247010
H7    H     H_    0.118086 0.533161 0.366359 0.206459
H8    H     H_    0.882089 0.467494 0.633748 0.210618
H9    H     H_    0.041175 0.921860 0.392954 0.405401
H10   H     H_    0.968426 0.094511 0.631608 0.409845
H11   H     H_    0.768230 0.791751 0.225715 0.405101
H12   H     H_    0.322187 0.372479 0.275854 0.210745
H13   H     H_    0.220530 0.769186 0.693372 0.381694
H14   H     H_    0.330789 0.970462 0.237881 0.391263
H15   H     H_    0.732690 0.004825 0.751413 0.388920
H16   H     H_    0.085158 0.665423 0.584424 0.200286
H17   H     H_    0.915199 0.333844 0.415680 0.196013
H18   H     H_    0.633709 0.303805 0.982889 0.159696
H19   H     H_    0.322816 0.331735 0.016353 0.157354
H20   H     H_    0.250169 0.467823 0.914463 0.187231
H21   H     H_    0.735900 0.431173 0.082093 0.188451
H22   H     H_    0.331659 0.272436 0.144717 0.154943
N1    N     N_3   0.136700 0.499970 0.500060 -0.157600
N2    N     N_3   0.863300 0.500030 0.499940 -0.156192
O1    O     O_R   0.383390 0.686040 0.500000 -0.620610
O2    O     O_2   0.866545 0.835442 0.516872 -0.292443
O3    O     O_3   0.066456 0.832748 0.401234 -0.536737
O4    O     O_2   0.144263 0.162613 0.504293 -0.290780
O5    O     O_2   0.181760 0.274337 0.631996 -0.291068
O6    O     O_3   0.939652 0.179354 0.615360 -0.540406
O7    O     O_2   0.860760 0.540594 0.282732 -0.262902
O8    O     O_2   0.868914 0.607182 0.140901 -0.294939
O9    O     O_3   0.702329 0.724167 0.246793 -0.517378
O10   O     O_2   0.112915 0.532551 0.733803 -0.288942
O11   O     O_2   0.169811 0.670884 0.845711 -0.260764
O12   O     O_R   0.616610 0.313960 0.500000 -0.640666
O13   O     O_3   0.296359 0.712356 0.702492 -0.528080
O14   O     O_2   0.283780 0.162279 0.349602 -0.297525
O15   O     O_2   0.521395 0.139725 0.288753 -0.337724
O16   O     O_3   0.357143 0.941826 0.291007 -0.502877
O17   O     O_2   0.478827 0.909197 0.731542 -0.258211
O18   O     O_2   0.670485 0.794749 0.660493 -0.251757
O19   O     O_3   0.708874 0.032619 0.697544 -0.544234
O20   O     O_R   0.616650 0.686050 0.499970 -0.529328
O21   O     O_R   0.383350 0.313950 0.500030 -0.537786
O22   O     O_R   0.369590 0.500020 0.615820 -0.544326
O23   O     O_R   0.630410 0.499980 0.384180 -0.547572
O24   O     O_R   0.602840 0.500020 0.615790 -0.622491
O25   O     O_R   0.397160 0.499980 0.384210 -0.633143
O26   O     O_2   0.819581 0.752893 0.383026 -0.244999
S1    S     S_3+6 0.922343 0.760656 0.443800 0.060412
S2    S     S_3+6 0.082688 0.249011 0.569814 0.046389
S3    S     S_3+6 0.776630 0.586578 0.218260 0.063936
S4    S     S_3+6 0.227108 0.603867 0.769669 0.062185
S5    S     S_3+6 0.403178 0.075462 0.338448 0.025205
S6    S     S_3+6 0.599838 0.919739 0.668497 0.066068
Zn1   Zn    Zn3+2 0.344250 0.499990 0.500020 1.078350
Zn2   Zn    Zn3+2 0.655750 0.500010 0.499980 1.079858

loop_
_geom_bond_atom_site_label_1
_geom_bond_atom_site_label_2
_ccdc_geom_bond_type
C21   H21   S    
C27   C29   S    
C7    N1    S    
C4    C8    S    
C8    N2    S    
C14   H1    S    
C12   O12   A    
O21   Zn1   S    
O1    Zn1   S    
C19   C21   A    
O3    S1    S    
C15   H12   S    
C29   C32   S    
C3    C7    S    
C26   H18   S    
C11   C14   A    
C1    C31   S    
C19   C26   S    
O23   Zn2   S    
C16   H2    S    
C29   S6    S    
O12   Zn2   S    
C2    C27   S    
C24   S3    S    
H10   O6    S    
H14   O16   S    
O25   Zn1   S    
N2    Zn2   S    
O7    S3    D    
C27   C30   S    
C18   C25   S    
O14   S5    D    
O22   Zn1   S    
H13   O13   S    
C6    H8    S    
H9    O3    S    
C4    C6    S    
C25   C26   D    
C32   H5    S    
C10   C13   S    
C13   C24   A    
C2    C31   S    
C9    O24   A    
C23   C31   S    
C25   H19   S    
O17   S6    D    
C1    O1    A    
C3    N2    S    
C2    H6    S    
C4    S2    S    
H11   O9    S    
C12   O21   A    
C28   S5    S    
C23   C28   S    
C9    C11   S    
O15   S5    D    
C16   C18   A    
C20   C22   A    
C23   H3    S    
C13   C15   A    
C4    N1    S    
C3    S1    S    
C14   C16   A    
O8    S3    D    
O16   S5    S    
C15   C17   A    
C5    H7    S    
O6    S2    S    
O11   S4    D    
C11   C22   A    
C12   C30   S    
C1    O20   A    
C5    N1    S    
C6    N2    S    
C3    C5    S    
O5    S2    D    
O10   S4    D    
C5    C8    S    
C10   O23   A    
O9    S3    S    
C6    C7    S    
C27   H4    S    
C10   O25   A    
C7    H16   S    
C28   C30   S    
H15   O19   S    
C29   C31   S    
O2    S1    D    
C23   C32   S    
C30   C32   S    
O4    S2    D    
C17   H22   S    
C17   C19   A    
C18   C20   A    
C9    O22   A    
C22   S4    S    
O24   Zn2   S    
N1    Zn1   S    
O19   S6    S    
C20   H20   S    
O26   S1    D    
C21   C24   A    
C2    C28   S    
O18   S6    D    
C8    H17   S    
O13   S4    S    
O20   Zn2   S    
