data_mof_unit_3136.cif
_audit_creation_date              2013-03-05T15:46:12-0500
_audit_creation_method            fapswitch 2.2
_symmetry_space_group_name_H-M    P1
_symmetry_Int_Tables_number       1
_space_group_crystal_system       triclinic
_cell_length_a                    10.538455
_cell_length_b                    10.819351
_cell_length_c                    17.142563
_cell_angle_alpha                 79.877641
_cell_angle_beta                  89.57312
_cell_angle_gamma                 119.59604
_cell_volume                      1662.93875519

loop_
_atom_site_label
_atom_site_type_symbol
_atom_site_description
_atom_site_fract_x
_atom_site_fract_y
_atom_site_fract_z
_atom_type_partial_charge
O1    O     O_R   0.521780 0.757110 0.108900 -0.482704
O2    O     O_R   0.275160 0.783810 0.101120 -0.440537
C1    C     C_R   0.223467 0.854828 0.128760 0.584397
O3    O     O_R   0.237900 0.972600 0.090980 -0.516621
O4    O     O_R   0.511190 0.220540 0.061620 -0.494057
C2    C     C_R   0.638086 0.282993 0.084901 0.614165
O5    O     O_R   0.736920 0.257720 0.063840 -0.448290
O6    O     O_R   0.710450 0.984050 0.081720 -0.491976
C3    C     C_R   0.640548 0.858366 0.125313 0.560316
O7    O     O_R   0.524090 0.765520 0.933110 -0.464680
O8    O     O_R   0.277300 0.791600 0.938160 -0.494870
C4    C     C_R   0.215908 0.858048 0.903136 0.568775
O9    O     O_R   0.240210 0.981010 0.915190 -0.530593
O10   O     O_R   0.513330 0.228330 0.898660 -0.448714
C5    C     C_R   0.612638 0.217790 0.859662 0.551203
O11   O     O_R   0.739230 0.266130 0.888050 -0.487770
O12   O     O_R   0.712580 0.991850 0.918770 -0.539875
C6    C     C_R   0.647578 0.871248 0.898878 0.581655
Cr1   Cr    Cr6+3 0.402240 0.783890 0.019450 1.132087
Cr2   Cr    Cr6+3 0.382360 0.097900 0.991800 1.083204
Cr3   Cr    Cr6+3 0.715380 0.118170 0.988700 1.084557
O13   O     O_3   0.499990 0.999980 0.999980 -0.327472
C7    C     C_R   0.536489 0.328807 0.199760 -0.168027
H1    H     H_    0.432255 0.295265 0.175743 0.176409
C8    C     C_R   0.544572 0.339956 0.279318 -0.178123
H2    H     H_    0.450287 0.326089 0.313885 0.169704
C9    C     C_R   0.671376 0.362010 0.314708 -0.031977
C10   C     C_R   0.795405 0.384036 0.267230 0.178791
C11   C     C_R   0.794697 0.399202 0.185084 0.187951
C12   C     C_R   0.659571 0.351834 0.153381 -0.007307
C13   C     C_1   0.668964 0.848249 0.205317 -0.010029
C14   C     C_1   0.681114 0.839440 0.274614 -0.005929
C15   C     C_1   0.181986 0.827186 0.211396 0.017953
C16   C     C_1   0.152572 0.822055 0.279820 0.004371
C17   C     C_1   0.618109 0.254213 0.774749 -0.078780
C18   C     C_1   0.630499 0.296371 0.703712 -0.059621
C19   C     C_R   0.667555 0.732520 0.811926 0.193207
C20   C     C_R   0.645055 0.704347 0.735900 -0.081095
C21   C     C_R   0.670205 0.817305 0.669484 -0.025831
C22   C     C_R   0.722086 0.958870 0.681623 0.147462
C23   C     C_R   0.735227 0.982460 0.758926 -0.192933
H3    H     H_    0.763010 0.088497 0.769191 0.155658
C24   C     C_R   0.698544 0.866490 0.823121 -0.027547
C25   C     C_R   0.098559 0.895223 0.788745 -0.108913
H4    H     H_    0.073625 0.963425 0.817644 0.146066
C26   C     C_R   0.105895 0.913045 0.706897 -0.020519
C27   C     C_R   0.132386 0.816686 0.669725 0.046886
C28   C     C_R   0.172118 0.721715 0.716114 -0.020692
C29   C     C_R   0.180423 0.721134 0.797194 -0.107072
H5    H     H_    0.222617 0.657735 0.831407 0.152016
C30   C     C_R   0.149841 0.812386 0.832227 0.033132
O14   O     O_R   0.083770 0.911170 0.376030 -0.505806
O15   O     O_R   0.808770 0.880340 0.383890 -0.460041
C31   C     C_R   0.686718 0.810084 0.357125 0.576275
O16   O     O_R   0.584340 0.689460 0.394160 -0.503477
O17   O     O_R   0.614320 0.443940 0.423590 -0.514844
C32   C     C_R   0.689283 0.395090 0.394520 0.572661
O18   O     O_R   0.805020 0.410040 0.421340 -0.420176
O19   O     O_R   0.049240 0.685450 0.403290 -0.468468
C33   C     C_R   0.103726 0.810961 0.359258 0.544458
O20   O     O_R   0.077520 0.903010 0.551800 -0.539087
O21   O     O_R   0.802980 0.872780 0.546830 -0.471952
C34   C     C_R   0.679055 0.795021 0.588294 0.596215
O22   O     O_R   0.578090 0.681300 0.569920 -0.534975
O23   O     O_R   0.608530 0.436370 0.586530 -0.537831
C35   C     C_R   0.671653 0.368957 0.621705 0.561533
O24   O     O_R   0.798770 0.401880 0.597100 -0.449655
O25   O     O_R   0.043450 0.677890 0.566230 -0.512747
C36   C     C_R   0.092893 0.801111 0.588724 0.528512
Cr4   Cr    Cr6+3 0.936650 0.882420 0.465510 1.090356
Cr5   Cr    Cr6+3 0.605770 0.565620 0.493360 1.014651
Cr6   Cr    Cr6+3 0.921340 0.550490 0.496380 1.123605
O26   O     O_3   0.821250 0.666180 0.485090 -0.294523
C37   C     C_3   0.099527 0.046619 0.664368 -0.239172
C38   C     C_3   0.248103 0.164396 0.618980 -0.378578
H6    H     H_    0.335454 0.186299 0.659017 0.140948
H7    H     H_    0.277530 0.132480 0.566791 0.189222
H8    H     H_    0.245379 0.265983 0.597499 0.141343
H9    H     H_    0.009730 0.019358 0.625991 0.221536
H10   H     H_    0.072273 0.097813 0.707639 0.130947
C39   C     C_3   0.223310 0.632588 0.681098 -0.275164
C40   C     C_3   0.111152 0.470512 0.705215 -0.393327
H11   H     H_    0.105301 0.431341 0.770246 0.145401
H12   H     H_    0.000802 0.449283 0.690675 0.219522
H13   H     H_    0.143511 0.408459 0.672753 0.150675
H14   H     H_    0.247757 0.665512 0.615366 0.180659
H15   H     H_    0.329467 0.653562 0.703156 0.141426
N1    N     N_R   0.919490 0.384767 0.301813 0.124172
O27   O     O_R   0.049099 0.500252 0.285760 -0.302624
O28   O     O_R   0.904401 0.265561 0.344808 -0.280018
N2    N     N_R   0.928205 0.451447 0.134502 0.105889
O29   O     O_R   0.007270 0.389531 0.147463 -0.266220
O30   O     O_R   0.959788 0.547929 0.069208 -0.307785
N3    N     N_R   0.651309 0.623524 0.879665 0.077759
O31   O     O_R   0.756987 0.652108 0.924901 -0.317934
O32   O     O_R   0.524284 0.506678 0.903115 -0.322934
C41   C     C_3   0.608893 0.557345 0.727318 -0.214401
C42   C     C_3   0.442677 0.457682 0.728870 -0.374198
H16   H     H_    0.381863 0.474877 0.774989 0.174050
H17   H     H_    0.404475 0.476231 0.670416 0.167536
H18   H     H_    0.412813 0.342412 0.745028 0.141234
H19   H     H_    0.678500 0.574635 0.674918 0.159766
H20   H     H_    0.649327 0.507202 0.774912 0.190296
N4    N     N_R   0.762323 0.078971 0.616397 0.081157
O33   O     O_R   0.885223 0.199841 0.613087 -0.362333
O34   O     O_R   0.678704 0.067412 0.559407 -0.320944

loop_
_geom_bond_atom_site_label_1
_geom_bond_atom_site_label_2
_geom_bond_distance
_ccdc_geom_bond_type
O20   Cr4   2.064833 S    
O11   Cr3   2.056227 S    
C23   H3    1.082968 S    
C17   C18   1.204822 T    
C26   C37   1.533229 S    
N4    O34   1.301369 A    
C41   C42   1.534685 S    
O4    Cr2   1.959455 S    
O15   C31   1.268213 A    
C28   C39   1.514513 S    
O8    Cr1   1.943566 S    
O21   C34   1.268580 A    
C10   C11   1.389301 A    
C39   C40   1.527596 S    
C19   C20   1.385824 A    
C20   C21   1.430592 A    
C18   C35   1.430937 S    
N2    O30   1.301481 A    
C1    C15   1.414195 S    
C5    O11   1.303872 A    
C42   H16   1.110108 S    
O17   C32   1.284872 A    
O21   Cr4   1.926934 S    
O24   Cr6   2.043121 S    
O22   Cr5   2.075171 S    
C14   C31   1.402458 S    
C27   C36   1.466728 S    
O14   C33   1.279162 A    
C31   O16   1.256208 A    
C27   C28   1.416413 A    
O25   C36   1.301953 A    
C29   C30   1.399681 A    
C10   N1    1.436834 S    
C7    H1    1.083200 S    
C39   H14   1.107659 S    
O19   Cr6   1.923616 S    
C7    C8    1.389689 A    
C35   O24   1.251720 A    
O19   C33   1.267497 A    
C37   H10   1.112610 S    
Cr3   O13   1.965805 S    
C16   C33   1.415943 S    
C23   C24   1.401420 A    
C20   C41   1.476769 S    
O15   Cr4   1.945144 S    
C5    C17   1.432522 S    
N4    O33   1.300257 A    
C25   C26   1.378542 A    
O12   C6    1.251043 A    
O1    Cr1   2.062874 S    
C37   C38   1.530790 S    
C7    C12   1.404442 A    
O10   Cr2   1.922762 S    
Cr1   O13   1.995059 S    
O1    C3    1.266927 A    
C9    C32   1.464535 S    
N2    O29   1.301602 A    
Cr5   O26   1.964956 S    
O6    C3    1.263080 A    
C8    H2    1.083345 S    
O23   Cr5   1.939877 S    
O12   Cr3   1.960203 S    
O3    Cr2   2.039319 S    
C19   C24   1.369528 A    
C38   H6    1.107126 S    
C11   C12   1.405133 A    
C22   N4    1.434046 S    
C13   C14   1.187925 T    
O7    Cr1   2.050922 S    
O25   Cr6   1.959786 S    
O17   Cr5   1.959802 S    
Cr4   O26   1.993171 S    
C15   C16   1.195706 T    
C41   H20   1.104300 S    
N1    O27   1.300122 A    
N3    O32   1.301352 A    
C38   H7    1.107269 S    
C39   H15   1.109836 S    
C25   C30   1.378599 A    
C28   C29   1.392423 A    
C2    C12   1.459060 S    
Cr2   O13   1.981508 S    
C29   H5    1.084417 S    
C42   H17   1.105261 S    
C37   H9    1.103220 S    
C1    O3    1.258263 A    
C40   H13   1.109658 S    
C11   N2    1.440458 S    
C4    C30   1.445806 S    
C25   H4    1.084925 S    
O20   C36   1.254998 A    
C26   C27   1.445421 A    
C22   C23   1.388214 A    
O9    Cr2   2.076063 S    
O2    Cr1   1.929797 S    
C41   H19   1.084232 S    
N1    O28   1.301337 A    
Cr6   O26   1.984638 S    
O6    Cr3   1.939605 S    
O8    C4    1.268624 A    
C2    O5    1.265061 A    
C8    C9    1.399551 A    
C42   H18   1.104859 S    
C21   C34   1.463613 S    
C40   H12   1.108084 S    
O2    C1    1.284237 A    
O5    Cr3   2.083207 S    
C6    C24   1.420590 S    
O18   Cr6   2.082593 S    
C32   O18   1.250930 A    
O4    C2    1.270579 A    
O7    C6    1.276197 A    
C19   N3    1.443849 S    
O23   C35   1.291784 A    
N3    O31   1.301628 A    
C38   H8    1.110645 S    
O14   Cr4   2.043021 S    
C3    C13   1.402969 S    
C34   O22   1.262257 A    
C21   C22   1.405241 A    
C4    O9    1.280247 A    
C40   H11   1.110548 S    
C9    C10   1.426867 A    
O10   C5    1.299793 A    
O16   Cr5   2.059568 S    
