data_mof_unit_2466.cif
_audit_creation_date              2012-12-10T17:40:25-0500
_audit_creation_method            fapswitch 2.2
_symmetry_space_group_name_H-M    P1
_symmetry_Int_Tables_number       1
_space_group_crystal_system       triclinic
_cell_length_a                    14.014561
_cell_length_b                    15.195674
_cell_length_c                    15.838749
_cell_angle_alpha                 86.742072
_cell_angle_beta                  69.944864
_cell_angle_gamma                 87.871374
_cell_volume                      3162.81938052

loop_
_atom_site_label
_atom_site_type_symbol
_atom_type_description
_atom_site_fract_x
_atom_site_fract_y
_atom_site_fract_z
_atom_type_partial_charge
C1    C     C_R   0.498993 0.671045 0.500372 0.805372
C2    C     C_R   0.502335 0.328842 0.497438 0.822049
C3    C     C_R   0.378864 0.464194 0.101320 0.370366
C4    C     C_R   0.618022 0.464961 0.911513 0.428394
C5    C     C_R   0.305523 0.467543 0.059055 0.443484
C6    C     C_R   0.691065 0.483656 0.949675 0.417486
C7    C     C_R   0.447475 0.181068 0.571073 0.430554
C8    C     C_R   0.550276 0.816608 0.414440 0.451430
C9    C     C_R   0.503916 0.231209 0.493552 -0.176381
C10   C     C_R   0.498976 0.768563 0.495823 -0.196961
C11   C     C_R   0.552681 0.189038 0.411608 -0.109301
C12   C     C_R   0.454884 0.814373 0.574784 -0.103120
C13   C     C_R   0.538916 0.096854 0.405740 -0.014442
C14   C     C_R   0.433749 0.905741 0.568689 -0.023146
C15   C     C_R   0.482207 0.047772 0.485185 -0.078419
C16   C     C_R   0.481864 0.954256 0.486773 -0.095958
C17   C     C_R   0.431445 0.091107 0.565503 -0.071115
C18   C     C_R   0.538484 0.909314 0.409248 -0.067778
C19   C     C_R   0.581152 0.050738 0.324280 -0.137064
C20   C     C_R   0.369156 0.950569 0.643759 -0.117440
C21   C     C_R   0.581453 0.957725 0.326900 0.470400
C22   C     C_R   0.365735 0.042861 0.640551 0.474496
C23   C     C_R   0.437233 0.500616 0.672721 0.813226
C24   C     C_R   0.562549 0.504431 0.327630 0.814557
C25   C     C_R   0.218291 0.569740 0.458005 0.003000
C26   C     C_R   0.785865 0.425749 0.532156 0.013273
C27   C     C_R   0.191527 0.432790 0.541891 0.661155
C28   C     C_R   0.806247 0.570713 0.464638 0.632918
C29   C     C_R   0.095146 0.426696 0.530218 -0.140553
C30   C     C_R   0.911212 0.566193 0.454909 -0.131720
C31   C     C_R   0.054869 0.497428 0.491644 -0.014724
C32   C     C_R   0.951622 0.495654 0.493185 -0.012927
C33   C     C_R   0.116898 0.570145 0.452969 -0.111248
C34   C     C_R   0.889125 0.423541 0.532668 -0.107189
C35   C     C_R   0.037422 0.350992 0.558625 -0.258360
C36   C     C_R   0.976059 0.632916 0.407421 -0.292831
C37   C     C_R   0.934348 0.350686 0.568295 0.495442
C38   C     C_R   0.074294 0.640130 0.410642 0.483160
C39   C     C_R   0.399289 0.497147 0.773397 -0.240374
C40   C     C_R   0.599621 0.516757 0.227738 -0.257122
C41   C     C_R   0.263505 0.478133 0.919442 0.442868
C42   C     C_R   0.731484 0.532810 0.079960 0.432125
C43   C     C_R   0.294744 0.493172 0.825237 0.377581
C44   C     C_R   0.702844 0.529620 0.175095 0.377653
C45   C     C_R   0.469947 0.495736 0.818493 -0.240278
C46   C     C_R   0.527876 0.514928 0.184949 -0.274807
C47   C     C_R   0.440375 0.484773 0.913015 -0.027111
C48   C     C_R   0.555368 0.503561 0.092621 -0.020178
C49   C     C_R   0.335595 0.477529 0.964234 -0.206283
C50   C     C_R   0.659831 0.509920 0.039432 -0.224905
C51   C     C_R   0.513591 0.482816 0.957390 -0.132662
C52   C     C_R   0.481608 0.486002 0.051907 -0.132721
Cu1   Cu    Cu3+1 0.402580 0.500010 0.499990 0.971473
Cu2   Cu    Cu3+1 0.597420 0.499990 0.500010 0.994797
H1    H     H_    0.071445 0.290795 0.576117 0.173816
H2    H     H_    0.949283 0.681996 0.368184 0.184680
H3    H     H_    0.449989 0.518269 0.226129 0.239144
H4    H     H_    0.548671 0.507078 0.779166 0.218396
N1    N     N_R   0.256170 0.500070 0.500040 -0.238834
N2    N     N_R   0.743830 0.499930 0.499960 -0.241787
O1    O     O_R   0.417730 0.629750 0.499970 -0.613270
O2    O     O_R   0.582270 0.370250 0.500030 -0.582314
O3    O     O_R   0.582270 0.629730 0.499980 -0.520173
O4    O     O_R   0.417730 0.370270 0.500020 -0.550585
O5    O     O_R   0.371590 0.500020 0.629830 -0.526985
O6    O     O_R   0.628410 0.499980 0.370170 -0.514769
O7    O     O_R   0.536130 0.499990 0.629840 -0.607916
O8    O     O_R   0.463870 0.500010 0.370160 -0.598421
O9    O     O_3   0.204720 0.453734 0.111042 -0.516341
C53   C     C_3   0.165578 0.528232 0.162550 -0.245680
H5    H     H_    0.196504 0.532094 0.218076 0.198924
H6    H     H_    0.082025 0.521972 0.193939 0.176290
H7    H     H_    0.180161 0.590644 0.120097 0.112874
O10   O     O_3   0.792822 0.472588 0.898517 -0.540908
C54   C     C_3   0.828748 0.389560 0.920883 -0.219937
H8    H     H_    0.800241 0.335714 0.892251 0.142576
H9    H     H_    0.808395 0.376694 0.994540 0.143697
H10   H     H_    0.912869 0.387945 0.891058 0.178352
C55   C     C_R   0.276465 0.650754 0.425188 0.267666
C56   C     C_R   0.256790 0.722191 0.482107 -0.086024
C57   C     C_R   0.291821 0.806052 0.447133 -0.168439
C58   C     C_R   0.342782 0.820083 0.354996 -0.121777
C59   C     C_R   0.360312 0.750100 0.297657 -0.144253
C60   C     C_R   0.328590 0.665451 0.332737 -0.079576
H11   H     H_    0.212216 0.713063 0.552847 0.086349
H12   H     H_    0.276241 0.860989 0.490656 0.125300
H13   H     H_    0.365644 0.885847 0.328133 0.117297
H14   H     H_    0.395919 0.761587 0.225799 0.112267
H15   H     H_    0.333698 0.614133 0.287142 0.114775
C61   C     C_R   0.728874 0.343452 0.561585 0.237393
C62   C     C_R   0.657052 0.333083 0.648185 -0.083226
C63   C     C_R   0.618077 0.249874 0.681598 -0.098748
C64   C     C_R   0.652760 0.176065 0.630344 -0.062868
C65   C     C_R   0.723499 0.185714 0.543864 -0.132847
C66   C     C_R   0.760044 0.269313 0.508569 -0.050914
H16   H     H_    0.634148 0.388517 0.690415 0.178449
H17   H     H_    0.560687 0.241941 0.747371 0.146881
H18   H     H_    0.623748 0.111544 0.657303 0.128403
H19   H     H_    0.751552 0.127881 0.505428 0.112406
H20   H     H_    0.818934 0.275631 0.443177 0.113383
O11   O     O_3   0.218870 0.373853 0.599876 -0.592002
C67   C     C_3   0.145179 0.374801 0.687932 -0.311806
H21   H     H_    0.092997 0.319067 0.700680 0.121498
H22   H     H_    0.101090 0.438024 0.703368 0.189144
H23   H     H_    0.182968 0.361873 0.738024 0.225772
O12   O     O_3   0.767637 0.647800 0.437369 -0.556293
C68   C     C_3   0.755605 0.711193 0.502840 -0.271759
H24   H     H_    0.829390 0.734107 0.503939 0.121507
H25   H     H_    0.709179 0.685671 0.571481 0.166799
H26   H     H_    0.715427 0.770008 0.485865 0.206319
O13   O     O_3   0.881150 0.275943 0.608930 -0.588018
C69   C     C_3   0.866096 0.272612 0.701721 -0.356775
H27   H     H_    0.831514 0.335194 0.732927 0.214617
H28   H     H_    0.937897 0.256715 0.714621 0.145156
H29   H     H_    0.813328 0.218439 0.734548 0.184688
O14   O     O_3   0.130113 0.712574 0.365650 -0.583351
C70   C     C_3   0.078989 0.792156 0.399310 -0.332770
H30   H     H_    0.047356 0.789788 0.474247 0.146350
H31   H     H_    0.018675 0.809680 0.370352 0.159494
H32   H     H_    0.133933 0.846525 0.377635 0.198182
O15   O     O_3   0.775501 0.523862 0.216970 -0.552137
C71   C     C_3   0.835332 0.600069 0.198663 -0.227876
H33   H     H_    0.855337 0.612090 0.258872 0.196240
H34   H     H_    0.796475 0.660725 0.183292 0.131844
H35   H     H_    0.907542 0.589154 0.142925 0.172699
O16   O     O_3   0.222076 0.493922 0.784492 -0.572614
C72   C     C_3   0.188692 0.580972 0.771984 -0.355862
H36   H     H_    0.224791 0.604194 0.700869 0.196498
H37   H     H_    0.200776 0.628592 0.818114 0.135354
H38   H     H_    0.105930 0.580447 0.784173 0.168578
O17   O     O_3   0.165946 0.448874 0.965242 -0.529292
C73   C     C_3   0.095119 0.519793 0.981673 -0.175669
H39   H     H_    0.054180 0.520781 0.932982 0.198036
H40   H     H_    0.128417 0.585444 0.981278 0.082218
H41   H     H_    0.037490 0.507355 0.049032 0.199557
O18   O     O_3   0.832076 0.547214 0.028438 -0.559504
C74   C     C_3   0.839660 0.632041 0.985360 -0.327162
H42   H     H_    0.921210 0.646856 0.951295 0.163392
H43   H     H_    0.806134 0.684223 0.034045 0.128564
H44   H     H_    0.803144 0.635476 0.933086 0.193486
O19   O     O_3   0.348721 0.430836 0.189408 -0.586859
C75   C     C_3   0.376765 0.340778 0.189411 -0.290319
H45   H     H_    0.351901 0.313855 0.260005 0.184054
H46   H     H_    0.460577 0.331411 0.160454 0.152628
H47   H     H_    0.338834 0.302607 0.152344 0.170932
O20   O     O_3   0.647238 0.408200 0.841731 -0.588324
C76   C     C_3   0.612188 0.323038 0.877752 -0.403333
H48   H     H_    0.532850 0.315229 0.880106 0.191145
H49   H     H_    0.615888 0.308021 0.946329 0.144694
H50   H     H_    0.661048 0.272908 0.834471 0.172281
O21   O     O_3   0.436832 0.210267 0.655197 -0.598071
C77   C     C_3   0.352278 0.266669 0.686800 -0.184257
H51   H     H_    0.291251 0.251516 0.660812 0.206123
H52   H     H_    0.375588 0.335697 0.670119 0.181308
H53   H     H_    0.321163 0.258468 0.761242 0.180865
O22   O     O_3   0.634071 0.779555 0.350727 -0.535242
C78   C     C_3   0.606854 0.714637 0.304187 -0.225879
H54   H     H_    0.525002 0.699695 0.327165 0.116454
H55   H     H_    0.649080 0.654629 0.312697 0.212137
H56   H     H_    0.632760 0.733527 0.231435 0.165428
C79   C     C_R   0.631614 0.237543 0.338456 0.143019
C80   C     C_R   0.734732 0.217143 0.322667 -0.158046
C81   C     C_R   0.810134 0.255053 0.248449 -0.147396
C82   C     C_R   0.782780 0.307978 0.185418 -0.037065
C83   C     C_R   0.680180 0.324157 0.197989 -0.097509
C84   C     C_R   0.604887 0.293851 0.276882 -0.140334
H57   H     H_    0.756683 0.168341 0.364895 0.116336
H58   H     H_    0.889368 0.239439 0.237278 0.135416
H59   H     H_    0.841024 0.333945 0.125724 0.132700
H60   H     H_    0.658774 0.358749 0.145775 0.121741
H61   H     H_    0.525749 0.307781 0.286280 0.121359
C85   C     C_R   0.472531 0.778627 0.657533 0.132379
C86   C     C_R   0.554736 0.809625 0.678454 -0.167119
C87   C     C_R   0.566892 0.784666 0.760510 -0.164282
C88   C     C_R   0.495386 0.730880 0.823403 -0.115167
C89   C     C_R   0.413120 0.700726 0.803278 -0.115663
C90   C     C_R   0.404021 0.721640 0.719158 -0.133091
H62   H     H_    0.608396 0.854285 0.631690 0.118980
H63   H     H_    0.630336 0.808725 0.776153 0.124568
H64   H     H_    0.503066 0.713289 0.887988 0.121173
H65   H     H_    0.355907 0.661918 0.853443 0.117613
H66   H     H_    0.340624 0.698746 0.703678 0.120027
C91   C     C_R   0.618309 0.095157 0.233165 0.179701
C92   C     C_R   0.548546 0.134566 0.195841 -0.184506
C93   C     C_R   0.581539 0.166230 0.105991 -0.162709
C94   C     C_R   0.684043 0.158716 0.052890 -0.134004
C95   C     C_R   0.753651 0.118922 0.089214 -0.155726
C96   C     C_R   0.720930 0.086405 0.178646 -0.052538
H67   H     H_    0.468662 0.139261 0.235892 0.115234
H68   H     H_    0.527508 0.195812 0.077258 0.117334
H69   H     H_    0.709585 0.182911 0.983348 0.107618
H70   H     H_    0.832840 0.112528 0.047825 0.124747
H71   H     H_    0.775185 0.053849 0.205463 0.128251
C97   C     C_R   0.297982 0.903251 0.724048 0.174797
C98   C     C_R   0.219533 0.853195 0.715887 -0.193682
C99   C     C_R   0.150415 0.811221 0.791920 -0.173785
C100  C     C_R   0.159286 0.818567 0.876459 -0.131410
C101  C     C_R   0.236587 0.868837 0.885267 -0.146343
C102  C     C_R   0.305407 0.911553 0.809503 -0.040484
H72   H     H_    0.211493 0.847275 0.650991 0.116117
H73   H     H_    0.090213 0.772657 0.785240 0.121328
H74   H     H_    0.106194 0.785378 0.935117 0.115507
H75   H     H_    0.243281 0.874606 0.950786 0.122996
H76   H     H_    0.365043 0.950290 0.817096 0.129948
O23   O     O_3   0.628667 0.913676 0.248308 -0.542783
C103  C     C_3   0.566168 0.914988 0.194384 -0.321909
H77   H     H_    0.611288 0.939027 0.125186 0.191610
H78   H     H_    0.496320 0.957276 0.217993 0.128883
H79   H     H_    0.543008 0.847176 0.189988 0.158054
O24   O     O_3   0.296540 0.085877 0.711409 -0.557146
C104  C     C_3   0.203322 0.095600 0.695442 -0.368640
H80   H     H_    0.165524 0.031370 0.702476 0.178194
H81   H     H_    0.213025 0.127464 0.627957 0.149882
H82   H     H_    0.151693 0.138657 0.746577 0.184095

loop_
_geom_bond_atom_site_label_1
_geom_bond_atom_site_label_2
_ccdc_geom_bond_type
C85   C90   A    
C78   H54   S    
C27   C29   A    
C34   C37   A    
C68   H25   S    
O13   C69   S    
C3    O19   S    
C54   H8    S    
C87   H63   S    
C69   H28   S    
C57   C58   A    
Cu1   N1    S    
C93   H68   S    
C12   C85   S    
Cu2   N2    S    
Cu1   Cu2   S    
O14   C70   S    
C40   C46   A    
C74   H43   S    
C83   C84   A    
C59   C60   A    
C65   H19   S    
C82   C83   A    
C76   H49   S    
C73   H41   S    
O20   C76   S    
C70   H31   S    
C55   C60   A    
C8    C10   A    
Cu1   O4    S    
C103  H78   S    
Cu2   O3    S    
C100  C101  A    
C23   O7    A    
C90   H66   S    
C18   C21   A    
C44   O15   S    
C11   C79   S    
C92   C93   A    
C67   H23   S    
C42   O18   S    
C21   O23   S    
C94   H69   S    
Cu1   O8    S    
C87   C88   A    
C5    O9    S    
C62   H16   S    
Cu1   O1    S    
C26   C34   A    
C76   H48   S    
C28   O12   S    
C73   H39   S    
C7    C17   A    
C68   H24   S    
C31   C33   A    
C101  C102  A    
Cu1   O5    S    
C57   H12   S    
C61   C62   A    
C24   O6    A    
C39   C45   A    
C48   C50   A    
C97   C98   A    
C94   C95   A    
C84   H61   S    
C78   H55   S    
C25   C55   S    
C41   C43   A    
C75   H47   S    
C5    C49   A    
C82   H59   S    
O9    C53   S    
C42   C44   A    
C1    O3    A    
C43   O16   S    
C41   C49   A    
C69   H27   S    
C2    O4    A    
C63   H17   S    
C6    O10   S    
C45   C47   A    
C89   H65   S    
C74   H44   S    
C46   C48   A    
C45   H4    S    
O10   C54   S    
C13   C19   A    
C4    C51   A    
C35   H1    S    
C67   H21   S    
O11   C67   S    
C14   C20   A    
C61   C66   A    
C76   H50   S    
C55   C56   A    
C47   C49   A    
C70   H32   S    
C19   C91   S    
C62   C63   A    
C41   O17   S    
C66   H20   S    
C56   C57   A    
C98   C99   A    
C39   C43   A    
Cu2   O7    S    
Cu2   O2    S    
C86   C87   A    
C27   O11   S    
C8    C18   A    
C51   C52   A    
C32   C34   A    
C91   C92   A    
C72   H37   S    
C104  H80   S    
C56   H11   S    
C36   H2    S    
C38   O14   S    
C97   C102  A    
C77   H53   S    
C40   C44   A    
O21   C77   S    
C4    O20   S    
C53   H7    S    
C95   H70   S    
C100  H74   S    
C64   C65   A    
C6    C50   A    
C67   H22   S    
C54   H9    S    
C20   C97   S    
O15   C71   S    
C53   H5    S    
C28   N2    A    
C10   C12   A    
C42   C50   A    
C73   H40   S    
C7    O21   S    
C4    C6    A    
C89   C90   A    
C104  H81   S    
C12   C14   A    
C96   H71   S    
C58   C59   A    
C78   H56   S    
C9    C11   A    
C46   H3    S    
C102  H76   S    
C68   H26   S    
C75   H46   S    
C26   C61   S    
C60   H15   S    
C20   C22   A    
C71   H34   S    
C72   H36   S    
C85   C86   A    
C98   H72   S    
C83   H60   S    
C7    C9    A    
O23   C103  S    
O22   C78   S    
C35   C37   A    
C103  H77   S    
C31   C32   A    
C1    C10   S    
C17   C22   A    
C77   H52   S    
C99   C100  A    
C3    C5    A    
O17   C73   S    
C1    O1    A    
C47   C51   A    
C3    C52   A    
C15   C17   A    
C88   H64   S    
Cu2   O6    S    
C80   C81   A    
C74   H42   S    
C29   C35   A    
C70   H30   S    
C33   C38   A    
C30   C36   A    
C23   O5    A    
C71   H35   S    
C13   C15   A    
C81   H58   S    
C99   H73   S    
C72   H38   S    
C95   C96   A    
C29   C31   A    
C88   C89   A    
C27   N1    A    
O19   C75   S    
C30   C32   A    
C11   C13   A    
C103  H79   S    
C93   C94   A    
C79   C80   A    
C86   H62   S    
O16   C72   S    
C23   C39   S    
C15   C16   A    
C22   O24   S    
C36   C38   A    
C63   C64   A    
C24   C40   S    
C28   C30   A    
C59   H14   S    
C14   C16   A    
C65   C66   A    
C8    O22   S    
C54   H10   S    
C37   O13   S    
C81   C82   A    
C24   O8    A    
C79   C84   A    
C80   H57   S    
C2    O2    A    
C48   C52   A    
C104  H82   S    
C77   H51   S    
C16   C18   A    
O24   C104  S    
O12   C68   S    
C101  H75   S    
C75   H45   S    
O18   C74   S    
C53   H6    S    
C25   N1    A    
C71   H33   S    
C91   C96   A    
C2    C9    S    
C26   N2    A    
C64   H18   S    
C92   H67   S    
C69   H29   S    
C58   H13   S    
C25   C33   A    
C19   C21   A    
