data_mof_unit_4892.cif
_audit_creation_date              2013-03-05T15:52:43-0500
_audit_creation_method            fapswitch 2.2
_symmetry_space_group_name_H-M    P1
_symmetry_Int_Tables_number       1
_space_group_crystal_system       triclinic
_cell_length_a                    10.072061
_cell_length_b                    10.533227
_cell_length_c                    13.178035
_cell_angle_alpha                 93.67133
_cell_angle_beta                  70.217324
_cell_angle_gamma                 90.21911
_cell_volume                      1312.6279703

loop_
_atom_site_label
_atom_site_type_symbol
_atom_site_description
_atom_site_fract_x
_atom_site_fract_y
_atom_site_fract_z
_atom_type_partial_charge
O1    O     O_R   0.385310 0.683220 0.500000 -0.582370
O2    O     O_R   0.614640 0.683250 0.500010 -0.501761
C1    C     C_R   0.508542 0.734890 0.478124 0.926197
O3    O     O_R   0.328400 0.499950 0.653610 -0.505824
O4    O     O_R   0.557730 0.499970 0.653620 -0.558320
C2    C     C_R   0.420976 0.491702 0.703574 1.043757
Zn1   Zn    Zn3+2 0.346880 0.499980 0.499990 1.063563
Zn2   Zn    Zn3+2 0.653120 0.500020 0.500010 1.126859
O5    O     O_R   0.385360 0.316750 0.499990 -0.633359
O6    O     O_R   0.614690 0.316780 0.500000 -0.584330
O7    O     O_R   0.442270 0.500030 0.346380 -0.608264
O8    O     O_R   0.671600 0.500050 0.346390 -0.515945
C3    C     C_R   0.498398 0.258687 0.502660 0.909716
C4    C     C_R   0.579286 0.496281 0.296398 0.840524
C5    C     C_R   0.744756 0.315688 0.026674 0.555704
C6    C     C_R   0.629852 0.465132 0.179852 -0.283375
C7    C     C_R   0.232700 0.496736 0.888237 0.216519
C8    C     C_R   0.204698 0.536501 0.996914 0.160778
C9    C     C_R   0.316246 0.545683 0.038789 0.253422
C10   C     C_R   0.452406 0.490492 0.977278 -0.094184
C11   C     C_R   0.472431 0.442470 0.870097 -0.102564
C12   C     C_R   0.561352 0.465706 0.020907 -0.075515
C13   C     C_R   0.666196 0.370347 0.968814 -0.138667
C14   C     C_R   0.685752 0.326547 0.861905 0.417768
C15   C     C_R   0.582949 0.353959 0.816081 0.352870
C16   C     C_R   0.569586 0.529484 0.115455 0.488650
C17   C     C_R   0.715905 0.355601 0.135978 0.284505
C18   C     C_R   0.373224 0.474934 0.821476 -0.210764
C19   C     C_R   0.271869 0.876465 0.437564 0.360465
C20   C     C_R   0.133500 0.924777 0.494237 0.145428
C21   C     C_R   0.117564 0.025520 0.573721 0.246803
C22   C     C_R   0.237476 0.092853 0.579247 0.184660
C23   C     C_R   0.374631 0.050806 0.512338 -0.121699
C24   C     C_R   0.388002 0.930489 0.460421 -0.077878
C25   C     C_R   0.516293 0.863547 0.440664 -0.168268
C26   C     C_R   0.642259 0.930821 0.413098 0.309922
H1    H     H_    0.728236 0.115822 0.418185 0.230047
C27   C     C_R   0.632772 0.060814 0.441103 -0.232467
C28   C     C_R   0.500635 0.120786 0.494436 -0.063433
C29   C     C_R   0.790322 0.648315 0.666514 0.359848
C30   C     C_R   0.817720 0.691035 0.760020 0.223902
C31   C     C_R   0.954902 0.710640 0.753117 0.230888
C32   C     C_R   0.064195 0.658451 0.661949 0.338070
C33   C     C_R   0.037024 0.575407 0.579711 -0.068012
C34   C     C_R   0.892804 0.573586 0.580444 -0.062475
N1    N     N_R   0.856860 0.501200 0.500990 -0.108181
C35   C     C_R   0.957439 0.423401 0.429371 0.541973
C36   C     C_R   0.099315 0.419834 0.431472 0.429670
N2    N     N_R   0.142450 0.501280 0.501020 -0.142784
O9    O     O_3   0.769002 0.283073 0.197728 -0.688303
H2    H     H_    0.697912 0.280889 0.270870 0.345121
O10   O     O_3   0.298948 0.778404 0.358602 -0.633325
H3    H     H_    0.234022 0.708892 0.388373 0.388733
N3    N     N_R   0.010792 0.868813 0.476265 0.227961
O11   O     O_R   0.023445 0.791764 0.392321 -0.283103
O12   O     O_R   0.883754 0.900364 0.539939 -0.328072
O13   O     O_3   0.984842 0.055633 0.646105 -0.658788
H4    H     H_    0.994219 0.081995 0.716808 0.414564
N4    N     N_R   0.219039 0.195122 0.659763 0.236314
O14   O     O_R   0.298547 0.200877 0.719752 -0.343933
O15   O     O_R   0.126393 0.285117 0.670060 -0.320425
O16   O     O_3   0.915787 0.345482 0.357807 -0.676100
H5    H     H_    0.997802 0.296988 0.306854 0.406496
O17   O     O_3   0.672928 0.698908 0.654281 -0.686707
H6    H     H_    0.643004 0.780239 0.698781 0.360100
O18   O     O_3   0.710633 0.729891 0.854582 -0.647060
H7    H     H_    0.621370 0.690955 0.853354 0.346223
N5    N     N_R   0.984224 0.786396 0.838405 0.271435
O19   O     O_R   0.903124 0.883405 0.887579 -0.231941
O20   O     O_R   0.094819 0.762906 0.864556 -0.321937
O21   O     O_3   0.195941 0.691451 0.656472 -0.674927
H8    H     H_    0.197100 0.785212 0.670488 0.322187
O22   O     O_3   0.806750 0.258360 0.802485 -0.634901
H9    H     H_    0.828674 0.273571 0.725050 0.357028
O23   O     O_3   0.189580 0.328488 0.363760 -0.740837
H10   H     H_    0.282347 0.336229 0.371722 0.392684
O24   O     O_3   0.831241 0.210560 0.980386 -0.593732
H11   H     H_    0.883563 0.185841 0.027747 0.413215
O25   O     O_3   0.528366 0.656190 0.138707 -0.636853
H12   H     H_    0.559733 0.692011 0.198047 0.367696
N6    N     N_R   0.123989 0.431534 0.860518 0.283913
O26   O     O_R   0.094642 0.317339 0.892409 -0.270082
O27   O     O_R   0.029467 0.494743 0.836928 -0.336451
N7    N     N_R   0.280276 0.593040 0.148705 0.275760
O28   O     O_R   0.268867 0.513723 0.222383 -0.358661
O29   O     O_R   0.223703 0.706347 0.177245 -0.215037
N8    N     N_R   0.060647 0.553622 0.068318 0.265064
O30   O     O_R   0.969752 0.617010 0.039965 -0.250896
O31   O     O_R   0.017459 0.499073 0.159414 -0.276889
O32   O     O_3   0.577285 0.282392 0.725817 -0.729490
H13   H     H_    0.628424 0.200209 0.718196 0.369838
N9    N     N_R   0.774168 0.873591 0.343635 0.268026
O33   O     O_R   0.778695 0.757576 0.302115 -0.311703
O34   O     O_R   0.882453 0.945120 0.302719 -0.264273

loop_
_geom_bond_atom_site_label_1
_geom_bond_atom_site_label_2
_geom_bond_distance
_ccdc_geom_bond_type
C33   N2    1.403501 A    
N8    O30   1.300650 A    
O22   H9    0.991905 S    
C9    C10   1.438424 A    
C32   C33   1.446386 A    
C35   O16   1.380230 S    
N6    O26   1.299520 A    
O32   H13   0.990963 S    
C5    O24   1.385013 S    
O24   H11   0.989725 S    
C33   C34   1.449417 A    
Zn1   O7    1.924688 S    
C20   N3    1.451134 S    
C15   O32   1.384628 S    
C19   C20   1.418175 A    
H1    C27   1.083065 S    
N7    O29   1.301228 A    
C8    C9    1.410023 A    
O4    C2    1.315601 A    
O7    C4    1.312130 A    
C14   O22   1.379469 S    
C24   C25   1.410801 A    
C30   C31   1.369367 A    
O5    C3    1.306417 A    
N3    O11   1.299625 A    
C2    C18   1.484995 S    
C35   C36   1.439278 A    
N5    O19   1.301749 A    
C13   C14   1.402182 A    
C17   O9    1.381706 S    
C26   N9    1.441765 S    
C6    C17   1.414066 A    
C5    C13   1.416696 A    
O18   H7    0.991436 S    
N4    O14   1.300744 A    
C31   N5    1.447487 S    
C36   O23   1.377000 S    
O3    Zn1   1.969238 S    
N6    O27   1.295356 A    
C7    C8    1.398824 A    
C6    C16   1.404843 A    
C29   C34   1.439063 A    
N3    O12   1.300959 A    
N4    O15   1.300892 A    
C27   C28   1.407373 A    
C14   C15   1.402870 A    
Zn1   N2    2.054570 S    
O3    C2    1.316822 A    
O9    H2    0.988842 S    
C34   N1    1.400342 A    
C19   C24   1.412156 A    
O1    C1    1.301004 A    
C25   C26   1.399256 A    
O23   H10   0.977432 S    
O16   H5    0.988937 S    
C5    C17   1.405711 A    
C21   C22   1.418931 A    
C1    C25   1.464602 S    
Zn2   O8    1.969239 S    
N9    O34   1.302144 A    
C23   C24   1.385726 A    
C23   C28   1.422004 A    
N7    O28   1.296744 A    
N5    O20   1.301416 A    
C29   C30   1.398289 A    
C11   C18   1.410659 A    
O8    C4    1.308095 A    
N8    O31   1.301318 A    
C4    C6    1.460516 S    
C31   C32   1.407903 A    
C9    N7    1.425412 S    
O10   H3    0.988488 S    
Zn1   O5    1.969987 S    
C11   C15   1.414777 A    
N1    C35   1.359651 A    
C36   N2    1.389494 A    
C32   O21   1.349704 S    
O1    Zn1   1.967086 S    
C7    C18   1.401333 A    
O2    Zn2   1.969986 S    
C8    N8    1.441928 S    
C10   C12   1.432232 A    
O6    C3    1.310375 A    
O4    Zn2   1.924688 S    
C30   O18   1.382746 S    
C16   O25   1.383203 S    
C29   O17   1.361212 S    
O17   H6    0.993285 S    
C21   O13   1.377986 S    
C26   C27   1.390163 A    
O2    C1    1.324454 A    
O21   H8    0.993797 S    
C22   C23   1.418492 A    
O13   H4    0.990131 S    
C20   C21   1.412117 A    
N9    O33   1.301027 A    
C7    N6    1.427185 S    
Zn2   N1    2.056472 S    
C3    C28   1.449324 S    
O25   H12   0.991061 S    
C10   C11   1.417030 A    
Zn2   O6    1.967087 S    
C12   C16   1.404591 A    
C12   C13   1.422807 A    
C22   N4    1.429159 S    
C19   O10   1.377111 S    
