data_mof_unit_1467.cif
_audit_creation_date              2012-12-10T17:25:37-0500
_audit_creation_method            fapswitch 2.2
_symmetry_space_group_name_H-M    P1
_symmetry_Int_Tables_number       1
_space_group_crystal_system       triclinic
_cell_length_a                    10.102741
_cell_length_b                    10.667484
_cell_length_c                    23.423844
_cell_angle_alpha                 89.63362
_cell_angle_beta                  81.470475
_cell_angle_gamma                 95.396616
_cell_volume                      2484.8897586

loop_
_atom_site_label
_atom_site_type_symbol
_atom_type_description
_atom_site_fract_x
_atom_site_fract_y
_atom_site_fract_z
_atom_type_partial_charge
C1    C     C_R   0.556417 0.733835 0.494067 0.890021
C2    C     C_R   0.580686 0.428917 0.289094 0.135997
C3    C     C_R   0.424974 0.584513 0.767007 -0.136281
C4    C     C_R   0.573563 0.434909 0.230325 -0.118157
C5    C     C_R   0.507257 0.506996 0.791023 0.255898
C6    C     C_R   0.481844 0.507289 0.209564 0.253859
C7    C     C_2   0.589006 0.867841 0.483309 0.005956
C8    C     C_2   0.410566 0.132420 0.495334 -0.000168
C9    C     C_2   0.492760 0.932744 0.467409 -0.171498
C10   C     C_2   0.506042 0.068084 0.466509 -0.163226
C11   C     C_2   0.927226 0.510500 0.504624 -0.097323
C12   C     C_R   0.443492 0.266211 0.501748 0.888514
C13   C     C_2   0.072802 0.489602 0.495328 -0.105116
C14   C     C_R   0.501361 0.503317 0.610482 0.910455
C15   C     C_R   0.498865 0.498018 0.389404 0.883463
C16   C     C_R   0.432621 0.400319 0.124034 0.522868
C17   C     C_R   0.542930 0.615394 0.877876 0.521343
C18   C     C_R   0.509358 0.619693 0.118610 0.541746
C19   C     C_R   0.460051 0.397725 0.883098 0.542564
C20   C     C_R   0.509416 0.622426 0.059068 -0.057820
C21   C     C_R   0.449274 0.397132 0.943211 -0.041190
C22   C     C_R   0.473567 0.510014 0.031492 -0.086806
C23   C     C_R   0.589646 0.431612 0.755785 -0.068515
C24   C     C_R   0.482533 0.509776 0.970994 -0.085233
C25   C     C_R   0.431034 0.397639 0.064204 -0.111629
C26   C     C_R   0.526178 0.621733 0.938299 -0.121342
C27   C     C_R   0.545244 0.734727 0.026761 -0.264097
C28   C     C_R   0.403636 0.287083 0.975842 -0.290577
C29   C     C_R   0.548822 0.736318 0.966893 0.513251
C30   C     C_R   0.389450 0.286854 0.036138 0.515567
C31   C     C_3   0.466716 0.921261 0.944538 0.107811
C32   C     C_3   0.359782 0.873363 0.907390 -0.357055
C33   C     C_3   0.243030 0.955475 0.913083 -0.900644
C34   C     C_R   0.397151 0.575358 0.247410 -0.087848
C35   C     C_3   0.208660 0.140010 0.064170 0.068933
C36   C     C_3   0.118298 0.204013 0.111418 -0.314146
C37   C     C_3   0.969889 0.163310 0.110096 -0.897811
C38   C     C_R   0.587751 0.432023 0.696649 -0.232133
C39   C     C_R   0.404528 0.571690 0.305983 -0.236620
C40   C     C_R   0.503832 0.508224 0.672364 -0.104268
C41   C     C_R   0.496072 0.499106 0.327384 -0.092863
C42   C     C_R   0.423637 0.587208 0.707850 0.144139
H1    H     H_    0.570009 0.822293 0.047703 0.207873
H2    H     H_    0.637892 0.381530 0.200549 0.165105
H3    H     H_    0.602116 0.115337 0.446768 0.208127
H4    H     H_    0.396253 0.885791 0.460621 0.194971
H5    H     H_    0.109054 0.421149 0.464165 0.175674
H6    H     H_    0.890993 0.579021 0.535757 0.179232
H7    H     H_    0.503677 0.019692 0.930766 0.191493
H8    H     H_    0.421238 0.924854 0.990802 0.127999
H9    H     H_    0.406064 0.873138 0.861313 0.276741
H10   H     H_    0.319131 0.775626 0.920995 0.202331
H11   H     H_    0.197097 0.960539 0.959008 0.245631
H12   H     H_    0.378662 0.200143 0.954769 0.177085
H13   H     H_    0.165075 0.914180 0.888056 0.285191
H14   H     H_    0.278174 0.051701 0.895587 0.293966
H15   H     H_    0.190599 0.036436 0.071563 0.170565
H16   H     H_    0.179372 0.158975 0.021133 0.119352
H17   H     H_    0.143420 0.178873 0.154393 0.272552
H18   H     H_    0.135795 0.307943 0.105219 0.212563
H19   H     H_    0.941625 0.189674 0.067873 0.265284
H20   H     H_    0.907305 0.210984 0.144828 0.280783
H21   H     H_    0.949044 0.059833 0.117201 0.275416
H22   H     H_    0.119826 0.615551 0.552767 0.199505
H23   H     H_    0.880156 0.384395 0.447256 0.194560
H24   H     H_    0.654287 0.372350 0.774313 0.163911
H25   H     H_    0.325505 0.630756 0.231356 0.158417
H26   H     H_    0.650451 0.371491 0.669943 0.181933
H27   H     H_    0.338758 0.626161 0.334608 0.177107
H28   H     H_    0.362707 0.643771 0.794644 0.153796
I1    I     I_    0.306113 0.720792 0.676686 -0.273670
I2    I     I_    0.713329 0.303341 0.315124 -0.341620
I3    I     I_    0.219193 0.047772 0.534959 -0.259060
I4    I     I_    0.781269 0.951692 0.497199 -0.279895
N1    N     N_R   0.473349 0.509507 0.149372 -0.358048
N2    N     N_R   0.506166 0.505775 0.851974 -0.355335
N3    N     N_2   0.842710 0.448880 0.476480 -0.181849
N4    N     N_2   0.157290 0.551120 0.523520 -0.182528
O1    O     O_R   0.431060 0.692470 0.504730 -0.607022
O2    O     O_2   0.596909 0.716922 0.844879 -0.495458
O3    O     O_2   0.547548 0.725595 0.145561 -0.545581
O4    O     O_2   0.423034 0.291833 0.855882 -0.568435
O5    O     O_3   0.579096 0.849518 0.936252 -0.585031
O6    O     O_3   0.346355 0.175399 0.067023 -0.593601
O7    O     O_R   0.568940 0.307530 0.495270 -0.607662
O8    O     O_R   0.651120 0.659650 0.489640 -0.588580
O9    O     O_R   0.348880 0.340350 0.510360 -0.586032
O10   O     O_R   0.389950 0.516450 0.591390 -0.576146
O11   O     O_R   0.610050 0.483550 0.408610 -0.582104
O12   O     O_R   0.610020 0.483630 0.576300 -0.614869
O13   O     O_R   0.389980 0.516370 0.423700 -0.627694
O14   O     O_2   0.395247 0.295063 0.156935 -0.505432
Zn1   Zn    Zn3+2 0.353060 0.521920 0.510080 0.998950
Zn2   Zn    Zn3+2 0.646940 0.478080 0.489920 0.999519

loop_
_geom_bond_atom_site_label_1
_geom_bond_atom_site_label_2
_ccdc_geom_bond_type
C33   H13   S    
C3    C42   A    
C18   N1    A    
C27   C29   A    
C16   N1    A    
C35   C36   S    
C36   H17   S    
C37   H20   S    
C6    N1    S    
C39   C41   A    
C12   O7    A    
C35   H16   S    
C17   C26   A    
C23   H24   S    
C36   C37   S    
C19   C21   A    
C24   C26   A    
O1    Zn1   S    
O13   Zn1   S    
C2    C41   A    
N3    Zn2   S    
C25   C30   A    
C18   O3    S    
C31   O5    S    
O11   Zn2   S    
C14   O12   A    
C11   N3    D    
C13   N4    D    
C32   H10   S    
C22   C25   A    
C17   N2    A    
C19   O4    S    
O8    Zn2   S    
C9    C10   S    
C33   H14   S    
C40   C42   A    
C9    H4    S    
C11   H6    S    
C31   H7    S    
C2    I2    S    
C8    I3    S    
C37   H21   S    
O12   Zn2   S    
C7    I4    S    
C33   H11   S    
H23   N3    S    
C34   C39   A    
C3    H28   S    
C15   C41   S    
C4    C6    A    
C13   H5    S    
C28   H12   S    
C4    H2    S    
C3    C5    A    
C15   O13   A    
C17   O2    S    
C6    C34   A    
C2    C4    A    
C32   H9    S    
C15   O11   A    
O7    Zn2   S    
C31   C32   S    
C5    C23   A    
C8    C12   S    
C10   H3    S    
C39   H27   S    
C21   C28   A    
C38   H26   S    
C16   O14   S    
C1    O1    A    
C22   C24   A    
C31   H8    S    
C16   C25   A    
C7    C9    D    
O10   Zn1   S    
C19   N2    A    
C12   O9    A    
C1    C7    S    
H22   N4    S    
C20   C22   A    
C36   H18   S    
C34   H25   S    
C37   H19   S    
C35   O6    S    
C29   O5    S    
C20   C27   A    
C23   C38   A    
C35   H15   S    
C32   C33   S    
C5    N2    S    
C28   C30   A    
C14   O10   A    
C38   C40   A    
C11   C13   S    
O9    Zn1   S    
C42   I1    S    
C18   C20   A    
C30   O6    S    
C14   C40   S    
C27   H1    S    
C1    O8    A    
C26   C29   A    
C8    C10   D    
C21   C24   A    
N4    Zn1   S    
