data_mof_unit_4654.cif
_audit_creation_date              2012-12-11T16:51:29-0500
_audit_creation_method            fapswitch 2.2
_symmetry_space_group_name_H-M    P1
_symmetry_Int_Tables_number       1
_space_group_crystal_system       triclinic
_cell_length_a                    24.562992
_cell_length_b                    17.285872
_cell_length_c                    15.57441
_cell_angle_alpha                 90.003715
_cell_angle_beta                  129.295328
_cell_angle_gamma                 89.995438
_cell_volume                      5117.57760146

loop_
_atom_site_label
_atom_site_type_symbol
_atom_type_description
_atom_site_fract_x
_atom_site_fract_y
_atom_site_fract_z
_atom_type_partial_charge
C1    C     C_R   0.846909 0.862523 0.233116 -0.140952
C2    C     C_R   0.184824 0.116312 0.504222 0.075877
C3    C     C_3   0.070215 0.601349 0.178675 -0.867744
C4    C     C_3   0.375765 0.146478 0.822014 -0.306791
C5    C     C_3   0.429780 0.102085 0.821908 -0.867992
C6    C     C_3   0.623883 0.145672 0.178207 -0.307057
C7    C     C_3   0.570085 0.101248 0.178808 -0.867592
C8    C     C_3   0.253701 0.891938 0.692615 -1.074359
C9    C     C_3   0.746283 0.892012 0.307354 -1.074398
C10   C     C_3   0.753702 0.391953 0.692608 -1.074335
C11   C     C_3   0.246285 0.391991 0.307349 -1.074411
C12   C     C_R   0.315173 0.616281 0.495815 0.075885
C13   C     C_R   0.684820 0.616316 0.504211 0.075890
C14   C     C_R   0.855174 0.132832 0.141394 0.148461
C15   C     C_R   0.144824 0.132839 0.858603 0.148463
C16   C     C_R   0.355174 0.632832 0.141395 0.148464
C17   C     C_R   0.644825 0.632837 0.858605 0.148461
C18   C     C_R   0.839283 0.729932 0.607352 0.135602
C19   C     C_R   0.160590 0.729692 0.392697 0.135646
C20   C     C_R   0.339266 0.229969 0.607375 0.135599
C21   C     C_R   0.153093 0.862521 0.766885 -0.140929
C22   C     C_R   0.660563 0.229633 0.392727 0.135755
C23   C     C_R   0.814553 0.761623 0.505972 0.048726
C24   C     C_R   0.185363 0.761471 0.494062 0.048689
C25   C     C_R   0.314553 0.261628 0.505989 0.048735
C26   C     C_R   0.685361 0.261454 0.494085 0.048629
C27   C     C_R   0.769553 0.715907 0.410450 -0.188739
C28   C     C_R   0.230440 0.715823 0.589635 -0.188736
C29   C     C_R   0.269577 0.215890 0.410484 -0.188729
C30   C     C_R   0.730470 0.215835 0.589681 -0.188737
C31   C     C_R   0.233445 0.154705 0.412618 -0.192040
C32   C     C_R   0.346907 0.362526 0.233110 -0.140956
C33   C     C_R   0.766643 0.154672 0.587582 -0.192060
C34   C     C_R   0.733418 0.654723 0.412578 -0.192044
C35   C     C_R   0.266612 0.654662 0.587528 -0.192058
C36   C     C_R   0.243966 0.139843 0.510890 -0.007296
C37   C     C_R   0.756040 0.139713 0.489258 -0.007360
C38   C     C_R   0.743955 0.639841 0.510859 -0.007306
C39   C     C_R   0.256036 0.639735 0.489221 -0.007359
C40   C     C_R   0.305840 0.167957 0.611080 0.145146
C41   C     C_R   0.694050 0.167650 0.389080 0.145198
C42   C     C_R   0.805846 0.667927 0.611046 0.145186
C43   C     C_R   0.653095 0.362524 0.766890 -0.140918
C44   C     C_R   0.194076 0.667715 0.389038 0.145279
C45   C     C_3   0.823981 0.697522 0.718071 -0.001647
C46   C     C_3   0.175790 0.697200 0.281872 -0.001635
C47   C     C_3   0.323928 0.197592 0.718058 -0.001668
C48   C     C_3   0.675687 0.197068 0.281836 -0.001672
C49   C     C_R   0.101567 0.872025 0.406752 -0.204667
C50   C     C_R   0.898393 0.872104 0.593253 -0.204666
C51   C     C_R   0.601567 0.372019 0.406756 -0.204658
C52   C     C_R   0.398397 0.372101 0.593256 -0.204657
C53   C     C_3   0.859097 0.766160 0.710588 -0.592995
C54   C     C_R   0.884155 0.102646 0.590062 -0.111489
C55   C     C_3   0.140608 0.765804 0.289295 -0.593114
C56   C     C_3   0.359025 0.266239 0.710553 -0.592933
C57   C     C_3   0.640510 0.265686 0.289248 -0.592983
C58   C     C_2   0.148843 0.752599 0.869344 -0.214789
C59   C     C_2   0.851147 0.752613 0.130618 -0.214815
C60   C     C_2   0.648848 0.252604 0.869353 -0.214785
C61   C     C_2   0.351145 0.252618 0.130610 -0.214819
C62   C     C_2   0.195648 0.709102 0.874098 -0.109009
C63   C     C_2   0.804356 0.709113 0.125884 -0.109009
C64   C     C_2   0.695649 0.209104 0.874101 -0.109012
C65   C     C_R   0.115852 0.102667 0.409960 -0.111508
C66   C     C_2   0.304356 0.209115 0.125880 -0.109004
C67   C     C_2   0.808890 0.160701 0.027225 -0.220641
C68   C     C_2   0.191112 0.160713 0.972770 -0.220638
C69   C     C_2   0.308890 0.660701 0.027226 -0.220644
C70   C     C_2   0.691112 0.660709 0.972773 -0.220638
C71   C     C_2   0.739112 0.156562 0.966630 -0.112178
C72   C     C_2   0.260890 0.156572 0.033353 -0.112194
C73   C     C_2   0.239112 0.656563 0.966631 -0.112178
C74   C     C_2   0.760890 0.656570 0.033356 -0.112188
C75   C     C_R   0.179271 0.875159 0.591422 0.308219
C76   C     C_R   0.384153 0.602651 0.590058 -0.111485
C77   C     C_R   0.820699 0.875220 0.408582 0.308211
C78   C     C_R   0.679271 0.375159 0.591426 0.308219
C79   C     C_R   0.320702 0.375215 0.408585 0.308219
C80   C     C_R   0.063439 0.864383 0.770527 -0.135699
C81   C     C_R   0.936546 0.864396 0.229436 -0.135710
C82   C     C_R   0.563443 0.364387 0.770534 -0.135698
C83   C     C_R   0.436545 0.364399 0.229433 -0.135708
C84   C     C_R   0.877577 0.823503 0.195844 0.144815
C85   C     C_R   0.122415 0.823492 0.804129 0.144786
C86   C     C_R   0.377575 0.323506 0.195837 0.144816
C87   C     C_R   0.615847 0.602669 0.409954 -0.111507
C88   C     C_R   0.622420 0.323497 0.804138 0.144783
C89   C     C_R   0.160882 0.836685 0.497992 0.043631
C90   C     C_R   0.839053 0.836801 0.502017 0.043638
C91   C     C_R   0.660882 0.336677 0.497999 0.043626
C92   C     C_R   0.339058 0.336798 0.502022 0.043627
C93   C     C_R   0.811065 0.099632 0.406187 -0.147488
C94   C     C_R   0.188929 0.099636 0.593835 -0.147702
C95   C     C_R   0.311066 0.599631 0.406183 -0.147575
C96   C     C_R   0.688928 0.599641 0.593830 -0.147681
C97   C     C_R   0.924835 0.111089 0.201187 -0.146420
C98   C     C_R   0.815173 0.116275 0.495826 0.075902
C99   C     C_R   0.075165 0.111094 0.798815 -0.146421
C100  C     C_R   0.424835 0.611089 0.201187 -0.146422
C101  C     C_R   0.575165 0.611093 0.798816 -0.146422
C102  C     C_R   0.165367 0.112292 0.796909 -0.118018
C103  C     C_R   0.834630 0.112287 0.203084 -0.118019
C104  C     C_R   0.665367 0.612290 0.796911 -0.118014
C105  C     C_R   0.334630 0.612287 0.203085 -0.118017
C106  C     C_3   0.875809 0.646356 0.821968 -0.306862
C107  C     C_3   0.929757 0.601920 0.821743 -0.867931
C108  C     C_3   0.123997 0.645882 0.178145 -0.307022
H1    H     H_    0.797401 0.849538 0.213040 0.119670
H2    H     H_    0.221989 0.716229 0.289646 0.110312
H3    H     H_    0.277625 0.216535 0.710053 0.110401
H4    H     H_    0.721847 0.216096 0.289503 0.110265
H5    H     H_    0.830833 0.821531 0.694008 0.183548
H6    H     H_    0.168763 0.821219 0.305654 0.183504
H7    H     H_    0.330726 0.321597 0.693893 0.183555
H8    H     H_    0.668643 0.321103 0.305513 0.183448
H9    H     H_    0.916991 0.769092 0.777870 0.197620
H10   H     H_    0.082695 0.768613 0.222112 0.197665
H11   H     H_    0.416913 0.269214 0.777872 0.197606
H12   H     H_    0.202608 0.849540 0.786986 0.119664
H13   H     H_    0.582592 0.268473 0.222113 0.197667
H14   H     H_    0.715116 0.126598 0.996411 0.126541
H15   H     H_    0.284884 0.126604 0.003566 0.126545
H16   H     H_    0.215115 0.626600 0.996412 0.126542
H17   H     H_    0.784884 0.626602 0.003569 0.126544
H18   H     H_    0.210988 0.722117 0.823802 0.124905
H19   H     H_    0.789026 0.722124 0.176198 0.124912
H20   H     H_    0.710987 0.222118 0.823802 0.124909
H21   H     H_    0.289029 0.222125 0.176198 0.124910
H22   H     H_    0.832120 0.191431 0.996498 0.130953
H23   H     H_    0.297398 0.349541 0.213029 0.119681
H24   H     H_    0.167886 0.191448 0.003506 0.130958
H25   H     H_    0.332119 0.691430 0.996498 0.130953
H26   H     H_    0.667885 0.691443 0.003509 0.130955
H27   H     H_    0.134233 0.739381 0.920663 0.126583
H28   H     H_    0.865745 0.739398 0.079281 0.126563
H29   H     H_    0.634240 0.239387 0.920675 0.126591
H30   H     H_    0.365741 0.239404 0.079270 0.126550
H31   H     H_    0.077395 0.863673 0.321340 0.120187
H32   H     H_    0.922558 0.863781 0.678669 0.120150
H33   H     H_    0.577397 0.363664 0.321344 0.120180
H34   H     H_    0.702611 0.349544 0.786991 0.119652
H35   H     H_    0.422566 0.363775 0.678672 0.120145
H36   H     H_    0.032367 0.852657 0.795687 0.085641
H37   H     H_    0.967596 0.852688 0.204229 0.085616
H38   H     H_    0.532373 0.352664 0.795699 0.085640
H39   H     H_    0.467596 0.352693 0.204225 0.085609
H40   H     H_    0.764425 0.089622 0.322408 0.094768
H41   H     H_    0.235572 0.089620 0.677610 0.094942
H42   H     H_    0.264425 0.589613 0.322407 0.094879
H43   H     H_    0.735571 0.589630 0.677606 0.094922
H44   H     H_    0.954396 0.110033 0.171368 0.094406
H45   H     H_    0.191267 0.127444 0.335006 0.124985
H46   H     H_    0.045608 0.110041 0.828640 0.094405
H47   H     H_    0.454395 0.610032 0.171367 0.094406
H48   H     H_    0.545608 0.610039 0.828640 0.094405
H49   H     H_    0.217686 0.113270 0.822065 0.078072
H50   H     H_    0.782308 0.113262 0.177920 0.078116
H51   H     H_    0.717687 0.613267 0.822068 0.078076
H52   H     H_    0.282309 0.613264 0.177922 0.078099
H53   H     H_    0.904295 0.100518 0.675033 0.084790
H54   H     H_    0.095725 0.100574 0.324994 0.084817
H55   H     H_    0.404289 0.600530 0.675027 0.084796
H56   H     H_    0.808907 0.127525 0.665234 0.124970
H57   H     H_    0.595717 0.600573 0.324987 0.084811
H58   H     H_    0.757459 0.730602 0.332741 0.130979
H59   H     H_    0.242571 0.730561 0.667358 0.130998
H60   H     H_    0.257497 0.230569 0.332780 0.130970
H61   H     H_    0.742622 0.230596 0.667414 0.131015
H62   H     H_    0.902877 0.560032 0.751931 0.254847
H63   H     H_    0.962258 0.642019 0.815208 0.252164
H64   H     H_    0.965260 0.568864 0.900183 0.238460
H65   H     H_    0.904387 0.683601 0.897098 0.188441
H66   H     H_    0.845914 0.603750 0.830816 0.164605
H67   H     H_    0.691227 0.627481 0.334959 0.124984
H68   H     H_    0.097243 0.559555 0.248608 0.254812
H69   H     H_    0.037687 0.641397 0.185222 0.252228
H70   H     H_    0.034727 0.568173 0.100344 0.238379
H71   H     H_    0.095279 0.683027 0.102909 0.188524
H72   H     H_    0.153932 0.603320 0.169309 0.164675
H73   H     H_    0.402959 0.060161 0.752144 0.254851
H74   H     H_    0.462270 0.142207 0.815378 0.252139
H75   H     H_    0.465290 0.069077 0.900392 0.238491
H76   H     H_    0.404288 0.183753 0.897107 0.188413
H77   H     H_    0.345880 0.103847 0.830850 0.164591
H78   H     H_    0.308856 0.627487 0.665170 0.124976
H79   H     H_    0.597097 0.059567 0.248874 0.254812
H80   H     H_    0.537517 0.141375 0.185167 0.252176
H81   H     H_    0.534632 0.067953 0.100581 0.238330
H82   H     H_    0.595178 0.182744 0.102899 0.188522
H83   H     H_    0.653813 0.103030 0.169471 0.164737
H84   H     H_    0.277659 0.842861 0.751474 0.237216
H85   H     H_    0.286175 0.904349 0.667407 0.265093
H86   H     H_    0.255137 0.943744 0.736191 0.250594
H87   H     H_    0.722321 0.842901 0.248549 0.237254
H88   H     H_    0.713800 0.904510 0.332524 0.265108
H89   H     H_    0.777703 0.716483 0.710123 0.110382
H90   H     H_    0.744877 0.943767 0.263739 0.250554
H91   H     H_    0.777664 0.342894 0.751498 0.237200
H92   H     H_    0.786174 0.404341 0.667392 0.265094
H93   H     H_    0.755136 0.443776 0.736155 0.250595
H94   H     H_    0.222331 0.342869 0.248565 0.237263
H95   H     H_    0.213799 0.404494 0.332512 0.265092
H96   H     H_    0.244873 0.443739 0.263718 0.250575
N1    N     N_R   0.888400 0.921830 0.294620 -0.044715
N2    N     N_R   0.874350 0.922400 0.443380 -0.052805
N3    N     N_R   0.625650 0.422400 0.556620 -0.052801
N4    N     N_R   0.374350 0.422400 0.443380 -0.052806
N5    N     N_R   0.054230 0.922730 0.705400 -0.040153
N6    N     N_R   0.945770 0.922730 0.294600 -0.040145
N7    N     N_R   0.554230 0.422730 0.705400 -0.040154
N8    N     N_R   0.445770 0.422730 0.294600 -0.040144
N9    N     N_R   0.873790 0.077030 0.443380 -0.039168
N10   N     N_R   0.126210 0.077030 0.556620 -0.039160
N11   N     N_R   0.373790 0.577030 0.443380 -0.039166
N12   N     N_R   0.111600 0.921830 0.705380 -0.044716
N13   N     N_R   0.626210 0.577030 0.556620 -0.039163
N14   N     N_R   0.945200 0.076700 0.294600 -0.041952
N15   N     N_R   0.054800 0.076700 0.705400 -0.041952
N16   N     N_R   0.445200 0.576700 0.294600 -0.041952
N17   N     N_R   0.554800 0.576700 0.705400 -0.041952
N18   N     N_R   0.111030 0.077600 0.705380 -0.044913
N19   N     N_R   0.888970 0.077600 0.294620 -0.044916
N20   N     N_R   0.611030 0.577600 0.705380 -0.044914
N21   N     N_R   0.388970 0.577600 0.294620 -0.044916
N22   N     N_R   0.919490 0.077280 0.556590 -0.040195
N23   N     N_R   0.388400 0.421830 0.294620 -0.044715
N24   N     N_R   0.080510 0.077280 0.443410 -0.040183
N25   N     N_R   0.419490 0.577280 0.556590 -0.040190
N26   N     N_R   0.580510 0.577280 0.443410 -0.040185
N27   N     N_R   0.611600 0.421830 0.705380 -0.044716
N28   N     N_R   0.079940 0.922160 0.443410 -0.050596
N29   N     N_R   0.920060 0.922160 0.556590 -0.050603
N30   N     N_R   0.579940 0.422160 0.443410 -0.050594
N31   N     N_R   0.420060 0.422160 0.556590 -0.050604
N32   N     N_R   0.125650 0.922400 0.556620 -0.052801
Ni1   Ni    Ni4+2 0.882160 0.999430 0.370180 0.205320
Ni2   Ni    Ni4+2 0.117840 0.999430 0.629820 0.205336
Ni3   Ni    Ni4+2 0.382160 0.499430 0.370180 0.205325
Ni4   Ni    Ni4+2 0.617840 0.499430 0.629820 0.205336
Ni5   Ni    Ni4+2 0.012460 0.999430 0.370180 0.206468
Ni6   Ni    Ni4+2 0.987540 0.999430 0.629820 0.206457
Ni7   Ni    Ni4+2 0.512460 0.499430 0.370180 0.206469
Ni8   Ni    Ni4+2 0.487540 0.499430 0.629820 0.206457

loop_
_geom_bond_atom_site_label_1
_geom_bond_atom_site_label_2
_ccdc_geom_bond_type
C58   C62   D    
C40   C47   S    
C2    C94   A    
C103  N19   A    
C106  H66   S    
C95   N11   A    
C71   H14   S    
N17   Ni8   S    
C54   H53   S    
C20   C56   S    
C2    C65   A    
C24   C89   S    
C22   C57   S    
C60   C88   S    
C9    H88   S    
C48   C57   S    
C107  H63   S    
C9    H90   S    
C1    C84   A    
N7    N27   A    
N2    N29   A    
C43   C88   A    
N1    Ni1   S    
C29   H60   S    
C7    H79   S    
N10   Ni2   S    
C17   C104  A    
C8    H84   S    
C38   C42   A    
N17   N20   A    
N9    Ni1   S    
C18   C42   A    
C107  H62   S    
C20   C40   A    
C97   N14   A    
C50   H32   S    
C61   H30   S    
N22   Ni6   S    
C22   C41   A    
C20   C25   A    
C45   H89   S    
C96   N13   A    
C99   H46   S    
C59   H28   S    
N28   N32   A    
C108  H72   S    
C93   H40   S    
N14   Ni5   S    
C68   H24   S    
C17   C101  A    
C78   N3    A    
C54   N22   A    
C22   C26   A    
N9    N22   A    
C28   H59   S    
C1    H1    S    
N8    N23   A    
C61   C66   D    
C50   C90   A    
C49   H31   S    
C66   C72   S    
N24   Ni5   S    
C28   C35   A    
C44   C46   S    
C80   H36   S    
C46   C108  S    
C46   C55   S    
C70   C74   D    
C7    H81   S    
C14   C67   S    
C12   C95   A    
C69   C73   D    
N26   Ni7   S    
C3    C108  S    
C105  N21   A    
N10   N24   A    
C83   N8    A    
C18   C53   S    
C60   H29   S    
C66   H21   S    
C51   C91   A    
N21   Ni3   S    
C81   N6    A    
C45   C53   S    
C17   C70   S    
C64   C71   S    
C34   C38   A    
C10   H91   S    
C25   C29   A    
C13   C87   A    
C11   C79   S    
C102  H49   S    
C5    H73   S    
C37   C98   S    
C31   H45   S    
C53   H5    S    
C57   H8    S    
C107  H64   S    
C51   H33   S    
C27   C34   A    
C10   C78   S    
N16   Ni7   S    
C21   C85   A    
C77   C90   A    
C94   N10   A    
C52   H35   S    
C13   C96   A    
C93   N9    A    
N28   Ni5   S    
N5    N12   A    
C7    H80   S    
N14   N19   A    
C33   H56   S    
C59   C84   S    
N19   Ni1   S    
C53   H9    S    
C15   C99   A    
C62   H18   S    
N25   Ni8   S    
C75   C89   A    
C16   C100  A    
C11   H95   S    
C101  H48   S    
C64   H20   S    
C26   C91   S    
C43   N27   A    
N18   Ni2   S    
C8    C75   S    
C33   C37   A    
C18   C23   A    
C108  H71   S    
N27   Ni4   S    
C94   H41   S    
C11   H94   S    
C4    H77   S    
C65   H54   S    
C50   N29   A    
C35   C39   A    
C30   H61   S    
C80   C85   A    
N13   N26   A    
N29   Ni6   S    
N4    N31   A    
C32   N23   A    
C36   C40   A    
C68   C72   D    
C73   H16   S    
N23   Ni3   S    
C6    H82   S    
C32   C86   A    
C21   N12   A    
C75   N32   A    
C62   C73   S    
C95   H42   S    
C9    C77   S    
C4    H76   S    
C8    H86   S    
N20   Ni4   S    
N13   Ni4   S    
C100  N16   A    
C13   C38   S    
C6    C7    S    
C6    C48   S    
N3    Ni4   S    
C83   H39   S    
C16   C105  A    
C100  H47   S    
C48   H4    S    
C99   N15   A    
C55   H6    S    
C26   C30   A    
C23   C27   A    
C51   N30   A    
C72   H15   S    
C41   C48   S    
C45   C106  S    
C78   C91   A    
C56   H11   S    
C52   C92   A    
C67   H22   S    
N11   Ni3   S    
C82   H38   S    
C104  H51   S    
C58   C85   S    
C5    H74   S    
C81   C84   A    
C1    N1    A    
C19   C44   A    
C102  N18   A    
C14   C97   A    
C79   C92   A    
C82   N7    A    
C2    C36   S    
N4    Ni3   S    
C25   C92   S    
C69   H25   S    
C34   H67   S    
C30   C33   A    
N11   N25   A    
C59   C63   D    
N7    Ni8   S    
C3    H70   S    
C56   H7    S    
C16   C69   S    
C24   C28   A    
N6    Ni5   S    
C49   C89   A    
C4    C5    S    
C76   H55   S    
C10   H92   S    
N5    Ni6   S    
C97   H44   S    
C9    H87   S    
C103  H50   S    
C39   C44   A    
C63   C74   S    
C19   C55   S    
C58   H27   S    
N8    Ni7   S    
C87   N26   A    
N30   Ni7   S    
C81   H37   S    
N15   Ni6   S    
C60   C64   D    
C6    H83   S    
N12   Ni2   S    
C49   N28   A    
C12   C76   A    
C19   C24   A    
C3    H69   S    
C52   N31   A    
C4    C47   S    
C29   C31   A    
C8    H85   S    
C77   N2    A    
N15   N18   A    
C23   C90   S    
C96   H43   S    
C14   C103  A    
C87   H57   S    
N1    N6    A    
C12   C39   S    
C35   H78   S    
C47   H3    S    
C15   C68   S    
C93   C98   A    
C10   H93   S    
C80   N5    A    
C106  H65   S    
N32   Ni2   S    
N16   N21   A    
N2    Ni1   S    
C67   C71   D    
C11   H96   S    
C101  N17   A    
C37   C41   A    
C15   C102  A    
N31   Ni8   S    
C61   C86   S    
C42   C45   S    
C27   H58   S    
C57   H13   S    
C105  H52   S    
C3    H68   S    
C83   C86   A    
C104  N20   A    
C65   N24   A    
C106  C107  S    
C74   H17   S    
C76   N25   A    
C70   H26   S    
C82   C88   A    
C31   C36   A    
C54   C98   A    
C43   H34   S    
C46   H2    S    
C21   H12   S    
C5    H75   S    
C32   H23   S    
C63   H19   S    
C79   N4    A    
N3    N30   A    
C47   C56   S    
C55   H10   S    
