data_mof_unit_489.cif
_audit_creation_date              2013-03-05T15:45:09-0500
_audit_creation_method            fapswitch 2.2
_symmetry_space_group_name_H-M    P1
_symmetry_Int_Tables_number       1
_space_group_crystal_system       triclinic
_cell_length_a                    10.84453
_cell_length_b                    11.014649
_cell_length_c                    9.883884
_cell_angle_alpha                 111.347359
_cell_angle_beta                  97.689825
_cell_angle_gamma                 93.023563
_cell_volume                      1083.1236982

loop_
_atom_site_label
_atom_site_type_symbol
_atom_site_description
_atom_site_fract_x
_atom_site_fract_y
_atom_site_fract_z
_atom_type_partial_charge
O1    O     O_R   0.511700 0.332330 0.577400 -0.631906
O2    O     O_R   0.474680 0.295500 0.332650 -0.498371
C1    C     C_R   0.488441 0.253447 0.439929 0.790967
O3    O     O_R   0.338160 0.518420 0.622400 -0.621777
O4    O     O_R   0.301140 0.481590 0.377650 -0.508377
C2    C     C_R   0.263080 0.500368 0.501614 0.814175
Cu1   Cu    Cu3+1 0.521920 0.521810 0.644910 1.132270
Cu2   Cu    Cu3+1 0.478080 0.478190 0.355090 1.229016
O5    O     O_R   0.525320 0.704500 0.667350 -0.522681
O6    O     O_R   0.488300 0.667670 0.422600 -0.517270
O7    O     O_R   0.698860 0.518410 0.622350 -0.542015
O8    O     O_R   0.661840 0.481580 0.377600 -0.551032
C3    C     C_R   0.499918 0.745308 0.559650 0.910617
C4    C     C_R   0.737847 0.508774 0.500908 0.898085
C5    C     C_R   0.173159 0.724736 0.705538 -0.228898
H1    H     H_    0.273054 0.727020 0.709853 0.180955
C6    C     C_R   0.132008 0.833856 0.804056 0.658877
C7    C     C_R   0.005525 0.845092 0.797457 -0.173608
H2    H     H_    0.975945 0.935781 0.868010 0.239207
C8    C     C_R   0.918003 0.747462 0.691281 0.303487
C9    C     C_R   0.957138 0.627243 0.598866 -0.046324
C10   C     C_R   0.087641 0.618434 0.604656 -0.065694
C11   C     C_R   0.130290 0.506017 0.506149 -0.158423
C12   C     C_R   0.046115 0.400790 0.405208 0.242606
C13   C     C_R   0.917811 0.405901 0.403034 0.242196
C14   C     C_R   0.872677 0.516919 0.499687 -0.180768
H3    H     H_    0.478745 0.135614 0.627008 0.145895
C15   C     C_2   0.477538 0.111878 0.404461 0.243982
C16   C     C_2   0.470683 0.067371 0.513560 -0.326794
H4    H     H_    0.538045 0.954560 0.701552 0.182019
C17   C     C_2   0.496867 0.885286 0.592399 -0.333482
C18   C     C_2   0.452262 0.927890 0.486749 0.688676
H5    H     H_    0.420172 0.409895 0.845650 0.125715
N1    N     N_2   0.445130 0.445430 0.137370 0.035035
C19   C     C_2   0.519389 0.501669 0.078400 0.504690
N2    N     N_2   0.554930 0.554500 0.862630 0.098144
C20   C     C_2   0.492791 0.485484 0.918875 0.083409
N3    N     N_R   0.091177 0.284282 0.311007 0.168696
O9    O     O_R   0.170129 0.223165 0.366694 -0.331634
O10   O     O_R   0.053226 0.238723 0.169394 -0.201669
N4    N     N_R   0.477870 0.024368 0.255133 0.196773
O11   O     O_R   0.410989 0.042867 0.146291 -0.187358
O12   O     O_R   0.559831 0.940228 0.226909 -0.177691
N5    N     N_R   0.634642 0.574568 0.164805 0.148827
O13   O     O_R   0.739396 0.526602 0.135642 -0.272465
O14   O     O_R   0.637126 0.699176 0.240570 -0.186991
F1    F     F_    0.638262 0.655019 0.951262 -0.432558
F2    F     F_    0.336588 0.381150 0.054303 -0.512604
F3    F     F_    0.215721 0.933518 0.900161 -0.555860
N6    N     N_R   0.795908 0.783774 0.663476 0.099084
O15   O     O_R   0.758568 0.787122 0.534442 -0.331007
O16   O     O_R   0.746166 0.855712 0.774550 -0.292551
N7    N     N_R   0.833333 0.292253 0.311334 0.152950
O17   O     O_R   0.786643 0.214463 0.368464 -0.320918
O18   O     O_R   0.796616 0.271404 0.173186 -0.232017
F4    F     F_    0.390288 0.842963 0.353598 -0.573608

loop_
_geom_bond_atom_site_label_1
_geom_bond_atom_site_label_2
_geom_bond_distance
_ccdc_geom_bond_type
O4    Cu2   1.961897 S    
N6    O16   1.301675 A    
C9    C14   1.432343 A    
C5    C6    1.383022 A    
O2    C1    1.297550 A    
H3    C16   1.087744 S    
N4    O11   1.300479 A    
C12   N3    1.438954 S    
C17   C18   1.337963 D    
Cu2   O8    1.972197 S    
C8    C9    1.431898 A    
C6    C7    1.378710 A    
O8    C4    1.301475 A    
Cu1   Cu2   2.696653 S    
Cu2   N1    2.025817 S    
C9    C10   1.418610 A    
C4    C14   1.462118 S    
N3    O10   1.301155 A    
C19   N5    1.430196 S    
N4    O12   1.300685 A    
C15   C16   1.345761 D    
N3    O9    1.301400 A    
O1    Cu1   1.937847 S    
O3    Cu1   1.972197 S    
O4    C2    1.293915 A    
C2    C11   1.450628 S    
O3    C2    1.295247 A    
C1    C15   1.462836 S    
C19   C20   1.506405 S    
C13   N7    1.434763 S    
C7    H2    1.083298 S    
C16   C18   1.458601 S    
C7    C8    1.400968 A    
N7    O18   1.300869 A    
C18   F4    1.363598 S    
H4    C17   1.086903 S    
O7    C4    1.295602 A    
H5    C20   1.084801 S    
N1    F2    1.338339 S    
C11   C12   1.405274 A    
C5    H1    1.077036 S    
C15   N4    1.439979 S    
C12   C13   1.393105 A    
N2    F1    1.336556 S    
Cu2   O6    1.937847 S    
N1    C19   1.306831 D    
Cu1   N2    2.026001 S    
C6    F3    1.355147 S    
Cu1   O5    1.940314 S    
O5    C3    1.301541 A    
C10   C11   1.413613 A    
N2    C20   1.301892 D    
Cu1   O7    1.961897 S    
C8    N6    1.423775 S    
N6    O15   1.299792 A    
C13   C14   1.408994 A    
N7    O17   1.300921 A    
C3    C17   1.458752 S    
C5    C10   1.418891 A    
O2    Cu2   1.940314 S    
N5    O13   1.301080 A    
N5    O14   1.299122 A    
O1    C1    1.300155 A    
O6    C3    1.296794 A    
