data_mof_unit_3814.cif
_audit_creation_date              2013-03-05T15:44:34-0500
_audit_creation_method            fapswitch 2.2
_symmetry_space_group_name_H-M    P1
_symmetry_Int_Tables_number       1
_space_group_crystal_system       triclinic
_cell_length_a                    27.694055
_cell_length_b                    10.871403
_cell_length_c                    9.823882
_cell_angle_alpha                 91.968204
_cell_angle_beta                  92.523805
_cell_angle_gamma                 91.032573
_cell_volume                      2952.53055051

loop_
_atom_site_label
_atom_site_type_symbol
_atom_site_description
_atom_site_fract_x
_atom_site_fract_y
_atom_site_fract_z
_atom_type_partial_charge
O1    O     O_R   0.500010 0.321960 0.617040 -0.569649
O2    O     O_R   0.499990 0.321920 0.382900 -0.587723
C1    C     C_R   0.498289 0.265158 0.497227 0.850723
O3    O     O_R   0.430270 0.500040 0.617060 -0.575877
O4    O     O_R   0.430260 0.500000 0.382910 -0.577470
C2    C     C_R   0.407538 0.503506 0.498280 0.795891
Cu1   Cu    Cu3+1 0.500010 0.500020 0.638630 0.927164
Cu2   Cu    Cu3+1 0.499990 0.499980 0.361370 0.902444
O5    O     O_R   0.500010 0.678080 0.617100 -0.598280
O6    O     O_R   0.499990 0.678040 0.382960 -0.575323
O7    O     O_R   0.569740 0.500000 0.617090 -0.584581
O8    O     O_R   0.569730 0.499960 0.382940 -0.592848
C3    C     C_R   0.500175 0.734369 0.501805 0.835651
C4    C     C_R   0.592233 0.507865 0.502601 0.792899
C5    C     C_R   0.176264 0.377773 0.481459 0.522996
O9    O     O_2   0.202005 0.279081 0.516892 -0.566765
N1    N     N_R   0.200500 0.487023 0.466699 -0.456058
C6    C     C_R   0.176737 0.591593 0.434109 0.520931
C7    C     C_R   0.276464 0.558813 0.593526 0.179269
C8    C     C_R   0.327901 0.573872 0.594663 0.054103
C9    C     C_R   0.328886 0.433926 0.394419 -0.278954
C10   C     C_R   0.278940 0.430471 0.385411 -0.143514
C11   C     C_R   0.252423 0.491907 0.483040 0.310801
C12   C     C_R   0.100094 0.481295 0.442055 -0.072121
C13   C     C_R   0.125070 0.370050 0.463154 -0.044026
C14   C     C_R   0.097628 0.257889 0.467365 0.099419
C15   C     C_R   0.126240 0.591908 0.426175 -0.051077
C16   C     C_R   0.354071 0.506221 0.495380 -0.083386
H1    H     H_    0.347837 0.378476 0.321819 0.156751
H2    H     H_    0.260474 0.377366 0.302839 0.153863
C17   C     C_R   0.645270 0.520503 0.506861 -0.091075
C18   C     C_R   0.970635 0.375056 0.438981 0.050012
C19   C     C_R   0.975786 0.599946 0.468655 0.036028
C20   C     C_R   0.948113 0.489280 0.461346 0.081667
C21   C     C_R   0.940959 0.268473 0.416209 -0.219063
C22   C     C_R   0.890838 0.274441 0.421934 -0.149059
C23   C     C_R   0.868846 0.385878 0.455126 -0.020851
C24   C     C_R   0.897680 0.493024 0.478299 -0.050087
C25   C     C_R   0.876189 0.603967 0.518918 -0.018812
C26   C     C_R   0.826036 0.606139 0.532764 0.514788
N2    N     N_R   0.798120 0.503254 0.499627 -0.461943
C27   C     C_R   0.818499 0.393698 0.463509 0.532242
C28   C     C_R   0.721928 0.452461 0.601759 -0.137828
C29   C     C_R   0.671853 0.453862 0.602676 -0.264839
C30   C     C_R   0.669762 0.592840 0.412299 0.116899
C31   C     C_R   0.720378 0.578441 0.400738 0.123582
C32   C     C_R   0.746386 0.511447 0.500234 0.304828
O10   O     O_2   0.790111 0.293223 0.434417 -0.549015
C33   C     C_R   0.021958 0.371834 0.444110 0.026323
C34   C     C_R   0.048929 0.483275 0.439214 0.041169
C35   C     C_R   0.024856 0.597451 0.433259 -0.005203
C36   C     C_R   0.047000 0.261207 0.457432 -0.231159
H3    H     H_    0.653718 0.400980 0.677494 0.168509
H4    H     H_    0.741899 0.401383 0.677633 0.153675
H5    H     H_    0.869444 0.190838 0.402021 0.185388
H6    H     H_    0.955481 0.179932 0.389165 0.138375
H7    H     H_    0.027528 0.175344 0.467515 0.133316
O11   O     O_2   0.202143 0.695733 0.412322 -0.565497
C37   C     C_R   0.101708 0.700314 0.398783 -0.173619
H8    H     H_    0.121963 0.783244 0.378298 0.189235
C38   C     C_R   0.954417 0.707359 0.521050 -0.243500
C39   C     C_R   0.905258 0.709618 0.544954 -0.148614
O12   O     O_2   0.805074 0.710846 0.575525 -0.546773
C40   C     C_R   0.051205 0.703247 0.393748 0.138353
H9    H     H_    0.975743 0.789930 0.546430 0.146135
H10   H     H_    0.890049 0.794924 0.581857 0.184463
C41   C     C_2   0.483006 0.924906 0.395604 -0.159377
C42   C     C_2   0.501584 0.867069 0.503763 -0.360055
H11   H     H_    0.464366 0.870925 0.313802 0.158277
H12   H     H_    0.520389 0.915028 0.589650 0.143179
C43   C     C_2   0.489397 0.058062 0.378661 0.118873
C44   C     C_2   0.491967 0.131898 0.492971 -0.378581
H13   H     H_    0.486897 0.093304 0.591887 0.142032
C45   C     C_2   0.473307 0.428533 0.918163 -0.066215
N3    N     N_2   0.499480 0.498660 0.846910 -0.160789
H14   H     H_    0.449239 0.362615 0.862773 0.132575
C46   C     C_2   0.465352 0.453795 0.067057 0.184412
N4    N     N_2   0.499460 0.498630 0.153040 -0.312830
H15   H     H_    0.533683 0.474555 0.128414 0.188899
C47   C     C_3   0.247144 0.608035 0.710809 -0.386503
C48   C     C_3   0.256576 0.534986 0.839341 -0.854009
H16   H     H_    0.244622 0.437604 0.819977 0.267647
H17   H     H_    0.295410 0.536794 0.872247 0.248553
H18   H     H_    0.235732 0.574732 0.923688 0.250042
H19   H     H_    0.254312 0.707884 0.730702 0.201995
H20   H     H_    0.207718 0.600714 0.687608 0.214393
C49   C     C_3   0.643951 0.695212 0.336636 -0.439349
C50   C     C_3   0.655561 0.820392 0.407089 -0.806745
H21   H     H_    0.641897 0.822410 0.511811 0.248887
H22   H     H_    0.695055 0.840101 0.413678 0.269518
H23   H     H_    0.637578 0.893831 0.348820 0.243945
H24   H     H_    0.653737 0.696417 0.228539 0.206787
H25   H     H_    0.604227 0.685481 0.332642 0.232362
C51   C     C_3   0.745621 0.624665 0.276874 -0.392657
C52   C     C_3   0.733522 0.539672 0.151436 -0.386671
C53   C     C_3   0.755183 0.589526 0.023711 -0.801260
H26   H     H_    0.740135 0.681085 0.001446 0.258942
H27   H     H_    0.795143 0.598017 0.037610 0.258992
H28   H     H_    0.746169 0.525553 0.935307 0.243575
H29   H     H_    0.748216 0.446864 0.169733 0.244770
H30   H     H_    0.693766 0.529343 0.133119 0.216447
H31   H     H_    0.735612 0.720699 0.256184 0.213509
H32   H     H_    0.785428 0.627787 0.293032 0.207372
C54   C     C_3   0.027225 0.815016 0.332321 -0.431465
C55   C     C_3   0.046160 0.844600 0.192791 -0.824899
H33   H     H_    0.083957 0.880501 0.202263 0.244329
H34   H     H_    0.044231 0.761139 0.124100 0.263889
H35   H     H_    0.023613 0.916732 0.145944 0.240466
H36   H     H_    0.987817 0.799502 0.313935 0.225406
H37   H     H_    0.033182 0.896278 0.403061 0.187048
C56   C     C_3   0.492624 0.107555 0.235026 -0.335133
C57   C     C_3   0.490272 0.010114 0.117267 -0.398135
C58   C     C_3   0.498109 0.068581 0.980592 -0.845638
H38   H     H_    0.469769 0.137152 0.958998 0.246754
H39   H     H_    0.534255 0.114657 0.981496 0.256521
H40   H     H_    0.496083 0.996213 0.897825 0.241830
H41   H     H_    0.518607 0.940598 0.134758 0.230433
H42   H     H_    0.454174 0.963384 0.110944 0.215778
H43   H     H_    0.462405 0.171754 0.216689 0.199102
H44   H     H_    0.527661 0.158467 0.230199 0.218108
C59   C     C_3   0.534111 0.588453 0.918657 -0.149188
C60   C     C_3   0.554814 0.699233 0.845495 -0.310874
C61   C     C_3   0.593170 0.768358 0.937337 -0.966546
H45   H     H_    0.577983 0.798299 0.035584 0.259882
H46   H     H_    0.624600 0.708655 0.958342 0.263439
H47   H     H_    0.606053 0.851299 0.885665 0.263546
H48   H     H_    0.573220 0.673175 0.752496 0.264607
H49   H     H_    0.525781 0.766256 0.824940 0.221024
H50   H     H_    0.515517 0.640149 0.999323 0.171440
H51   H     H_    0.566078 0.536931 0.956018 0.148830
C62   C     C_3   0.413669 0.437731 0.104356 -0.321830
C63   C     C_3   0.389070 0.562420 0.116025 -0.768854
H52   H     H_    0.409488 0.627375 0.187776 0.270664
H53   H     H_    0.386759 0.604565 0.014595 0.215939
H54   H     H_    0.351791 0.549821 0.150732 0.235478
H55   H     H_    0.392764 0.382662 0.023628 0.147084
H56   H     H_    0.411712 0.380428 0.194157 0.207208
C64   C     C_3   0.119403 0.131205 0.479930 -0.346889
C65   C     C_3   0.127965 0.099716 0.630139 -0.314958
C66   C     C_3   0.150383 0.973289 0.643666 -0.810918
H57   H     H_    0.125104 0.900710 0.599427 0.245633
H58   H     H_    0.185001 0.969334 0.590832 0.280132
H59   H     H_    0.157685 0.955132 0.753116 0.236935
H60   H     H_    0.152124 0.169810 0.684131 0.255641
H61   H     H_    0.092901 0.099682 0.681118 0.202145
H62   H     H_    0.094301 0.060299 0.430761 0.166779
H63   H     H_    0.152482 0.122126 0.421192 0.236993
C67   C     C_3   0.354224 0.665979 0.694945 -0.416924
C68   C     C_3   0.373900 0.777543 0.621622 -0.317429
C69   C     C_3   0.401818 0.866608 0.721158 -0.844647
H64   H     H_    0.377983 0.900875 0.801608 0.249954
H65   H     H_    0.433214 0.820212 0.769721 0.258918
H66   H     H_    0.415308 0.946563 0.665553 0.245093
H67   H     H_    0.398208 0.747943 0.540520 0.210239
H68   H     H_    0.343235 0.826726 0.572703 0.224900
H69   H     H_    0.330816 0.702518 0.774168 0.201773
H70   H     H_    0.383289 0.621008 0.754600 0.226140

loop_
_geom_bond_atom_site_label_1
_geom_bond_atom_site_label_2
_geom_bond_distance
_ccdc_geom_bond_type
C54   H37   1.110439 S    
C49   C50   1.527850 S    
N2    C27   1.369596 A    
C52   C53   1.526205 S    
C66   H59   1.110335 S    
C4    C17   1.471376 S    
C68   H67   1.108583 S    
C19   C38   1.410382 A    
C47   H19   1.109131 S    
C48   H16   1.111113 S    
C64   C65   1.535481 S    
C61   H45   1.110635 S    
C46   N4    1.314609 D    
Cu1   O7    1.951906 S    
C55   H34   1.111082 S    
C37   C40   1.398306 A    
N1    C11   1.439667 S    
C26   O12   1.349690 S    
C45   H14   1.085329 S    
O4    C2    1.320112 A    
C22   C23   1.400678 A    
C30   C49   1.529954 S    
C66   H58   1.110925 S    
C54   H36   1.107281 S    
C47   C48   1.529899 S    
O7    C4    1.314062 A    
C61   H46   1.111408 S    
C5    O9    1.346054 S    
C53   H28   1.110592 S    
C23   C27   1.404279 A    
C56   H43   1.111914 S    
C46   C62   1.501664 S    
C60   H48   1.096904 S    
O5    C3    1.305883 A    
C54   C55   1.531281 S    
C47   H20   1.106411 S    
C29   H3    1.083557 S    
C6    O11   1.350496 S    
C2    C16   1.480578 S    
C21   C22   1.394243 A    
C63   H52   1.109751 S    
C45   C46   1.505482 S    
C43   C56   1.533004 S    
C12   C15   1.409317 A    
C59   H51   1.111560 S    
C67   H70   1.105754 S    
C58   H40   1.110711 S    
C37   H8    1.082654 S    
O1    Cu1   1.940092 S    
C49   H24   1.107925 S    
Cu2   N4    2.045562 S    
C7    C47   1.526068 S    
O3    Cu1   1.933683 S    
N3    C59   1.492980 S    
C57   C58   1.527488 S    
C48   H17   1.108919 S    
N1    C6    1.364337 A    
C10   C11   1.393173 A    
C12   C34   1.416561 A    
C55   H35   1.110753 S    
O2    Cu2   1.954492 S    
C17   C29   1.399235 A    
C39   H10   1.083203 S    
C41   C42   1.341063 D    
C18   C21   1.414132 A    
Cu1   Cu2   2.723730 S    
C12   C13   1.420823 A    
O3    C2    1.303278 A    
C62   H55   1.112198 S    
C45   N3    1.287636 D    
C25   C26   1.402061 A    
N4    H15   1.024747 S    
C20   C24   1.414990 A    
C61   H47   1.110769 S    
Cu1   N3    2.047375 S    
C8    C16   1.431663 A    
C13   C14   1.427903 A    
C30   C31   1.422346 A    
C9    H1    1.078104 S    
C69   H66   1.110138 S    
C53   H27   1.110863 S    
C56   H44   1.112025 S    
O1    C1    1.308842 A    
C18   C20   1.414409 A    
C7    C11   1.419534 A    
C28   C29   1.387580 A    
C23   C24   1.406622 A    
C62   H56   1.100012 S    
C14   C36   1.402393 A    
C65   H60   1.110072 S    
C28   H4    1.083057 S    
C31   C51   1.525165 S    
C50   H23   1.110735 S    
O8    C4    1.305482 A    
C64   H63   1.108069 S    
Cu2   O8    1.933677 S    
C33   C36   1.406194 A    
C53   H26   1.110930 S    
C8    C67   1.532090 S    
C34   C35   1.421256 A    
N2    C32   1.437337 S    
C51   C52   1.535852 S    
C27   O10   1.349346 S    
C66   H57   1.109626 S    
C59   C60   1.538377 S    
Cu2   O6    1.940092 S    
C26   N2    1.369814 A    
C9    C16   1.397740 A    
C50   H22   1.109405 S    
C51   H32   1.106592 S    
C69   H65   1.110755 S    
C62   C63   1.531081 S    
C48   H18   1.110431 S    
C58   H38   1.110870 S    
Cu1   O5    1.954492 S    
C25   C39   1.400397 A    
C31   C32   1.417897 A    
C65   H61   1.112029 S    
C10   H2    1.083285 S    
C56   C57   1.539929 S    
C21   H6    1.079190 S    
C52   H29   1.112079 S    
C40   C54   1.525048 S    
C35   C40   1.425253 A    
C59   H50   1.106691 S    
C44   H13   1.085325 S    
C14   C64   1.520103 S    
O6    C3    1.299378 A    
O4    Cu2   1.951909 S    
C65   C66   1.525851 S    
C5    N1    1.368886 A    
C19   C35   1.417989 A    
C55   H33   1.109453 S    
C57   H41   1.111237 S    
C6    C15   1.397270 A    
C7    C8    1.430466 A    
O2    C1    1.302176 A    
C68   H68   1.111831 S    
C43   C44   1.356251 D    
C22   H5    1.083312 S    
C15   C37   1.399087 A    
C68   C69   1.527370 S    
C57   H42   1.111480 S    
C24   C25   1.407792 A    
C64   H62   1.111907 S    
C63   H54   1.109062 S    
C49   H25   1.102150 S    
C19   C20   1.412776 A    
C1    C44   1.455077 S    
C41   C43   1.471209 S    
C67   C68   1.535433 S    
C60   H49   1.111351 S    
C38   C39   1.392188 A    
C18   C33   1.421133 A    
C5    C13   1.421862 A    
C36   H7    1.079280 S    
C38   H9    1.081351 S    
C50   H21   1.111344 S    
C51   H31   1.108233 S    
C63   H53   1.110724 S    
C33   C34   1.415109 A    
C17   C30   1.424052 A    
C42   H12   1.084548 S    
C69   H64   1.110736 S    
C67   H69   1.102824 S    
C41   H11   1.084819 S    
C60   C61   1.532109 S    
C9    C10   1.381899 A    
C28   C32   1.397323 A    
C52   H30   1.110796 S    
C58   H39   1.110795 S    
C3    C42   1.441912 S    
