data_mof_unit_1151.cif
_audit_creation_date              2012-12-10T17:24:14-0500
_audit_creation_method            fapswitch 2.2
_symmetry_space_group_name_H-M    P1
_symmetry_Int_Tables_number       1
_space_group_crystal_system       triclinic
_cell_length_a                    19.410094
_cell_length_b                    10.911008
_cell_length_c                    9.680311
_cell_angle_alpha                 90.47037
_cell_angle_beta                  90.311417
_cell_angle_gamma                 95.927033
_cell_volume                      2039.0630125

loop_
_atom_site_label
_atom_site_type_symbol
_atom_type_description
_atom_site_fract_x
_atom_site_fract_y
_atom_site_fract_z
_atom_type_partial_charge
C1    C     C_R   0.491613 0.262265 0.498725 0.887226
C2    C     C_R   0.290945 0.509378 0.500226 -0.229196
C3    C     C_R   0.928981 0.504685 0.496758 0.541790
C4    C     C_R   0.069060 0.513987 0.498499 0.455350
C5    C     C_R   0.819134 0.546383 0.608368 0.653387
C6    C     C_R   0.747362 0.542666 0.609330 -0.221418
C7    C     C_R   0.707594 0.491118 0.498185 -0.285390
C8    C     C_R   0.740953 0.437086 0.386637 0.337441
C9    C     C_R   0.813582 0.440990 0.385458 0.316667
C10   C     C_R   0.852945 0.497738 0.495855 -0.252621
C11   C     C_R   0.433577 0.101095 0.733742 0.288690
C12   C     C_R   0.367428 0.502520 0.499937 0.877838
C13   C     C_R   0.446943 0.050941 0.862657 0.356085
C14   C     C_R   0.498098 0.969700 0.871812 0.336835
C15   C     C_R   0.517113 0.910239 0.752205 -0.195891
C16   C     C_R   0.493558 0.945173 0.623089 -0.060101
C17   C     C_R   0.468519 0.060740 0.617986 -0.130892
C18   C     C_R   0.476992 0.126679 0.495394 -0.231584
C19   C     C_R   0.476192 0.058761 0.371807 0.668096
C20   C     C_R   0.472579 0.930141 0.376472 0.323679
C21   C     C_R   0.491904 0.872887 0.499908 -0.233861
C22   C     C_R   0.598660 0.655921 0.151301 -0.217943
C23   C     C_R   0.498841 0.738301 0.500470 0.880865
C24   C     C_R   0.652623 0.724858 0.087309 0.565590
C25   C     C_R   0.656414 0.724590 0.945633 0.262881
C26   C     C_R   0.605467 0.656118 0.866766 0.409203
C27   C     C_R   0.550851 0.575998 0.928225 0.042275
C28   C     C_R   0.549454 0.576130 0.077457 0.030217
C29   C     C_R   0.452200 0.428767 0.071569 0.553158
C30   C     C_R   0.452543 0.429012 0.924910 -0.014429
C31   C     C_R   0.631973 0.496290 0.499734 0.923978
C32   C     C_R   0.251251 0.484219 0.622022 0.380968
C33   C     C_R   0.179684 0.486614 0.619490 -0.136240
C34   C     C_R   0.145135 0.515180 0.498991 -0.090132
C35   C     C_R   0.183589 0.544422 0.379858 -0.139441
C36   C     C_R   0.255464 0.542942 0.379327 0.376030
Cu1   Cu    Cu3+1 0.500000 0.499990 0.640660 1.074124
Cu2   Cu    Cu3+1 0.500000 0.500010 0.359340 1.123102
H1    H     H_    0.553044 0.844351 0.760641 0.253628
H2    H     H_    0.597233 0.670288 0.259599 0.234637
H3    H     H_    0.150919 0.465720 0.713459 0.218212
H4    H     H_    0.413464 0.371207 0.869727 0.232586
H5    H     H_    0.157814 0.569364 0.286204 0.216049
H6    H     H_    0.723024 0.582639 0.696599 0.247053
N1    N     N_R   0.034553 0.542200 0.382596 -0.183724
N2    N     N_R   0.965804 0.537891 0.381857 -0.133279
N3    N     N_R   0.963388 0.477985 0.613097 -0.116765
N4    N     N_R   0.032085 0.482376 0.613818 -0.188540
N5    N     N_R   0.500660 0.501210 0.147910 -0.201692
N6    N     N_R   0.500680 0.501290 0.852040 -0.198827
O1    O     O_R   0.499990 0.319640 0.618810 -0.587109
O2    O     O_R   0.500000 0.319660 0.381240 -0.497279
O3    O     O_R   0.400140 0.499970 0.618820 -0.540510
O4    O     O_R   0.400150 0.500000 0.381250 -0.507119
O5    O     O_R   0.500000 0.680340 0.618760 -0.529757
O6    O     O_R   0.500010 0.680360 0.381190 -0.569274
O7    O     O_R   0.599850 0.500000 0.618750 -0.518398
O8    O     O_R   0.599860 0.500030 0.381180 -0.580722
Cl1   Cl    Cl    0.285965 0.449852 0.784076 -0.453043
Cl2   Cl    Cl    0.362021 0.185907 0.708608 -0.486764
Cl3   Cl    Cl    0.394062 0.074473 0.004038 -0.297492
Cl4   Cl    Cl    0.541778 0.945856 0.026196 -0.447277
Cl5   Cl    Cl    0.430159 0.846292 0.238341 -0.377163
Cl6   Cl    Cl    0.386276 0.335073 0.153465 -0.367459
F1    F     F_    0.699678 0.797020 0.164251 -0.547045
Cl7   Cl    Cl    0.722817 0.820255 0.865097 -0.334860
F2    F     F_    0.610044 0.682100 0.732467 -0.644954
Cl8   Cl    Cl    0.297142 0.591149 0.224581 -0.413991
F3    F     F_    0.855756 0.601021 0.716196 -0.564696
Cl9   Cl    Cl    0.693038 0.357215 0.251311 -0.432237
Cl10  Cl    Cl    0.854275 0.367868 0.248785 -0.372015
F4    F     F_    0.475081 0.115755 0.248462 -0.536510

loop_
_geom_bond_atom_site_label_1
_geom_bond_atom_site_label_2
_ccdc_geom_bond_type
C36   Cl8   S    
C23   O5    A    
C16   C21   A    
Cu2   O2    S    
C11   C13   A    
C9    C10   A    
C3    N2    A    
C8    Cl9   S    
C19   C20   A    
Cu2   O4    S    
C27   N6    A    
C19   F4    S    
Cu1   O5    S    
C22   H2    S    
C32   C33   A    
C31   O7    A    
C20   Cl5   S    
C17   C18   A    
C30   N6    A    
C29   Cl6   S    
Cu1   O3    S    
C5    C10   A    
C3    C10   S    
C22   C28   A    
C13   C14   A    
C24   C25   A    
Cu1   N6    S    
C1    O1    A    
C13   Cl3   S    
C15   H1    S    
C1    C18   S    
C29   C30   A    
C28   N5    A    
C24   F1    S    
C26   F2    S    
C31   O8    A    
C3    N3    A    
Cu1   Cu2   S    
C33   C34   A    
C34   C35   A    
C6    C7    A    
C4    C34   S    
C4    N1    A    
C21   C23   S    
C26   C27   A    
C5    C6    A    
Cu1   O1    S    
C1    O2    A    
C22   C24   A    
C9    Cl10  S    
C7    C31   S    
C15   C16   A    
Cu2   O8    S    
C11   Cl2   S    
C14   Cl4   S    
N3    N4    A    
C35   H5    S    
C23   O6    A    
Cu2   O6    S    
C20   C21   A    
C6    H6    S    
C2    C32   A    
C2    C12   S    
C4    N4    A    
C2    C36   A    
C27   C28   A    
Cu2   N5    S    
C7    C8    A    
C14   C15   A    
C18   C19   A    
C5    F3    S    
C29   N5    A    
C32   Cl1   S    
C25   C26   A    
N1    N2    A    
Cu1   O7    S    
C30   H4    S    
C33   H3    S    
C12   O4    A    
C25   Cl7   S    
C12   O3    A    
C16   C17   A    
C8    C9    A    
C35   C36   A    
C11   C17   A    
