data_mof_unit_4629.cif
_audit_creation_date              2012-12-11T15:43:05-0500
_audit_creation_method            fapswitch 2.2
_symmetry_space_group_name_H-M    P1
_symmetry_Int_Tables_number       1
_space_group_crystal_system       triclinic
_cell_length_a                    19.093241
_cell_length_b                    11.142903
_cell_length_c                    18.674632
_cell_angle_alpha                 89.850655
_cell_angle_beta                  90.066288
_cell_angle_gamma                 90.272052
_cell_volume                      3973.0442425

loop_
_atom_site_label
_atom_site_type_symbol
_atom_type_description
_atom_site_fract_x
_atom_site_fract_y
_atom_site_fract_z
_atom_type_partial_charge
C1    C     C_R   0.726714 0.369053 0.143181 0.551265
C2    C     C_R   0.939322 0.967163 0.053507 -0.118702
C3    C     C_R   0.761697 0.477761 0.564761 -0.048503
C4    C     C_R   0.731812 0.381521 0.350287 0.522699
C5    C     C_R   0.269281 0.384660 0.649614 0.546554
C6    C     C_R   0.231812 0.881520 0.350287 0.525924
C7    C     C_R   0.769279 0.884663 0.649617 0.546780
C8    C     C_R   0.531655 0.156457 0.352915 0.553828
C9    C     C_R   0.467457 0.156361 0.646538 0.542414
C10   C     C_R   0.031655 0.656458 0.352916 0.556195
C11   C     C_R   0.967458 0.656361 0.646539 0.543086
C12   C     C_R   0.727326 0.024084 0.361353 0.567531
C13   C     C_R   0.454466 0.489008 0.979973 -0.104628
C14   C     C_R   0.269973 0.013853 0.638163 0.566333
C15   C     C_R   0.227323 0.524093 0.361351 0.566833
C16   C     C_R   0.769983 0.513891 0.638162 0.566920
C17   C     C_R   0.500637 0.174022 0.922930 -0.006264
C18   C     C_R   0.511971 0.159988 0.071558 -0.001369
C19   C     C_R   0.001622 0.675736 0.922463 -0.011351
C20   C     C_R   0.012570 0.660061 0.071178 0.024253
C21   C     C_R   0.487386 0.278415 0.965473 0.024904
C22   C     C_R   0.485675 0.265756 0.040772 0.009567
C23   C     C_R   0.985955 0.778342 0.965577 0.017711
C24   C     C_R   0.445066 0.470906 0.052897 -0.113768
C25   C     C_R   0.984051 0.764487 0.040814 -0.005165
C26   C     C_R   0.535534 0.066824 0.027564 -0.161353
C27   C     C_R   0.528002 0.072141 0.954702 -0.175724
C28   C     C_R   0.038557 0.569317 0.026700 -0.119351
C29   C     C_R   0.032016 0.576136 0.953594 -0.181138
C30   C     C_3   0.542889 0.452697 0.425393 -0.068757
C31   C     C_3   0.580997 0.371908 0.616715 -0.132594
C32   C     C_3   0.042898 0.952708 0.425403 -0.068791
C33   C     C_3   0.080998 0.871894 0.616735 -0.132587
C34   C     C_3   0.920427 0.109786 0.644085 -0.105137
C35   C     C_R   0.747613 0.911940 0.924240 -0.009967
C36   C     C_3   0.236126 0.225320 0.331026 -0.072451
C37   C     C_3   0.420372 0.609864 0.644052 -0.105196
C38   C     C_3   0.736011 0.725233 0.330917 -0.073628
C39   C     C_3   0.923328 0.136481 0.365480 -0.088200
C40   C     C_3   0.081129 0.218723 0.553911 -0.110698
C41   C     C_3   0.423327 0.636454 0.365442 -0.089167
C42   C     C_3   0.581106 0.718747 0.553837 -0.110725
C43   C     C_3   0.082361 0.173256 0.890294 -0.090005
C44   C     C_3   0.945138 0.293388 0.061079 -0.095837
C45   C     C_3   0.586001 0.664935 0.892889 -0.086911
C46   C     C_R   0.221127 0.844321 0.061704 -0.019769
C47   C     C_3   0.464887 0.798733 0.091531 -0.140862
C48   C     C_R   0.248240 0.410136 0.924872 -0.013813
C49   C     C_R   0.735172 0.383304 0.067250 -0.005853
C50   C     C_R   0.721605 0.821521 0.969676 0.089779
C51   C     C_R   0.286031 0.826475 0.029373 0.050366
C52   C     C_R   0.219843 0.320546 0.969619 0.095795
C53   C     C_R   0.269276 0.376102 0.853671 0.546963
C54   C     C_R   0.800987 0.377278 0.036734 0.006711
C55   C     C_R   0.725571 0.832611 0.043682 -0.057478
C56   C     C_R   0.296601 0.851575 0.957984 -0.045021
C57   C     C_R   0.223730 0.329739 0.043796 -0.048490
C58   C     C_R   0.808171 0.391323 0.963565 -0.059683
C59   C     C_R   0.776335 0.030552 0.027146 -0.139689
C60   C     C_R   0.174057 0.893662 0.944191 -0.105873
C61   C     C_R   0.283120 0.520080 0.028871 -0.145552
C62   C     C_R   0.682578 0.391989 0.948730 -0.110837
C63   C     C_R   0.775886 0.016110 0.953661 -0.164748
C64   C     C_R   0.211439 0.830597 0.138721 0.560343
C65   C     C_R   0.163637 0.868880 0.017065 -0.142585
C66   C     C_R   0.280867 0.509246 0.955435 -0.163242
C67   C     C_R   0.675473 0.379971 0.022602 -0.122570
C68   C     C_3   0.647579 0.776617 0.975392 0.160444
C69   C     C_3   0.357979 0.864847 0.050400 0.156541
C70   C     C_3   0.145141 0.278831 0.974768 0.156435
C71   C     C_3   0.863333 0.455073 0.051953 0.156570
C72   C     C_3   0.656643 0.773166 0.055821 -0.236491
C73   C     C_3   0.370004 0.893392 0.971248 -0.219196
C74   C     C_3   0.153880 0.273030 0.055337 -0.236959
C75   C     C_R   0.769153 0.876655 0.853430 0.545373
C76   C     C_3   0.872358 0.467993 0.971253 -0.204488
C77   C     C_R   0.750434 0.939655 0.072973 0.017229
C78   C     C_R   0.242432 0.898025 0.916033 0.008277
C79   C     C_R   0.252211 0.433544 0.074143 0.005117
C80   C     C_R   0.749316 0.408747 0.919654 0.019532
C81   C     C_R   0.533632 0.154263 0.146058 0.532547
C82   C     C_R   0.468422 0.157071 0.852666 0.537262
C83   C     C_R   0.033705 0.654251 0.145937 0.540091
C84   C     C_R   0.968735 0.657338 0.852483 0.532901
C85   C     C_R   0.499530 0.160284 0.575836 -0.026099
C86   C     C_R   0.475720 0.394392 0.936469 -0.081928
C87   C     C_R   0.504624 0.161712 0.425566 0.002754
C88   C     C_R   0.999536 0.660288 0.575839 -0.026126
C89   C     C_R   0.004628 0.661715 0.425569 0.002577
C90   C     C_R   0.500721 0.053413 0.536476 -0.070177
C91   C     C_R   0.504410 0.054805 0.463300 -0.065661
C92   C     C_R   0.000735 0.553418 0.536481 -0.070376
C93   C     C_R   0.004421 0.554810 0.463305 -0.066427
C94   C     C_R   0.505022 0.269750 0.463535 0.255364
C95   C     C_R   0.510767 0.269481 0.539170 0.236971
C96   C     C_R   0.005028 0.769756 0.463538 0.255276
C97   C     C_R   0.459826 0.360227 0.083207 -0.106020
C98   C     C_R   0.010773 0.769486 0.539173 0.236922
C99   C     C_3   0.448047 0.953550 0.534417 -0.211427
C100  C     C_3   0.454328 0.953677 0.454134 -0.235805
C101  C     C_3   0.948079 0.453531 0.534427 -0.212063
C102  C     C_3   0.954353 0.453660 0.454143 -0.234278
C103  C     C_R   0.748118 0.956863 0.586410 -0.005206
C104  C     C_R   0.258476 0.927786 0.417997 -0.057149
C105  C     C_R   0.248123 0.456854 0.586402 -0.005106
C106  C     C_R   0.758484 0.427809 0.417988 -0.055541
C107  C     C_R   0.798593 0.024794 0.548815 -0.034463
C108  C     C_R   0.972787 0.894070 0.937075 -0.071490
C109  C     C_R   0.246491 0.044079 0.442319 -0.026694
C110  C     C_R   0.298600 0.524777 0.548802 -0.034526
C111  C     C_R   0.746491 0.544107 0.442299 -0.026143
C112  C     C_R   0.790713 0.044420 0.476711 -0.035277
C113  C     C_R   0.242632 0.065476 0.515809 0.053728
C114  C     C_R   0.290717 0.544401 0.476700 -0.035249
C115  C     C_R   0.742641 0.565529 0.515791 0.053599
C116  C     C_R   0.672647 0.975282 0.481789 -0.086081
C117  C     C_R   0.284349 0.866253 0.540174 -0.182422
C118  C     C_R   0.172647 0.475286 0.481786 -0.086258
C119  C     C_R   0.956233 0.856966 0.083547 -0.100565
C120  C     C_R   0.784360 0.366305 0.540167 -0.182767
C121  C     C_R   0.680962 0.955437 0.556348 -0.090620
C122  C     C_R   0.282818 0.842985 0.467190 -0.146793
C123  C     C_R   0.180965 0.455434 0.556343 -0.090458
C124  C     C_R   0.782829 0.343021 0.467186 -0.146381
C125  C     C_3   0.876945 0.016915 0.540958 0.228042
C126  C     C_3   0.186247 0.122174 0.424805 0.170247
C127  C     C_3   0.376951 0.516891 0.540931 0.228015
C128  C     C_3   0.686232 0.622156 0.424774 0.170232
C129  C     C_R   0.741441 0.971529 0.147160 0.541861
C130  C     C_R   0.949481 0.986848 0.980751 -0.110306
C131  C     C_R   0.257749 0.967200 0.851402 0.562860
C132  C     C_R   0.241849 0.469814 0.147697 0.531339
C133  C     C_R   0.758412 0.467909 0.851385 0.560994
C134  C     C_3   0.866621 0.033054 0.460288 0.229228
C135  C     C_3   0.170191 0.111124 0.504224 0.211035
C136  C     C_3   0.366619 0.533033 0.460261 0.229457
C137  C     C_3   0.670190 0.611146 0.504197 0.211054
C138  C     C_R   0.730511 0.010140 0.439706 0.003073
C139  C     C_R   0.261680 0.977701 0.564772 -0.048348
C140  C     C_R   0.230509 0.510145 0.439701 0.002668
Cr1   Cr    Cr6+3 0.772010 0.169670 0.250090 0.989635
Cr2   Cr    Cr6+3 0.383290 0.010760 0.749160 0.983387
Cr3   Cr    Cr6+3 0.116710 0.510760 0.250840 0.996629
Cr4   Cr    Cr6+3 0.883290 0.510760 0.749160 0.980473
Cr5   Cr    Cr6+3 0.227990 0.169670 0.749910 1.012147
Cr6   Cr    Cr6+3 0.272010 0.669670 0.250090 0.991551
Cr7   Cr    Cr6+3 0.727990 0.669670 0.749910 1.008672
Cr8   Cr    Cr6+3 0.615000 0.323260 0.249260 0.983720
Cr9   Cr    Cr6+3 0.385000 0.323260 0.750740 0.975407
Cr10  Cr    Cr6+3 0.115000 0.823260 0.249260 0.978100
Cr11  Cr    Cr6+3 0.885000 0.823260 0.750740 0.974233
Cr12  Cr    Cr6+3 0.616710 0.010760 0.250840 0.977790
H1    H     H_    0.561078 0.989235 0.049457 0.127576
H2    H     H_    0.405669 0.980921 0.425900 0.152439
H3    H     H_    0.491024 0.723510 0.119696 0.125058
H4    H     H_    0.609428 0.846377 0.958564 0.064343
H5    H     H_    0.357846 0.943824 0.086960 0.118285
H6    H     H_    0.108170 0.350513 0.958691 0.062229
H7    H     H_    0.847861 0.541129 0.077444 0.124071
H8    H     H_    0.965957 0.369794 0.560372 0.165702
H9    H     H_    0.905689 0.480883 0.425912 0.153920
H10   H     H_    0.637125 0.930950 0.589064 0.135339
H11   H     H_    0.293934 0.755364 0.449071 0.208687
H12   H     H_    0.137127 0.430951 0.589058 0.135329
H13   H     H_    0.793945 0.255392 0.449075 0.208784
H14   H     H_    0.875513 0.950780 0.428431 0.146059
H15   H     H_    0.135314 0.034409 0.517475 0.044095
H16   H     H_    0.375502 0.450761 0.428399 0.145848
H17   H     H_    0.540734 0.994308 0.922945 0.119594
H18   H     H_    0.635322 0.534425 0.517464 0.044064
H19   H     H_    0.938331 0.073781 0.957707 0.088370
H20   H     H_    0.919284 0.037663 0.087265 0.115221
H21   H     H_    0.443824 0.576120 0.956881 0.116706
H22   H     H_    0.426616 0.542576 0.086550 0.170911
H23   H     H_    0.795297 0.115218 0.048019 0.143685
H24   H     H_    0.129685 0.919724 0.911937 0.142359
H25   H     H_    0.307175 0.599733 0.050194 0.197341
H26   H     H_    0.636217 0.398797 0.915627 0.127885
H27   H     H_    0.618629 0.828679 0.085384 0.104442
H28   H     H_    0.064192 0.491770 0.048540 0.142453
H29   H     H_    0.376955 0.991001 0.960849 0.131973
H30   H     H_    0.116431 0.328946 0.085423 0.117132
H31   H     H_    0.863662 0.561512 0.952436 0.131691
H32   H     H_    0.663073 0.681115 0.078033 0.163209
H33   H     H_    0.408949 0.834486 0.944730 0.139959
H34   H     H_    0.158952 0.180093 0.076574 0.169781
H35   H     H_    0.918454 0.423633 0.947378 0.148512
H36   H     H_    0.594505 0.410870 0.437363 0.121679
H37   H     H_    0.531038 0.526714 0.462783 0.167309
H38   H     H_    0.545764 0.490677 0.370632 0.129812
H39   H     H_    0.046564 0.500420 0.920989 0.113203
H40   H     H_    0.627277 0.350871 0.582886 0.112328
H41   H     H_    0.577193 0.306189 0.661316 0.121213
H42   H     H_    0.589503 0.460775 0.641608 0.155147
H43   H     H_    0.094514 0.910878 0.437366 0.121386
H44   H     H_    0.031044 0.026713 0.462801 0.167160
H45   H     H_    0.045774 0.990709 0.370647 0.130586
H46   H     H_    0.127283 0.850857 0.582915 0.112334
H47   H     H_    0.077182 0.806170 0.661332 0.121463
H48   H     H_    0.089503 0.960754 0.641637 0.155128
H49   H     H_    0.623316 0.955135 0.456544 0.161214
H50   H     H_    0.897037 0.486318 0.552956 0.173100
H51   H     H_    0.301873 0.797399 0.576999 0.176685
H52   H     H_    0.123316 0.455140 0.456542 0.160838
H53   H     H_    0.801882 0.297451 0.576995 0.176775
H54   H     H_    0.898657 0.928183 0.555427 0.167375
H55   H     H_    0.144568 0.088085 0.389867 0.081933
H56   H     H_    0.398657 0.428157 0.555402 0.167389
H57   H     H_    0.644548 0.588027 0.389860 0.081206
H58   H     H_    0.945439 0.024153 0.660510 0.170811
H59   H     H_    0.869258 0.123291 0.671035 0.140844
H60   H     H_    0.955400 0.183535 0.662085 0.089116
H61   H     H_    0.980200 0.372476 0.432518 0.164863
H62   H     H_    0.266161 0.141953 0.320259 0.093908
H63   H     H_    0.273262 0.299574 0.319717 0.166542
H64   H     H_    0.191393 0.230603 0.293032 0.135311
H65   H     H_    0.445385 0.524277 0.660542 0.170709
H66   H     H_    0.369179 0.623366 0.670939 0.140908
H67   H     H_    0.455309 0.683664 0.662047 0.089088
H68   H     H_    0.766013 0.641838 0.320129 0.093200
H69   H     H_    0.773149 0.799460 0.319550 0.167619
H70   H     H_    0.691238 0.730523 0.292972 0.131922
H71   H     H_    0.924705 0.045317 0.341492 0.133833
H72   H     H_    0.397009 0.986364 0.552942 0.173056
H73   H     H_    0.977443 0.173049 0.365279 0.086062
H74   H     H_    0.891807 0.195612 0.330343 0.166484
H75   H     H_    0.060294 0.133304 0.576213 0.145755
H76   H     H_    0.052735 0.242446 0.503995 0.138477
H77   H     H_    0.068770 0.284250 0.596144 0.109024
H78   H     H_    0.424712 0.545287 0.341462 0.134553
H79   H     H_    0.477440 0.673033 0.365240 0.083480
H80   H     H_    0.391810 0.695571 0.330294 0.164853
H81   H     H_    0.560275 0.633338 0.576158 0.145816
H82   H     H_    0.552721 0.742428 0.503908 0.138511
H83   H     H_    0.480163 0.872481 0.432509 0.164156
H84   H     H_    0.568728 0.784302 0.596048 0.109038
H85   H     H_    0.485624 0.415753 0.881033 0.122494
H86   H     H_    0.450796 0.349566 0.140042 0.127241
H87   H     H_    0.983326 0.916837 0.881936 0.124778
H88   H     H_    0.947648 0.845166 0.140385 0.129084
H89   H     H_    0.798983 0.084995 0.919947 0.125404
H90   H     H_    0.111700 0.876896 0.039362 0.153373
H91   H     H_    0.306672 0.576506 0.922598 0.136271
H92   H     H_    0.623324 0.373275 0.044942 0.159615
H93   H     H_    0.098480 0.236588 0.847144 0.127479
H94   H     H_    0.465908 0.869801 0.560361 0.165671
H95   H     H_    0.031496 0.201640 0.913511 0.070223
H96   H     H_    0.074207 0.084310 0.865333 0.117509
H97   H     H_    0.985831 0.315563 0.020858 0.100886
H98   H     H_    0.904252 0.235022 0.037223 0.103009
H99   H     H_    0.971303 0.240973 0.103895 0.132712
H100  H     H_    0.601814 0.724041 0.847586 0.130243
H101  H     H_    0.535469 0.696158 0.915545 0.073287
H102  H     H_    0.577588 0.573584 0.871273 0.122620
H103  H     H_    0.466667 0.877332 0.127961 0.148642
H104  H     H_    0.494519 0.815986 0.041469 0.112971
O1    O     O_R   0.787520 0.042810 0.170440 -0.535221
O2    O     O_R   0.454050 0.051210 0.669140 -0.537914
O3    O     O_R   0.045950 0.551210 0.330860 -0.530886
O4    O     O_R   0.954050 0.551210 0.669140 -0.537232
O5    O     O_R   0.681390 0.959480 0.325510 -0.489916
O6    O     O_R   0.318610 0.959480 0.674490 -0.518217
O7    O     O_R   0.181390 0.459480 0.325510 -0.489933
O8    O     O_R   0.818610 0.459480 0.674490 -0.517721
O9    O     O_3   0.667900 0.167900 0.250060 -0.270800
O10   O     O_3   0.332100 0.167900 0.749940 -0.260149
O11   O     O_3   0.167900 0.667900 0.250060 -0.293429
O12   O     O_R   0.212480 0.042810 0.829560 -0.495304
O13   O     O_3   0.832100 0.667900 0.749940 -0.260433
O14   O     O_R   0.765640 0.292100 0.175020 -0.481907
O15   O     O_R   0.234360 0.292100 0.824980 -0.495244
O16   O     O_R   0.265640 0.792100 0.175020 -0.477525
O17   O     O_R   0.734360 0.792100 0.824980 -0.497628
O18   O     O_R   0.670190 0.408840 0.168540 -0.532734
O19   O     O_R   0.329810 0.408840 0.831460 -0.529084
O20   O     O_R   0.170190 0.908840 0.168540 -0.524247
O21   O     O_R   0.829810 0.908840 0.831460 -0.528308
O22   O     O_R   0.556620 0.251410 0.175160 -0.507407
O23   O     O_R   0.287520 0.542810 0.170440 -0.524933
O24   O     O_R   0.443380 0.251410 0.824840 -0.516257
O25   O     O_R   0.056620 0.751410 0.175160 -0.531085
O26   O     O_R   0.943380 0.751410 0.824840 -0.516505
O27   O     O_R   0.545960 0.049620 0.170320 -0.543095
O28   O     O_R   0.454040 0.049620 0.829680 -0.526882
O29   O     O_R   0.045960 0.549620 0.170320 -0.492257
O30   O     O_R   0.954040 0.549620 0.829680 -0.530512
O31   O     O_R   0.681390 0.958010 0.176690 -0.511568
O32   O     O_R   0.318610 0.958010 0.823310 -0.503130
O33   O     O_R   0.181390 0.458010 0.176690 -0.515176
O34   O     O_R   0.712480 0.542810 0.829560 -0.495541
O35   O     O_R   0.818610 0.458010 0.823310 -0.506844
O36   O     O_R   0.787510 0.044390 0.330970 -0.546994
O37   O     O_R   0.212490 0.044390 0.669030 -0.525835
O38   O     O_R   0.287510 0.544390 0.330970 -0.546627
O39   O     O_R   0.712490 0.544390 0.669030 -0.525757
O40   O     O_R   0.765630 0.293570 0.323840 -0.517716
O41   O     O_R   0.234370 0.293570 0.676160 -0.475456
O42   O     O_R   0.265630 0.793570 0.323840 -0.517656
O43   O     O_R   0.734370 0.793570 0.676160 -0.475243
O44   O     O_R   0.670190 0.410420 0.329080 -0.556878
O45   O     O_R   0.556610 0.252880 0.323980 -0.475669
O46   O     O_R   0.329810 0.410420 0.670920 -0.559866
O47   O     O_R   0.170190 0.910420 0.329080 -0.553986
O48   O     O_R   0.829810 0.910420 0.670920 -0.559785
O49   O     O_3   0.487288 0.371473 0.426279 -0.598918
O50   O     O_3   0.518952 0.376623 0.575546 -0.588238
O51   O     O_3   0.987298 0.871480 0.426279 -0.598596
O52   O     O_3   0.018962 0.876626 0.575551 -0.588337
O53   O     O_3   0.912827 0.118167 0.569354 -0.542006
O54   O     O_3   0.211772 0.235250 0.402633 -0.529633
O55   O     O_3   0.412852 0.618128 0.569319 -0.542046
O56   O     O_R   0.443390 0.252880 0.676020 -0.480927
O57   O     O_3   0.711737 0.735216 0.402551 -0.529007
O58   O     O_3   0.896933 0.142610 0.436018 -0.543308
O59   O     O_3   0.154316 0.216882 0.541032 -0.526595
O60   O     O_3   0.396925 0.642591 0.435980 -0.542889
O61   O     O_3   0.654297 0.716918 0.540980 -0.526621
O62   O     O_3   0.134501 0.164652 0.943800 -0.534241
O63   O     O_3   0.918039 0.399192 0.091876 -0.542778
O64   O     O_3   0.638773 0.661010 0.945852 -0.532567
O65   O     O_3   0.395744 0.764505 0.075285 -0.583232
O66   O     O_R   0.056610 0.752880 0.323980 -0.475909
O67   O     O_R   0.943390 0.752880 0.676020 -0.480486
O68   O     O_R   0.545950 0.051210 0.330860 -0.535657

loop_
_geom_bond_atom_site_label_1
_geom_bond_atom_site_label_2
_ccdc_geom_bond_type
Cr12  O5    S    
C105  C110  A    
C61   H25   S    
C87   C91   A    
C107  C112  A    
C32   H44   S    
C24   H22   S    
C5    C105  S    
C13   H21   S    
C75   O21   A    
Cr10  O20   S    
C45   H100  S    
Cr5   O41   S    
C119  H88   S    
C33   H47   S    
C63   H89   S    
C87   C94   A    
C105  C123  A    
Cr2   O2    S    
C30   H37   S    
C132  O33   A    
Cr2   O28   S    
Cr3   O33   S    
C41   H79   S    
C41   O60   S    
C53   O15   A    
C70   C74   S    
Cr5   O10   S    
C6    C104  S    
C91   C100  S    
C134  O58   S    
Cr12  O27   S    
C21   C22   A    
C117  C139  A    
C37   H66   S    
C118  C140  A    
C25   C119  A    
Cr4   O35   S    
C118  H52   S    
C116  C121  A    
C16   O39   A    
C37   O55   S    
C112  C138  A    
C127  C136  S    
C72   H32   S    
C46   C65   A    
Cr11  O13   S    
C20   C28   A    
C31   H40   S    
C17   C21   A    
C80   C133  S    
C43   O62   S    
Cr8   O9    S    
C19   C23   A    
C32   H45   S    
C128  H57   S    
C73   H29   S    
C102  H61   S    
C130  H19   S    
C68   C72   S    
Cr10  O47   S    
C77   C129  S    
Cr1   O14   S    
C99   H94   S    
C28   H28   S    
C107  C125  S    
C34   H60   S    
C135  O59   S    
Cr8   O44   S    
C60   C65   A    
C60   H24   S    
Cr8   O18   S    
C125  O53   S    
C103  C121  A    
C110  C114  A    
C103  C107  A    
C21   C86   A    
C56   C73   S    
C82   O24   A    
C112  C134  S    
C85   C90   A    
C59   C63   A    
C89   C96   A    
C47   H104  S    
C36   H63   S    
C133  O34   A    
C71   C76   S    
C102  H9    S    
C11   O67   A    
Cr5   O12   S    
Cr6   O11   S    
C67   H92   S    
C15   O7    A    
C44   H97   S    
C48   C52   A    
C113  C135  S    
C106  C124  A    
C114  C136  S    
C10   O3    A    
C35   C63   A    
C51   C69   S    
C32   O51   S    
C81   O27   A    
C78   C131  S    
C82   O28   A    
Cr6   O38   S    
C58   C76   S    
C42   O61   S    
C60   C78   A    
C133  O35   A    
C38   H69   S    
C62   C80   A    
C8    O68   A    
C129  O1    A    
Cr9   O24   S    
C104  C122  A    
C66   H91   S    
C23   C108  A    
C128  O57   S    
C56   C78   A    
C17   C82   S    
C39   H74   S    
C34   H58   S    
C9    C85   S    
C115  C137  S    
C101  H8    S    
C43   H95   S    
C96   C98   A    
C69   H5    S    
C113  C139  A    
C114  C140  A    
C11   C88   S    
C108  C130  A    
C12   O5    A    
C69   O65   S    
C7    C103  S    
C75   O17   A    
C14   O37   A    
C137  O61   S    
C106  C111  A    
Cr6   O42   S    
C48   C53   S    
C68   O64   S    
Cr4   O30   S    
C17   C27   A    
C129  O31   A    
Cr3   O3    S    
C70   O62   S    
C34   H59   S    
Cr11  O67   S    
C31   H41   S    
Cr1   O40   S    
C4    C106  S    
C46   C51   A    
Cr10  O25   S    
C40   H76   S    
C117  C122  A    
C44   H99   S    
C108  H87   S    
C137  H18   S    
C1    O18   A    
Cr7   O17   S    
Cr7   O43   S    
C12   C138  S    
C90   C99   S    
C100  H2    S    
C27   H17   S    
C8    O45   A    
C18   C22   A    
Cr2   O10   S    
C73   H33   S    
C74   H30   S    
C12   O36   A    
C4    O44   A    
C99   C100  S    
C40   O59   S    
C36   H64   S    
C85   C95   A    
C33   H46   S    
C61   C79   A    
Cr8   O22   S    
C30   H38   S    
C89   C93   A    
C126  O54   S    
C124  H13   S    
C109  C126  S    
C41   H78   S    
C111  C128  S    
C135  H15   S    
C26   H1    S    
C48   C66   A    
C40   H77   S    
C9    O2    A    
C88   C98   A    
C3    C16   S    
C19   C84   S    
C2    H20   S    
C125  C134  S    
Cr9   O56   S    
C15   O38   A    
C101  C102  S    
C18   C26   A    
C37   H65   S    
C116  H49   S    
C26   C27   A    
C120  H53   S    
C28   C29   A    
C96   O51   S    
C131  O32   A    
C42   H81   S    
C20   C25   A    
C5    O41   A    
C54   C71   S    
C134  H14   S    
C69   C73   S    
C76   H31   S    
C49   C67   A    
C83   O29   A    
C58   C80   A    
C45   H102  S    
C6    O47   A    
C39   H71   S    
Cr9   O10   S    
C32   H43   S    
C98   O52   S    
C24   C97   A    
Cr11  O26   S    
C131  O12   A    
C33   H48   S    
C84   O26   A    
C47   O65   S    
C64   O20   A    
C81   O22   A    
C70   H6    S    
C30   H36   S    
C127  H56   S    
C47   H103  S    
C41   H80   S    
C33   O52   S    
C76   H35   S    
C92   C101  S    
C34   O53   S    
C44   H98   S    
C126  C135  S    
Cr3   O29   S    
Cr3   O7    S    
C37   H67   S    
Cr4   O8    S    
C71   H7    S    
Cr1   O36   S    
C15   C140  S    
C93   C102  S    
Cr12  O9    S    
C11   O4    A    
C38   H70   S    
Cr4   O13   S    
Cr7   O13   S    
C3    C115  A    
C123  H12   S    
C90   C91   A    
Cr7   O39   S    
C121  H10   S    
C92   C93   A    
C2    C130  A    
C118  C123  A    
C10   O66   A    
C94   C95   A    
C39   H73   S    
C52   C57   A    
Cr9   O46   S    
C100  H83   S    
Cr2   O6    S    
C50   C68   S    
Cr2   O32   S    
C74   H34   S    
Cr7   O34   S    
C38   O57   S    
C57   C79   A    
C59   C77   A    
Cr12  O31   S    
C9    O56   A    
C136  O60   S    
C97   H86   S    
C35   C75   S    
C62   C67   A    
Cr9   O19   S    
C30   O49   S    
C43   H93   S    
C59   H23   S    
C101  H50   S    
C104  C109  A    
C55   C77   A    
Cr12  O68   S    
C31   O50   S    
C49   C54   A    
C125  H54   S    
C86   H85   S    
C51   C56   A    
C42   H84   S    
C61   C66   A    
C88   C92   A    
C94   O49   S    
C13   C86   A    
C64   O16   A    
C5    O46   A    
C126  H55   S    
C45   O64   S    
C55   C72   S    
C109  C113  A    
C110  C127  S    
C71   O63   S    
C7    O48   A    
C22   C97   A    
C116  C138  A    
C36   O54   S    
C38   H68   S    
C10   C89   S    
C14   O6    A    
C6    O42   A    
Cr10  O66   S    
C1    O14   A    
C136  H16   S    
C122  H11   S    
C13   C24   A    
C46   C64   S    
Cr1   O9    S    
C57   C74   S    
C128  C137  S    
C83   O25   A    
Cr8   O45   S    
C43   H96   S    
C36   H62   S    
C35   C50   A    
C29   H39   S    
C18   C81   S    
Cr6   O23   S    
C54   C58   A    
C132  O23   A    
C84   O30   A    
C99   H72   S    
Cr1   O1    S    
C95   O50   S    
C4    O40   A    
C68   H4    S    
C62   H26   S    
C31   H42   S    
C2    C119  A    
C7    O43   A    
C127  O55   S    
C65   H90   S    
C50   C55   A    
Cr5   O15   S    
C8    C87   S    
C40   H75   S    
Cr6   O16   S    
Cr11  O21   S    
Cr5   O37   S    
C42   H82   S    
C47   H3    S    
C79   C132  S    
Cr3   O11   S    
C23   C25   A    
C44   O63   S    
Cr4   O4    S    
C52   C70   S    
C3    C120  A    
C16   O8    A    
C53   O19   A    
C14   C139  S    
C20   C83   S    
C111  C115  A    
Cr11  O48   S    
C72   H27   S    
C117  H51   S    
C39   O58   S    
C1    C49   S    
Cr10  O11   S    
C120  C124  A    
C45   H101  S    
C19   C29   A    
