data_mof_unit_3313.cif
_audit_creation_date              2012-12-11T16:57:16-0500
_audit_creation_method            fapswitch 2.2
_symmetry_space_group_name_H-M    P1
_symmetry_Int_Tables_number       1
_space_group_crystal_system       triclinic
_cell_length_a                    14.563557
_cell_length_b                    16.143277
_cell_length_c                    6.938294
_cell_angle_alpha                 89.999988
_cell_angle_beta                  98.928007
_cell_angle_gamma                 90.0
_cell_volume                      1611.45381479

loop_
_atom_site_label
_atom_site_type_symbol
_atom_type_description
_atom_site_fract_x
_atom_site_fract_y
_atom_site_fract_z
_atom_type_partial_charge
O1    O     O_R   0.584990 0.413650 0.534420 -0.549128
O2    O     O_R   0.584990 0.586350 0.534420 -0.549128
O3    O     O_R   0.596190 0.585230 0.208380 -0.521071
O4    O     O_R   0.596190 0.414770 0.208380 -0.521072
O5    O     O_R   0.415010 0.586420 0.976930 -0.530551
O6    O     O_R   0.415010 0.413580 0.976930 -0.530551
C1    C     C_R   0.618094 0.614896 0.384093 0.706655
C2    C     C_R   0.618094 0.385104 0.384093 0.706655
O7    O     O_3   0.440560 0.500000 0.319140 -0.377563
V1    V     V_3+5 0.511030 0.500000 0.068070 1.493318
O8    O     O_R   0.403810 0.414840 0.643540 -0.546220
O9    O     O_R   0.403810 0.585160 0.643540 -0.546220
C3    C     C_R   0.380968 0.386530 0.805504 0.807299
C4    C     C_R   0.380968 0.613470 0.805504 0.807299
V2    V     V_3+5 0.488970 0.500000 0.560620 1.438738
O10   O     O_3   0.559440 0.500000 0.859420 -0.371158
H1    H     H_    0.185387 0.803204 0.808981 0.118302
H2    H     H_    0.185388 0.196795 0.808981 0.118303
H3    H     H_    0.323986 0.695122 0.100359 0.195743
H4    H     H_    0.323988 0.304877 0.100359 0.195743
C5    C     C_2   0.311266 0.680681 0.795657 -0.375306
C6    C     C_2   0.311266 0.319319 0.795657 -0.375307
C7    C     C_2   0.289778 0.716329 0.958741 -0.097520
C8    C     C_2   0.289778 0.283670 0.958741 -0.097518
C9    C     C_2   0.198277 0.820417 0.115028 0.112663
C10   C     C_2   0.198277 0.179582 0.115028 0.112662
C11   C     C_2   0.220297 0.783913 0.951822 -0.160721
C12   C     C_2   0.220298 0.216086 0.951822 -0.160723
H5    H     H_    0.277317 0.701198 0.653549 0.145932
H6    H     H_    0.277316 0.298803 0.653549 0.145931
C13   C     C_R   0.680762 0.745762 0.559278 0.079693
C14   C     C_R   0.680762 0.254238 0.559278 0.079693
C15   C     C_R   0.683969 0.686244 0.412662 -0.115103
C16   C     C_R   0.683969 0.313756 0.412662 -0.115103
C17   C     C_R   0.749218 0.699985 0.285062 -0.142227
C18   C     C_R   0.749218 0.300015 0.285062 -0.142227
H7    H     H_    0.753339 0.657393 0.166455 0.120005
H8    H     H_    0.753339 0.342607 0.166454 0.120005
C19   C     C_R   0.814183 0.765685 0.316855 -0.189133
C20   C     C_R   0.814183 0.234315 0.316855 -0.189132
H9    H     H_    0.865894 0.771639 0.221369 0.120064
H10   H     H_    0.865894 0.228361 0.221368 0.120064
C21   C     C_R   0.816693 0.819227 0.478491 -0.111418
C22   C     C_R   0.816693 0.180773 0.478491 -0.111418
C23   C     C_R   0.746380 0.809167 0.592737 0.124161
C24   C     C_R   0.746380 0.190833 0.592738 0.124161
C25   C     C_3   0.751448 0.804577 0.808361 -0.451866
C26   C     C_3   0.751448 0.195422 0.808361 -0.451866
C27   C     C_3   0.677954 0.736543 0.772748 -0.192895
C28   C     C_3   0.677953 0.263456 0.772748 -0.192895
H11   H     H_    0.728134 0.863056 0.870444 0.196197
H12   H     H_    0.728134 0.136944 0.870444 0.196197
H13   H     H_    0.820150 0.781479 0.880148 0.154662
H14   H     H_    0.820150 0.218521 0.880148 0.154662
H15   H     H_    0.703069 0.674916 0.830007 0.113237
H16   H     H_    0.703069 0.325083 0.830007 0.113237
O11   O     O_R   0.921430 0.915960 0.371040 -0.534754
O12   O     O_R   0.921430 0.084040 0.371040 -0.534754
O13   O     O_R   0.910450 0.087500 0.697310 -0.541999
O14   O     O_R   0.910450 0.912500 0.697310 -0.541999
O15   O     O_R   0.091710 0.087460 0.928430 -0.550288
O16   O     O_R   0.091710 0.912540 0.928430 -0.550288
C29   C     C_R   0.888159 0.114436 0.519125 0.702511
C30   C     C_R   0.888159 0.885564 0.519125 0.702511
O17   O     O_3   0.065970 0.000000 0.586140 -0.370821
V3    V     V_3+5 0.995640 0.000000 0.837400 1.402452
O18   O     O_R   0.103020 0.915700 0.261710 -0.538406
O19   O     O_R   0.103020 0.084300 0.261710 -0.538406
C31   C     C_R   0.125877 0.886220 0.100766 0.673682
C32   C     C_R   0.125877 0.113780 0.100766 0.673683
V4    V     V_3+5 0.017940 1.000000 0.344880 1.396024
O20   O     O_3   0.947330 0.000000 0.046180 -0.364299
N1    N     N_2   0.244331 0.795998 0.302917 -0.534898
H17   H     H_    0.201581 0.795957 0.408266 0.251544
C33   C     C_3   0.330316 0.839881 0.366405 -0.514082
H18   H     H_    0.364477 0.813971 0.507488 0.205704
H19   H     H_    0.316263 0.906773 0.386406 0.186008
H20   H     H_    0.378667 0.832758 0.258385 0.218132
N2    N     N_2   0.244330 0.204003 0.302917 -0.534898
H21   H     H_    0.201579 0.204046 0.408264 0.251542
C34   C     C_3   0.330314 0.160118 0.366409 -0.514074
H22   H     H_    0.364475 0.186031 0.507490 0.205703
H23   H     H_    0.378667 0.167240 0.258389 0.218129
H24   H     H_    0.316259 0.093227 0.386414 0.186007
C35   C     C_2   0.586224 0.762577 0.827962 0.789301
O21   O     O_2   0.552142 0.722003 0.947353 -0.565798
O22   O     O_R   0.541337 0.833917 0.746778 -0.665215
H25   H     H_    0.481584 0.845639 0.799831 0.283760
C36   C     C_2   0.586224 0.237423 0.827962 0.789300
O23   O     O_2   0.552142 0.277997 0.947353 -0.565798
O24   O     O_R   0.541337 0.166083 0.746777 -0.665215
H26   H     H_    0.481584 0.154361 0.799830 0.283760

loop_
_geom_bond_atom_site_label_1
_geom_bond_atom_site_label_2
_ccdc_geom_bond_type
O15   C32   A    
O22   H25   S    
O1    C2    A    
N1    C33   S    
N1    H17   S    
C17   C19   A    
O2    C1    A    
O4    C2    A    
C34   H22   S    
C25   C27   S    
C35   O21   D    
C26   H14   S    
C4    C5    S    
C17   H7    S    
C9    N1    S    
O3    C1    A    
O13   V3    S    
O12   V4    S    
V2    O10   S    
O8    V2    S    
O15   V3    S    
V3    O20   S    
H4    C8    S    
C13   C15   A    
O1    V2    S    
C7    C11   S    
C36   O24   S    
O7    V1    S    
C16   C18   A    
C25   H13   S    
C20   H10   S    
O14   V3    S    
C1    C15   S    
C13   C27   S    
C34   H23   S    
C22   C24   A    
C21   C30   S    
C23   C25   S    
C22   C29   S    
C24   C26   S    
O16   V3    S    
C35   O22   S    
H1    C11   S    
C27   C35   S    
C18   C20   A    
H2    C12   S    
C19   H9    S    
O24   H26   S    
N2    C34   S    
C19   C21   A    
C27   H15   S    
C5    H5    S    
C28   H16   S    
O16   C31   A    
O18   C31   A    
C14   C16   A    
H3    C7    S    
C33   H18   S    
C33   H19   S    
C28   C36   S    
O9    V2    S    
C20   C22   A    
C2    C16   S    
O11   V4    S    
O2    V2    S    
C21   C23   A    
C14   C28   S    
O5    C4    A    
O9    C4    A    
C5    C7    D    
C10   C32   S    
C6    C8    D    
O13   C29   A    
C9    C31   S    
O4    V1    S    
C34   H24   S    
O11   C30   A    
O12   C29   A    
C6    H6    S    
C14   C24   A    
C8    C12   S    
O6    V1    S    
C25   H11   S    
C9    C11   D    
C10   C12   D    
C10   N2    S    
O14   C30   A    
C18   H8    S    
O7    V2    S    
O5    V1    S    
O3    V1    S    
O17   V4    S    
O6    C3    A    
O8    C3    A    
O19   V4    S    
C26   C28   S    
C15   C17   A    
C3    C6    S    
O18   V4    S    
C33   H20   S    
N2    H21   S    
C26   H12   S    
V4    O20   S    
O19   C32   A    
O17   V3    S    
C13   C23   A    
V1    O10   S    
C36   O23   D    
