data_mof_unit_4659.cif
_audit_creation_date              2012-12-10T18:48:21-0500
_audit_creation_method            fapswitch 2.2
_symmetry_space_group_name_H-M    P1
_symmetry_Int_Tables_number       1
_space_group_crystal_system       triclinic
_cell_length_a                    10.724547
_cell_length_b                    10.053804
_cell_length_c                    11.530642
_cell_angle_alpha                 89.999025
_cell_angle_beta                  99.164912
_cell_angle_gamma                 90.000702
_cell_volume                      1227.39107145

loop_
_atom_site_label
_atom_site_type_symbol
_atom_type_description
_atom_site_fract_x
_atom_site_fract_y
_atom_site_fract_z
_atom_type_partial_charge
C1    C     C_R   0.260611 0.499874 0.501289 0.906695
C2    C     C_R   0.935902 0.620286 0.497976 -0.134248
C3    C     C_R   0.935976 0.377953 0.499426 -0.126854
C4    C     C_R   0.064121 0.620283 0.502136 -0.134356
C5    C     C_R   0.872080 0.499321 0.498228 -0.070725
C6    C     C_R   0.127918 0.499318 0.501760 -0.070813
C7    C     C_R   0.584283 0.072900 0.582850 0.266767
C8    C     C_R   0.414161 0.927323 0.418962 0.272543
C9    C     C_R   0.415713 0.072900 0.417155 0.266777
C10   C     C_R   0.585836 0.927323 0.581040 0.272541
C11   C     C_R   0.739389 0.499876 0.498708 0.906753
C12   C     C_R   0.501048 0.499989 0.282512 0.927880
C13   C     C_R   0.498950 0.499987 0.717488 0.927777
C14   C     C_1   0.500784 0.499937 0.161840 -0.117291
C15   C     C_1   0.499213 0.499933 0.838159 -0.117417
C16   C     C_1   0.500308 0.499865 0.059462 0.062545
C17   C     C_1   0.499689 0.499863 0.940537 0.062547
C18   C     C_R   0.063997 0.377953 0.500428 -0.126843
H1    H     H_    0.112327 0.283319 0.500333 0.200300
H2    H     H_    0.887365 0.714746 0.494733 0.218488
H3    H     H_    0.887626 0.283319 0.499415 0.200216
H4    H     H_    0.112678 0.714740 0.505481 0.218446
H5    H     H_    0.758558 0.344533 0.781560 0.364311
H6    H     H_    0.202772 0.661326 0.244129 0.366133
H7    H     H_    0.241210 0.344468 0.218485 0.364335
H8    H     H_    0.797087 0.661368 0.756120 0.366131
N1    N     N_R   0.500000 0.857200 0.500000 -0.230607
N2    N     N_R   0.500000 0.142800 0.500000 -0.229320
O1    O     O_R   0.316770 0.614620 0.499990 -0.574397
O2    O     O_2   0.812799 0.100545 0.732475 -0.195600
O3    O     O_3   0.717564 0.321028 0.700982 -0.536053
O4    O     O_2   0.167805 0.877930 0.353903 -0.293837
O5    O     O_2   0.294619 0.893917 0.194779 -0.191987
O6    O     O_3   0.283792 0.677833 0.296677 -0.532570
O7    O     O_2   0.381857 0.140816 0.189259 -0.250423
O8    O     O_2   0.187136 0.100560 0.267672 -0.195824
O9    O     O_3   0.282439 0.321041 0.299016 -0.536109
O10   O     O_2   0.832186 0.877981 0.646205 -0.293738
O11   O     O_2   0.705247 0.893886 0.805247 -0.192170
O12   O     O_R   0.683230 0.385380 0.500010 -0.574408
O13   O     O_3   0.716212 0.677830 0.703318 -0.532598
O14   O     O_R   0.683230 0.614620 0.500010 -0.574376
O15   O     O_R   0.316770 0.385380 0.499990 -0.574376
O16   O     O_R   0.500020 0.614670 0.334450 -0.551458
O17   O     O_R   0.499980 0.385330 0.665550 -0.549561
O18   O     O_R   0.499980 0.614670 0.665550 -0.551434
O19   O     O_R   0.500020 0.385330 0.334450 -0.549551
O20   O     O_2   0.618003 0.140871 0.810729 -0.250534
S1    S     S_3+6 0.683096 0.159432 0.705582 0.124989
S2    S     S_3+6 0.291613 0.842257 0.316540 0.118137
S3    S     S_3+6 0.316855 0.159431 0.294454 0.124926
S4    S     S_3+6 0.708351 0.842259 0.683492 0.118085
Zn1   Zn    Zn3+2 0.500000 0.653120 0.500000 1.100945
Zn2   Zn    Zn3+2 0.500000 0.346880 0.500000 1.101210

loop_
_geom_bond_atom_site_label_1
_geom_bond_atom_site_label_2
_ccdc_geom_bond_type
C10   N1    A    
C7    C10   A    
C2    C4    A    
N1    Zn1   S    
C4    H4    S    
O13   S4    S    
C9    S3    S    
C13   C15   S    
C10   S4    S    
C1    O1    A    
O11   S4    D    
C9    N2    A    
C12   O16   A    
C13   O17   A    
O4    S2    D    
C11   O12   A    
O8    S3    D    
O1    Zn1   S    
O3    S1    S    
C12   O19   A    
C6    C18   A    
O18   Zn1   S    
O20   S1    D    
O2    S1    D    
C12   C14   S    
O17   Zn2   S    
C5    C11   S    
O12   Zn2   S    
O19   Zn2   S    
O14   Zn1   S    
O7    S3    D    
C13   O18   A    
O9    S3    S    
C14   C16   T    
C3    H3    S    
C2    C5    A    
O6    S2    S    
C2    H2    S    
C1    C6    S    
C8    S2    S    
O10   S4    D    
C7    S1    S    
C3    C18   A    
C4    C6    A    
C18   H1    S    
C15   C17   T    
C8    N1    A    
N2    Zn2   S    
C8    C9    A    
C11   O14   A    
O15   Zn2   S    
H7    O9    S    
O5    S2    D    
O16   Zn1   S    
C1    O15   A    
H6    O6    S    
C7    N2    A    
H8    O13   S    
C16   C17   S    
C3    C5    A    
H5    O3    S    
