data_mof_unit_3314.cif
_audit_creation_date              2012-12-11T15:37:23-0500
_audit_creation_method            fapswitch 2.2
_symmetry_space_group_name_H-M    P1
_symmetry_Int_Tables_number       1
_space_group_crystal_system       triclinic
_cell_length_a                    17.541055
_cell_length_b                    24.646637
_cell_length_c                    14.952266
_cell_angle_alpha                 89.973567
_cell_angle_beta                  126.637836
_cell_angle_gamma                 90.027829
_cell_volume                      5187.09273431

loop_
_atom_site_label
_atom_site_type_symbol
_atom_type_description
_atom_site_fract_x
_atom_site_fract_y
_atom_site_fract_z
_atom_type_partial_charge
C1    C     C_R   0.846365 0.650965 0.908152 -0.155604
C2    C     C_R   0.161070 0.352212 0.092810 -0.158379
C3    C     C_R   0.150390 0.651936 0.090966 -0.183752
C4    C     C_R   0.810173 0.374258 0.905062 -0.138904
C5    C     C_R   0.351135 0.152456 0.910056 -0.174617
C6    C     C_R   0.689764 0.874159 0.095048 -0.137594
C7    C     C_R   0.653605 0.150978 0.091941 -0.154099
C8    C     C_R   0.340432 0.851530 0.907545 -0.163286
C9    C     C_3   0.422617 0.501262 0.357868 0.182509
C10   C     C_3   0.592771 0.501206 0.541440 0.186704
C11   C     C_3   0.907362 0.001241 0.459844 0.185208
C12   C     C_3   0.077452 0.001175 0.644293 0.184267
C13   C     C_R   0.710369 0.281114 0.902895 -0.164877
C14   C     C_R   0.225376 0.759023 0.082284 -0.176368
C15   C     C_R   0.256661 0.254750 0.090195 -0.193087
C16   C     C_R   0.810911 0.771316 0.927026 -0.148920
C17   C     C_R   0.247765 0.752584 0.911877 -0.194100
C18   C     C_R   0.689178 0.271359 0.073413 -0.149066
C19   C     C_R   0.788981 0.780726 0.096996 -0.164457
C20   C     C_R   0.279383 0.260701 0.920038 -0.173160
C21   C     C_R   0.178591 0.722571 0.904813 -0.160683
C22   C     C_R   0.737198 0.315728 0.072040 -0.130153
C23   C     C_R   0.837638 0.737743 0.096773 -0.133177
C24   C     C_R   0.210462 0.291565 0.913215 -0.150877
C25   C     C_R   0.661715 0.238120 0.903121 -0.132087
C26   C     C_R   0.294198 0.789735 0.088733 -0.153372
C27   C     C_R   0.326051 0.224801 0.097877 -0.167178
C28   C     C_R   0.762878 0.815646 0.928384 -0.130512
C29   C     C_R   0.168461 0.724822 0.991018 0.177058
C30   C     C_R   0.751651 0.318871 0.989591 0.174484
C31   C     C_R   0.845720 0.731830 0.009974 0.178427
C32   C     C_R   0.198525 0.287839 0.997823 0.189446
C33   C     C_R   0.654056 0.231999 0.990215 0.178434
C34   C     C_R   0.305672 0.786019 0.003739 0.187986
C35   C     C_R   0.335971 0.226451 0.011411 0.169167
C36   C     C_R   0.748120 0.818643 0.010581 0.174933
C37   C     C_R   0.102707 0.449970 0.625386 -0.194529
C38   C     C_R   0.107395 0.548110 0.536544 -0.173047
C39   C     C_R   0.103391 0.449903 0.533853 -0.205561
C40   C     C_R   0.089176 0.547919 0.613928 -0.227181
C41   C     C_R   0.398296 0.948927 0.467360 -0.201775
C42   C     C_R   0.397632 0.046790 0.374634 -0.176279
C43   C     C_R   0.399183 0.948691 0.375945 -0.206973
C44   C     C_R   0.383657 0.046760 0.456233 -0.188875
C45   C     C_R   0.100653 0.499345 0.485137 0.181074
C46   C     C_R   0.082675 0.498430 0.655648 0.191823
C47   C     C_R   0.414292 0.997556 0.341550 0.191859
C48   C     C_R   0.397183 0.998472 0.512942 0.177783
C49   C     C_R   0.907351 0.370180 0.091917 0.343017
C50   C     C_R   0.047516 0.652168 0.907202 0.428518
C51   C     C_R   0.061684 0.351421 0.906963 0.379308
C52   C     C_R   0.948520 0.650874 0.093916 0.359765
C53   C     C_R   0.440122 0.850925 0.093273 0.374278
C54   C     C_R   0.551400 0.150979 0.906214 0.354634
C55   C     C_R   0.592615 0.870075 0.908191 0.343917
C56   C     C_R   0.452928 0.151721 0.094230 0.413836
C57   C     C_R   0.042569 0.545165 0.301814 0.550425
C58   C     C_R   0.003221 0.453783 0.734157 0.473050
C59   C     C_R   0.031295 0.542644 0.764138 0.546749
C60   C     C_R   0.067673 0.455967 0.312428 0.545654
C61   C     C_R   0.470563 0.042804 0.238394 0.528626
C62   C     C_R   0.432249 0.955761 0.687587 0.540872
C63   C     C_R   0.456134 0.044893 0.696928 0.548481
C64   C     C_R   0.500887 0.953997 0.270060 0.477577
C65   C     C_R   0.735919 0.455342 0.702521 -0.163019
C66   C     C_R   0.267630 0.545717 0.246746 -0.136862
C67   C     C_R   0.268204 0.455557 0.244932 -0.141989
C68   C     C_R   0.735977 0.545867 0.704917 -0.116407
C69   C     C_R   0.232107 0.955491 0.756538 -0.141625
C70   C     C_R   0.764000 0.045849 0.295423 -0.115320
C71   C     C_R   0.764002 0.955368 0.297867 -0.161163
C72   C     C_R   0.232820 0.045587 0.755908 -0.128595
C73   C     C_R   0.880486 0.680776 0.002823 -0.087900
C74   C     C_R   0.136989 0.325269 0.999099 -0.062052
C75   C     C_R   0.115398 0.682604 0.996944 -0.068405
C76   C     C_R   0.816989 0.357258 0.997102 -0.088105
C77   C     C_R   0.386951 0.183016 0.004792 -0.074933
C78   C     C_R   0.682920 0.857107 0.003054 -0.089595
C79   C     C_R   0.619457 0.180846 0.997344 -0.085778
C80   C     C_R   0.365933 0.824100 0.001460 -0.059900
C81   C     C_R   0.074204 0.500564 0.372709 -0.383503
C82   C     C_R   0.043742 0.497458 0.718490 -0.326873
C83   C     C_R   0.461430 0.997664 0.287417 -0.343796
C84   C     C_R   0.424979 0.000191 0.626367 -0.379345
C85   C     C_R   0.683517 0.500841 0.648249 0.021655
C86   C     C_R   0.322825 0.501000 0.269225 0.016726
C87   C     C_R   0.177504 0.000832 0.733591 -0.000241
C88   C     C_R   0.816527 0.000854 0.352469 0.019454
C89   C     C_3   0.520643 0.455908 0.506995 -0.162784
C90   C     C_3   0.494505 0.546705 0.391816 -0.149778
C91   C     C_3   0.495929 0.457198 0.389123 -0.168561
C92   C     C_3   0.519301 0.545175 0.509716 -0.149514
C93   C     C_3   0.004077 0.956903 0.611950 -0.162023
C94   C     C_3   0.980856 0.045426 0.492597 -0.145470
C95   C     C_3   0.979832 0.956161 0.494278 -0.165930
C96   C     C_3   0.005215 0.046416 0.610335 -0.158163
C97   C     C_3   0.446575 0.499897 0.474761 -0.138217
C98   C     C_3   0.570471 0.502651 0.425621 -0.143488
C99   C     C_3   0.929243 0.002145 0.575511 -0.142433
C100  C     C_3   0.053905 0.000358 0.527524 -0.134981
H1    H     H_    0.799612 0.664576 0.822590 0.154031
H2    H     H_    0.210594 0.339554 0.178499 0.114528
H3    H     H_    0.200065 0.664725 0.176674 0.159585
H4    H     H_    0.751614 0.368313 0.818704 0.120206
H5    H     H_    0.301774 0.165642 0.824557 0.159412
H6    H     H_    0.748260 0.868181 0.181445 0.120734
H7    H     H_    0.700265 0.164562 0.177520 0.153382
H8    H     H_    0.290996 0.838768 0.821908 0.116064
H9    H     H_    0.719877 0.414336 0.670597 0.112625
H10   H     H_    0.290421 0.587519 0.265031 0.116086
H11   H     H_    0.293230 0.414303 0.263658 0.099185
H12   H     H_    0.720101 0.587674 0.677603 0.119243
H13   H     H_    0.207225 0.914180 0.738057 0.100536
H14   H     H_    0.779792 0.087651 0.322742 0.119579
H15   H     H_    0.779917 0.914346 0.329740 0.112852
H16   H     H_    0.210112 0.087426 0.738653 0.118322
H17   H     H_    0.394601 0.499117 0.494170 0.106728
H18   H     H_    0.624646 0.504168 0.409690 0.132188
H19   H     H_    0.874885 0.003304 0.591167 0.132764
H20   H     H_    0.106167 0.999946 0.508539 0.107344
H21   H     H_    0.532880 0.418956 0.556472 0.116341
H22   H     H_    0.480935 0.583465 0.341345 0.129797
H23   H     H_    0.483352 0.421584 0.336470 0.124123
H24   H     H_    0.530585 0.580929 0.561495 0.124998
H25   H     H_    0.016398 0.921009 0.663904 0.123483
H26   H     H_    0.969743 0.081426 0.441402 0.124901
H27   H     H_    0.968001 0.919417 0.444521 0.116733
H28   H     H_    0.018295 0.082987 0.661023 0.132084
H29   H     H_    0.721537 0.281993 0.839110 0.135203
H30   H     H_    0.218390 0.760686 0.149505 0.142973
H31   H     H_    0.248060 0.251732 0.156006 0.132516
H32   H     H_    0.818056 0.766875 0.860275 0.144720
H33   H     H_    0.255817 0.749770 0.845605 0.132568
H34   H     H_    0.682323 0.266776 0.140375 0.144266
H35   H     H_    0.777526 0.781525 0.160545 0.136173
H36   H     H_    0.286196 0.261981 0.852663 0.143686
H37   H     H_    0.137262 0.695323 0.834799 0.182184
H38   H     H_    0.766752 0.345847 0.137500 0.146936
H39   H     H_    0.862559 0.706995 0.160358 0.148466
H40   H     H_    0.167692 0.318773 0.843040 0.149927
H41   H     H_    0.636518 0.207503 0.839283 0.146981
H42   H     H_    0.336806 0.817113 0.158614 0.149803
H43   H     H_    0.365947 0.197012 0.167232 0.185226
H44   H     H_    0.733579 0.845868 0.863111 0.146744
H45   H     H_    0.105987 0.411543 0.662335 0.172080
H46   H     H_    0.113414 0.586769 0.507125 0.185499
H47   H     H_    0.099502 0.411006 0.498244 0.193610
H48   H     H_    0.075579 0.586592 0.635742 0.184643
H49   H     H_    0.406010 0.910335 0.506151 0.193982
H50   H     H_    0.404123 0.085705 0.346616 0.183466
H51   H     H_    0.400674 0.910020 0.343175 0.174007
H52   H     H_    0.374939 0.085202 0.483954 0.182310
N1    N     N_R   0.892620 0.603790 0.941800 -0.064077
N2    N     N_R   0.107380 0.396210 0.058200 -0.058998
N3    N     N_R   0.107380 0.603790 0.058200 -0.069250
N4    N     N_R   0.892620 0.396210 0.941800 -0.047611
N5    N     N_R   0.392620 0.103790 0.941800 -0.063573
N6    N     N_R   0.607380 0.896210 0.058200 -0.047192
N7    N     N_R   0.607380 0.103790 0.058200 -0.063786
N8    N     N_R   0.392620 0.896210 0.941800 -0.059751
N9    N     N_R   0.952210 0.397600 0.057910 -0.066221
N10   N     N_R   0.047790 0.602400 0.942090 -0.065928
N11   N     N_R   0.047790 0.397600 0.942090 -0.085342
N12   N     N_R   0.952210 0.602400 0.057910 -0.078373
N13   N     N_R   0.452210 0.897600 0.057910 -0.085079
N14   N     N_R   0.547790 0.102400 0.942090 -0.078090
N15   N     N_R   0.547790 0.897600 0.942090 -0.065943
N16   N     N_R   0.452210 0.102400 0.057910 -0.066886
N17   N     N_R   0.026300 0.529110 0.206760 -0.132637
N18   N     N_R   0.973700 0.470890 0.793240 -0.128189
N19   N     N_R   0.973700 0.529110 0.793240 -0.121374
N20   N     N_R   0.026300 0.470890 0.206760 -0.133048
N21   N     N_R   0.526300 0.029110 0.206760 -0.120976
N22   N     N_R   0.473700 0.970890 0.793240 -0.133033
N23   N     N_R   0.473700 0.029110 0.793240 -0.132655
N24   N     N_R   0.526300 0.970890 0.206760 -0.123939
N25   N     N_R   0.818530 0.472270 0.792960 -0.041094
N26   N     N_R   0.181470 0.527730 0.207040 -0.050110
N27   N     N_R   0.181470 0.472270 0.207040 -0.047240
N28   N     N_R   0.818530 0.527730 0.792960 -0.041150
N29   N     N_R   0.318530 0.972270 0.792960 -0.048217
N30   N     N_R   0.681470 0.027730 0.207040 -0.041448
N31   N     N_R   0.681470 0.972270 0.207040 -0.040826
N32   N     N_R   0.318530 0.027730 0.792960 -0.050280
Ni1   Ni    Ni4+2 0.934150 0.565840 0.869060 0.237579
Ni2   Ni    Ni4+2 0.065850 0.434160 0.130940 0.249663
Ni3   Ni    Ni4+2 0.065850 0.565840 0.130940 0.235626
Ni4   Ni    Ni4+2 0.934150 0.434160 0.869060 0.236520
Ni5   Ni    Ni4+2 0.434150 0.065840 0.869060 0.239450
Ni6   Ni    Ni4+2 0.565850 0.934160 0.130940 0.239332
Ni7   Ni    Ni4+2 0.565850 0.065840 0.130940 0.236598
Ni8   Ni    Ni4+2 0.434150 0.934160 0.869060 0.249449
Br1   Br    Br    0.967910 0.334150 0.232413 -0.563432
Br2   Br    Br    0.947900 0.679515 0.762323 -0.598376
Br3   Br    Br    0.960767 0.309975 0.784193 -0.557340
Br4   Br    Br    0.054397 0.683274 0.229256 -0.577675
Br5   Br    Br    0.542670 0.810480 0.216472 -0.557292
Br6   Br    Br    0.445252 0.183748 0.771603 -0.576991
Br7   Br    Br    0.532130 0.833871 0.767917 -0.565608
Br8   Br    Br    0.552455 0.177432 0.240613 -0.605164
O1    O     O_3   0.002619 0.591947 0.308528 -0.633189
C101  C     C_3   0.917163 0.579852 0.295280 0.193973
H53   H     H_    0.902017 0.614572 0.329820 0.144211
H54   H     H_    0.923283 0.543577 0.343541 0.101601
C102  C     C_3   0.832463 0.572967 0.172269 -0.341036
H55   H     H_    0.821662 0.610778 0.125901 0.206830
H56   H     H_    0.846046 0.539206 0.134344 0.196621
C103  C     C_3   0.741481 0.560525 0.160143 -0.969518
H57   H     H_    0.749310 0.522110 0.203832 0.261558
H58   H     H_    0.681471 0.555994 0.070506 0.274043
H59   H     H_    0.724796 0.594102 0.195444 0.272108
O2    O     O_3   0.981614 0.403535 0.684004 -0.645521
C104  C     C_3   0.906762 0.407762 0.568411 0.250065
H60   H     H_    0.910851 0.371427 0.527498 0.154478
H61   H     H_    0.913247 0.443626 0.528045 0.076824
C105  C     C_3   0.809511 0.408606 0.546234 -0.313951
H62   H     H_    0.805062 0.375290 0.592907 0.252069
H63   H     H_    0.800381 0.447975 0.574766 0.185910
C106  C     C_3   0.729247 0.401941 0.422341 -0.995425
H64   H     H_    0.729747 0.436091 0.374172 0.259790
H65   H     H_    0.660024 0.401597 0.409364 0.273423
H66   H     H_    0.736866 0.363008 0.390973 0.284203
O3    O     O_3   0.091098 0.587518 0.805586 -0.671667
C107  C     C_3   0.189706 0.573452 0.872335 0.146285
H67   H     H_    0.230986 0.611799 0.899974 0.125247
H68   H     H_    0.210093 0.552906 0.823940 0.132358
C108  C     C_3   0.224570 0.540414 0.977951 -0.327017
H69   H     H_    0.235794 0.568219 0.042863 0.210598
H70   H     H_    0.172517 0.508859 0.961553 0.197043
C109  C     C_3   0.319012 0.512512 0.023758 -0.972546
H71   H     H_    0.310568 0.483708 0.961267 0.267096
H72   H     H_    0.343285 0.489294 0.100034 0.271937
H73   H     H_    0.374008 0.543120 0.045050 0.267252
O4    O     O_3   0.123659 0.409624 0.356598 -0.603903
C110  C     C_3   0.221460 0.422478 0.434008 0.244051
H74   H     H_    0.239764 0.433677 0.516438 0.093488
H75   H     H_    0.242332 0.457216 0.405860 0.044899
C111  C     C_3   0.281337 0.373194 0.449947 -0.341414
H76   H     H_    0.259375 0.358471 0.367580 0.203780
H77   H     H_    0.357308 0.385335 0.499619 0.150962
C112  C     C_3   0.270777 0.327040 0.510029 -0.728081
H78   H     H_    0.293980 0.340512 0.593717 0.231045
H79   H     H_    0.315695 0.292244 0.520616 0.248004
H80   H     H_    0.195712 0.313288 0.460843 0.295120
O5    O     O_3   0.399331 0.081752 0.184286 -0.670045
C113  C     C_3   0.312283 0.056581 0.097401 0.149907
H81   H     H_    0.289894 0.025178 0.130747 0.121132
H82   H     H_    0.319545 0.036928 0.035720 0.104819
C114  C     C_3   0.232177 0.098319 0.036963 -0.268293
H83   H     H_    0.228299 0.120846 0.098522 0.211447
H84   H     H_    0.246124 0.127362 0.992027 0.208277
C115  C     C_3   0.136495 0.071313 0.951699 -0.994505
H85   H     H_    0.138845 0.048642 0.889200 0.264765
H86   H     H_    0.080328 0.102814 0.907669 0.280536
H87   H     H_    0.117943 0.042952 0.993763 0.269175
O6    O     O_3   0.376682 0.909215 0.644136 -0.603684
C116  C     C_3   0.278808 0.921691 0.566171 0.247181
H88   H     H_    0.260776 0.932350 0.483609 0.095708
H89   H     H_    0.257453 0.956570 0.593470 0.043994
C117  C     C_3   0.219255 0.872382 0.551127 -0.342876
H90   H     H_    0.240931 0.858212 0.633706 0.203181
H91   H     H_    0.143150 0.884295 0.500722 0.151181
C118  C     C_3   0.230635 0.825800 0.492621 -0.726526
H92   H     H_    0.207723 0.838729 0.408744 0.231789
H93   H     H_    0.185900 0.791006 0.482631 0.247299
H94   H     H_    0.305836 0.812265 0.542581 0.295286
O7    O     O_3   0.490849 0.092954 0.686413 -0.629929
C119  C     C_3   0.574997 0.083477 0.695182 0.198946
H95   H     H_    0.587566 0.119927 0.661883 0.145377
H96   H     H_    0.568186 0.048815 0.643236 0.101191
C120  C     C_3   0.662236 0.075081 0.816438 -0.349783
H97   H     H_    0.672955 0.111205 0.866824 0.207526
H98   H     H_    0.651721 0.039134 0.852764 0.195638
C121  C     C_3   0.751778 0.066258 0.823474 -0.962897
H99   H     H_    0.744035 0.029565 0.775527 0.260578
H100  H     H_    0.813619 0.060445 0.911874 0.273929
H101  H     H_    0.765513 0.102077 0.789848 0.272566
O8    O     O_3   0.521988 0.903331 0.318435 -0.646003
C122  C     C_3   0.595596 0.906897 0.434528 0.246245
H102  H     H_    0.590470 0.870219 0.473897 0.153317
H103  H     H_    0.588513 0.942429 0.475098 0.078707
C123  C     C_3   0.693639 0.907856 0.458781 -0.310383
H104  H     H_    0.699010 0.874500 0.412942 0.251397
H105  H     H_    0.703296 0.947196 0.430556 0.185139
C124  C     C_3   0.772678 0.901300 0.583118 -0.996238
H106  H     H_    0.771307 0.935514 0.630488 0.259750
H107  H     H_    0.842536 0.900931 0.597668 0.273200
H108  H     H_    0.764389 0.862414 0.614095 0.284098

loop_
_geom_bond_atom_site_label_1
_geom_bond_atom_site_label_2
_ccdc_geom_bond_type
C16   C28   A    
C120  C121  S    
C44   C48   A    
C107  C108  S    
C10   C85   S    
C103  H58   S    
C118  H94   S    
C121  H101  S    
C110  H75   S    
O1    C101  S    
C19   C23   A    
O3    C107  S    
C52   Br4   S    
C59   C82   A    
C55   N15   A    
N12   Ni3   S    
C70   C88   A    
C107  H67   S    
C9    C91   S    
C109  H72   S    
C110  C111  S    
N26   N27   A    
C118  H92   S    
C12   C96   S    
N27   Ni2   S    
C5    H5    S    
C104  H60   S    
C70   H14   S    
C16   C31   A    
C40   C46   A    
N15   Ni8   S    
C66   N26   A    
C111  C112  S    
C69   H13   S    
C114  H83   S    
C44   H52   S    
N25   Ni4   S    
C101  H54   S    
C23   H39   S    
C95   C100  S    
C58   N18   A    
C105  H63   S    
C116  H88   S    
C124  H108  S    
C19   C36   A    
N6    Ni6   S    
C32   C74   S    
N29   Ni8   S    
C98   H18   S    
N29   N32   A    
C15   H31   S    
C7    N7    A    
N18   N19   A    
C2    H2    S    
C19   H35   S    
C120  H97   S    
C62   N22   A    
C96   C99   S    
C31   C73   S    
C124  H107  S    
O2    C104  S    
C96   H28   S    
C109  H73   S    
C11   C99   S    
C112  H78   S    
C68   H12   S    
C122  C123  S    
C10   C98   S    
N22   N23   A    
C38   H46   S    
C38   C45   A    
C21   H37   S    
C121  H100  S    
C34   C80   S    
C46   C82   S    
C20   C35   A    
C15   C27   A    
C26   C34   A    
C55   Br7   S    
C20   C24   A    
C10   C89   S    
N20   Ni2   S    
C103  H57   S    
C67   C86   A    
C101  C102  S    
C92   C97   S    
C60   O4    S    
C27   H43   S    
C110  H74   S    
C105  C106  S    
C51   N11   A    
C100  H20   S    
C47   C83   S    
C64   N24   A    
N5    Ni5   S    
C3    C75   A    
C64   O8    S    
C93   C99   S    
C49   N9    A    
C69   C87   A    
C39   C45   A    
N4    Ni4   S    
C10   C92   S    
C2    N2    A    
C91   H23   S    
O5    C113  S    
C68   C85   A    
C90   H22   S    
C13   C25   A    
C113  C114  S    
C68   N28   A    
C42   C44   A    
C54   N14   A    
C117  C118  S    
C59   N19   A    
C8    H8    S    
N5    N16   A    
C69   N29   A    
C6    N6    A    
C70   N30   A    
N6    N15   A    
C62   O6    S    
C57   N17   A    
C94   H26   S    
N3    N10   A    
C6    H6    S    
C113  H82   S    
C114  H84   S    
C4    C76   A    
C101  H53   S    
C40   H48   S    
N1    N12   A    
C60   N20   A    
C39   H47   S    
N7    Ni7   S    
N2    N11   A    
C15   C32   A    
C53   C80   A    
C61   N21   A    
C105  H62   S    
C72   N32   A    
C58   C82   A    
C117  H91   S    
C52   C73   A    
C61   C83   A    
C111  H77   S    
C106  H64   S    
C55   C78   A    
N19   Ni1   S    
C113  H81   S    
C33   C79   S    
C37   H45   S    
C27   C35   A    
C102  H55   S    
C21   C29   A    
C35   C77   S    
C14   C26   A    
C56   C77   A    
C48   C84   S    
C51   C74   A    
C89   C97   S    
N11   Ni4   S    
C116  H89   S    
C23   C31   A    
C94   C96   S    
C17   C21   A    
C24   C32   A    
C64   C83   A    
N23   Ni5   S    
C124  H106  S    
C22   C30   A    
C71   N31   A    
C9    C86   S    
C106  H65   S    
C30   C76   S    
C60   C81   A    
C13   C30   A    
C115  H86   S    
C90   C92   S    
C108  H69   S    
C119  C120  S    
C94   C100  S    
C11   C88   S    
C122  H102  S    
N25   N28   A    
C63   O7    S    
O6    C116  S    
C56   N16   A    
C25   C33   A    
C3    N3    A    
N13   Ni6   S    
C123  H104  S    
C49   C76   A    
C71   H15   S    
O8    C122  S    
C51   Br3   S    
N8    N13   A    
C20   H36   S    
C1    N1    A    
N16   Ni7   S    
N17   Ni3   S    
C2    C74   A    
C49   Br1   S    
C59   O3    S    
C52   N12   A    
C115  H87   S    
C28   H44   S    
N26   Ni3   S    
C11   C95   S    
C11   C94   S    
C53   N13   A    
C4    N4    A    
C92   H24   S    
N18   Ni4   S    
N4    N9    A    
C43   C47   A    
C5    N5    A    
C42   H50   S    
C17   H33   S    
N17   N20   A    
C7    H7    S    
C12   C93   S    
C89   C91   S    
O4    C110  S    
C14   C29   A    
C5    C77   A    
C24   H40   S    
N31   Ni6   S    
C1    H1    S    
C72   C87   A    
C43   H51   S    
C7    C79   A    
C54   C79   A    
C14   H30   S    
C102  C103  S    
C3    H3    S    
N24   Ni6   S    
C118  H93   S    
N30   Ni7   S    
C62   C84   A    
C121  H99   S    
C114  C115  S    
C9    C97   S    
C89   H21   S    
C12   C87   S    
C108  H70   S    
C36   C78   S    
C18   C22   A    
C25   H41   S    
C41   C43   A    
C119  H96   S    
C117  H90   S    
C107  H68   S    
C9    C90   S    
C66   C86   A    
N10   Ni1   S    
O7    C119  S    
C45   C81   S    
C104  C105  S    
C29   C75   S    
C58   O2    S    
C65   N25   A    
C72   H16   S    
C123  H105  S    
C54   Br6   S    
N7    N14   A    
C63   C84   A    
C116  C117  S    
C1    C73   A    
C50   N10   A    
N14   Ni5   S    
C120  H98   S    
C104  H61   S    
C53   Br5   S    
C37   C39   A    
C65   C85   A    
N3    Ni3   S    
C50   C75   A    
C106  H66   S    
C38   C40   A    
C50   Br2   S    
C22   H38   S    
C65   H9    S    
N1    Ni1   S    
C103  H59   S    
C63   N23   A    
C4    H4    S    
N2    Ni2   S    
C111  H76   S    
N21   N24   A    
C41   C48   A    
N21   Ni7   S    
C18   H34   S    
C57   C81   A    
C42   C47   A    
C122  H103  S    
C91   C98   S    
C97   H17   S    
C109  H71   S    
C16   H32   S    
C18   C33   A    
C93   H25   S    
C12   C100  S    
C6    C78   A    
N28   Ni1   S    
N8    Ni8   S    
C99   H19   S    
C71   C88   A    
C67   H11   S    
C95   H27   S    
C108  C109  S    
C41   H49   S    
C119  H95   S    
C28   C36   A    
C123  C124  S    
C93   C95   S    
C17   C34   A    
C57   O1    S    
C8    C80   A    
C13   H29   S    
N32   Ni5   S    
C66   H10   S    
C112  H80   S    
C67   N27   A    
C112  H79   S    
C37   C46   A    
C26   H42   S    
C102  H56   S    
C61   O5    S    
C90   C98   S    
N30   N31   A    
N22   Ni8   S    
C115  H85   S    
C56   Br8   S    
N9    Ni2   S    
C8    N8    A    
