data_mof_unit_2461.cif
_audit_creation_date              2012-12-11T15:53:45-0500
_audit_creation_method            fapswitch 2.2
_symmetry_space_group_name_H-M    P1
_symmetry_Int_Tables_number       1
_space_group_crystal_system       triclinic
_cell_length_a                    6.932242
_cell_length_b                    14.537552
_cell_length_c                    15.963178
_cell_angle_alpha                 90.51099
_cell_angle_beta                  89.924202
_cell_angle_gamma                 90.075509
_cell_volume                      1608.66765769

loop_
_atom_site_label
_atom_site_type_symbol
_atom_type_description
_atom_site_fract_x
_atom_site_fract_y
_atom_site_fract_z
_atom_type_partial_charge
O1    O     O_R   0.361600 0.167310 0.164620 -0.544271
O2    O     O_R   0.638400 0.832690 0.835380 -0.529291
O3    O     O_R   0.691080 0.157570 0.338750 -0.539972
O4    O     O_R   0.308920 0.842430 0.661250 -0.545461
O5    O     O_R   0.861410 0.336420 0.339360 -0.536110
O6    O     O_R   0.138590 0.663580 0.660640 -0.534016
C1    C     C_R   0.521928 0.135219 0.367478 0.709169
C2    C     C_R   0.478077 0.864822 0.632558 0.687638
O7    O     O_R   0.691320 0.156280 0.165240 -0.515769
O8    O     O_R   0.308680 0.843720 0.834760 -0.536157
O9    O     O_R   0.861640 0.335130 0.164600 -0.549634
O10   O     O_R   0.138360 0.664870 0.835400 -0.546177
C3    C     C_R   0.522663 0.134870 0.135509 0.776712
C4    C     C_R   0.477538 0.865981 0.863801 0.706596
O11   O     O_R   0.361370 0.168600 0.339370 -0.548715
O12   O     O_R   0.638630 0.831400 0.660630 -0.546584
O13   O     O_3   0.527990 0.310540 0.251980 -0.371864
O14   O     O_3   0.472010 0.689460 0.748020 -0.365577
V1    V     V_3+5 0.802830 0.240980 0.251990 1.509098
V2    V     V_3+5 0.197170 0.759020 0.748010 1.483385
O15   O     O_R   0.191360 0.346160 0.165220 -0.531513
O16   O     O_R   0.808640 0.653840 0.834780 -0.529453
C5    C     C_R   0.022450 0.370260 0.137844 0.732757
C6    C     C_R   0.977551 0.629737 0.862154 0.737613
O17   O     O_R   0.191130 0.347440 0.338740 -0.539283
O18   O     O_R   0.808870 0.652560 0.661260 -0.538474
C7    C     C_R   0.022364 0.369616 0.367450 0.752439
C8    C     C_R   0.977636 0.630384 0.632550 0.756305
V3    V     V_3+5 0.302840 0.262750 0.251990 1.498279
V4    V     V_3+5 0.697160 0.737250 0.748010 1.501817
O19   O     O_3   0.027820 0.193180 0.251990 -0.369974
O20   O     O_3   0.972180 0.806820 0.748010 -0.372236
C9    C     C_3   0.922546 0.421986 0.523125 0.399942
C10   C     C_3   0.077453 0.578013 0.476876 0.400134
C11   C     C_3   0.095901 0.467526 0.567466 -0.233857
C12   C     C_3   0.904099 0.532473 0.432534 -0.235505
H1    H     H_    0.171053 0.439983 0.623231 0.144784
H2    H     H_    0.828947 0.560016 0.376770 0.142320
C13   C     C_3   0.987615 0.560484 0.562923 -0.081390
C14   C     C_3   0.012385 0.439515 0.437077 -0.080228
C15   C     C_3   0.812115 0.513778 0.519939 -0.214011
C16   C     C_3   0.187885 0.486221 0.480061 -0.214109
H3    H     H_    0.658371 0.523408 0.537403 0.141912
H4    H     H_    0.341629 0.476591 0.462598 0.141613
C17   C     C_R   0.848612 0.489984 0.941232 0.012699
C18   C     C_R   0.151392 0.510008 0.058762 0.013491
C19   C     C_R   0.861121 0.431809 0.010902 -0.150786
C20   C     C_R   0.138887 0.568182 0.989092 -0.156297
H5    H     H_    0.755919 0.377088 0.017644 0.148633
H6    H     H_    0.244091 0.622902 0.982349 0.148770
C21   C     C_R   0.011809 0.439477 0.069471 -0.140489
C22   C     C_R   0.988195 0.560516 0.930524 -0.142187
C23   C     C_R   0.679369 0.026186 0.467876 -0.122185
C24   C     C_R   0.320645 0.973935 0.532235 -0.126684
H7    H     H_    0.820047 0.045201 0.444047 0.121787
H8    H     H_    0.179969 0.954924 0.556070 0.121754
C25   C     C_R   0.668595 0.961025 0.531678 -0.138697
C26   C     C_R   0.331417 0.039093 0.468431 -0.138464
H9    H     H_    0.801429 0.931792 0.555043 0.123205
H10   H     H_    0.198583 0.068327 0.445066 0.123054
C27   C     C_R   0.489091 0.934039 0.564725 -0.043489
C28   C     C_R   0.510919 0.066057 0.435363 -0.042535
C29   C     C_R   0.614437 0.983855 0.070638 0.335629
C30   C     C_R   0.390995 0.020672 0.926864 0.356766
C31   C     C_R   0.598273 0.916386 0.006264 0.249712
C32   C     C_R   0.401811 0.085771 0.992224 0.314399
C33   C     C_R   0.488116 0.935000 0.933190 -0.334473
C34   C     C_R   0.513165 0.067559 0.064777 -0.312875
O21   O     O_3   0.840660 0.338053 0.546323 -0.645168
H11   H     H_    0.793179 0.347688 0.604334 0.303008
O22   O     O_3   0.159340 0.661946 0.453678 -0.645422
H12   H     H_    0.206808 0.652313 0.395664 0.300673
C35   C     C_2   0.693544 0.470823 0.879435 0.764305
O23   O     O_2   0.725588 0.476770 0.804313 -0.571347
O24   O     O_R   0.512154 0.441950 0.907363 -0.655919
H13   H     H_    0.418402 0.430535 0.859683 0.301790
C36   C     C_2   0.306455 0.529173 0.120561 0.757562
O25   O     O_2   0.274399 0.523242 0.195683 -0.573148
O26   O     O_R   0.487856 0.558021 0.092635 -0.657798
H14   H     H_    0.581604 0.569444 0.140315 0.297643
O27   O     O_3   0.721030 0.968367 0.142450 -0.632086
H15   H     H_    0.791305 0.909368 0.137699 0.338314
O28   O     O_3   0.288304 0.045664 0.856415 -0.597035
H16   H     H_    0.334409 0.010077 0.807273 0.282636
O29   O     O_3   0.688468 0.832604 0.017949 -0.641883
H17   H     H_    0.621977 0.784252 0.984873 0.295868
O30   O     O_3   0.307127 0.168356 0.980404 -0.599253
H18   H     H_    0.364729 0.216588 0.016612 0.283640

loop_
_geom_bond_atom_site_label_1
_geom_bond_atom_site_label_2
_ccdc_geom_bond_type
C6    C22   S    
C32   C34   A    
O30   H18   S    
C29   C31   A    
C26   C28   A    
O13   V3    S    
C35   O23   D    
C10   C16   S    
O4    C2    A    
V1    O19   S    
O27   H15   S    
C30   O28   S    
C36   O25   D    
O9    V1    S    
C29   O27   S    
C11   H1    S    
O3    C1    A    
C24   C26   A    
C25   H9    S    
C26   H10   S    
C17   C35   S    
C17   C19   A    
C11   C16   S    
O7    C3    A    
C9    C11   S    
O5    C7    A    
O7    V1    S    
O6    C8    A    
O8    V2    S    
C31   C33   A    
C4    C33   S    
O3    V1    S    
O14   V4    S    
C10   C12   S    
C9    O21   S    
C2    C27   S    
C14   C16   S    
C2    O12   A    
C15   H3    S    
C12   C15   S    
C16   H4    S    
O11   V3    S    
C24   H8    S    
C23   H7    S    
O17   V3    S    
C18   C20   A    
C9    C14   S    
C10   C13   S    
C30   C33   A    
C12   C14   S    
C19   H5    S    
O8    C4    A    
C32   O30   S    
C23   C25   A    
C19   C21   A    
C1    O11   A    
C8    C13   S    
O29   H17   S    
O15   V3    S    
C18   C21   A    
C30   C32   A    
C11   C13   S    
O24   H13   S    
C1    C28   S    
C23   C28   A    
C5    C21   S    
O28   H16   S    
C7    C14   S    
O10   V2    S    
O1    V3    S    
C36   O26   S    
C25   C27   A    
C20   H6    S    
O18   V4    S    
O15   C5    A    
O16   C6    A    
O1    C3    A    
C35   O24   S    
V2    O20   S    
C29   C34   A    
O16   V4    S    
C18   C36   S    
C31   O29   S    
O5    V1    S    
C24   C27   A    
O17   C7    A    
O6    V2    S    
O10   C6    A    
O18   C8    A    
C17   C22   A    
O2    V4    S    
C9    C15   S    
C12   H2    S    
O22   H12   S    
V3    O19   S    
V4    O20   S    
O9    C5    A    
O13   V1    S    
O14   V2    S    
O21   H11   S    
O2    C4    A    
O26   H14   S    
O4    V2    S    
C20   C22   A    
C13   C15   S    
O12   V4    S    
C10   O22   S    
C3    C34   S    
