data_mof_unit_4782.cif
_audit_creation_date              2012-12-10T16:58:30-0500
_audit_creation_method            fapswitch 2.2
_symmetry_space_group_name_H-M    P1
_symmetry_Int_Tables_number       1
_space_group_crystal_system       triclinic
_cell_length_a                    7.825814
_cell_length_b                    8.554607
_cell_length_c                    23.08045
_cell_angle_alpha                 91.851663
_cell_angle_beta                  85.410683
_cell_angle_gamma                 93.691201
_cell_volume                      1536.43914344

loop_
_atom_site_label
_atom_site_type_symbol
_atom_type_description
_atom_site_fract_x
_atom_site_fract_y
_atom_site_fract_z
_atom_type_partial_charge
C1    C     C_R   0.545495 0.794397 0.497772 0.969118
C2    C     C_R   0.569427 0.433668 0.284934 0.331759
C3    C     C_R   0.550387 0.719632 0.751979 0.422411
C4    C     C_R   0.568949 0.473361 0.226677 0.391745
C5    C     C_R   0.518628 0.596669 0.791198 0.046695
C6    C     C_R   0.503161 0.615495 0.212189 0.063179
C7    C     C_2   0.569326 0.957989 0.496214 -0.271479
C8    C     C_2   0.430491 0.041784 0.501345 -0.301660
C9    C     C_R   0.501678 0.501855 0.610563 0.943841
C10   C     C_R   0.498824 0.501846 0.389385 0.940573
C11   C     C_R   0.345244 0.599754 0.127020 0.630169
C12   C     C_R   0.454424 0.205491 0.501148 0.955417
C13   C     C_R   0.653946 0.682274 0.878466 0.679631
C14   C     C_R   0.634171 0.711138 0.121311 0.716489
C15   C     C_R   0.353984 0.606703 0.883791 0.609462
C16   C     C_R   0.634851 0.722436 0.061137 -0.058768
C17   C     C_R   0.345528 0.614000 0.944354 -0.038456
C18   C     C_R   0.487763 0.667491 0.033388 -0.054218
C19   C     C_R   0.493052 0.665824 0.972224 -0.050402
C20   C     C_R   0.337960 0.609060 0.066484 -0.105797
C21   C     C_R   0.647135 0.711417 0.938960 -0.117932
C22   C     C_R   0.780862 0.783261 0.028242 -0.137397
C23   C     C_R   0.484888 0.440897 0.770406 -0.041268
C24   C     C_R   0.195125 0.563770 0.977150 -0.146560
C25   C     C_R   0.788601 0.778390 0.967733 0.409982
C26   C     C_R   0.190582 0.557623 0.037401 0.405771
C27   C     C_2   0.449973 0.307862 0.810123 1.050706
C28   C     C_2   0.366933 0.871327 0.242541 1.056968
C29   C     C_R   0.435757 0.718820 0.255875 -0.048492
C30   C     C_R   0.479367 0.411652 0.710752 -0.257711
C31   C     C_R   0.433345 0.675190 0.313699 -0.270947
C32   C     C_R   0.510552 0.533960 0.672162 -0.177350
C33   C     C_R   0.499654 0.534787 0.328168 -0.180700
C34   C     C_R   0.546884 0.688177 0.692358 0.336760
Cl1   Cl    Cl    0.975615 0.866411 0.931335 -0.472865
Cl2   Cl    Cl    0.997756 0.476661 0.072270 -0.444399
Cl3   Cl    Cl    0.582787 0.843394 0.643265 -0.498647
Cl4   Cl    Cl    0.649051 0.254541 0.303410 -0.442711
Cl5   Cl    Cl    0.588062 0.914387 0.777732 -0.448666
Cl6   Cl    Cl    0.644579 0.342445 0.171140 -0.411363
Cl7   Cl    Cl    0.038360 0.322168 0.436072 -0.406822
Cl8   Cl    Cl    0.961861 0.678171 0.563791 -0.399350
H1    H     H_    0.891896 0.831666 0.049445 0.223761
H2    H     H_    0.081630 0.522373 0.955814 0.227235
H3    H     H_    0.451878 0.293397 0.694141 0.218792
H4    H     H_    0.382961 0.752591 0.348191 0.205796
H5    H     H_    0.700518 0.008926 0.491432 0.214016
H6    H     H_    0.299300 0.990823 0.506075 0.212001
H7    H     H_    0.309942 0.106746 0.828495 0.395459
H8    H     H_    0.346475 0.039419 0.184457 0.390119
N1    N     N_R   0.492840 0.646585 0.152250 -0.338024
N2    N     N_R   0.508409 0.631748 0.852475 -0.344329
N3    N     N_2   0.950330 0.457950 0.484560 0.128490
N4    N     N_2   0.049670 0.542050 0.515440 0.125818
O1    O     O_R   0.389250 0.738570 0.503790 -0.609490
O2    O     O_2   0.804472 0.698328 0.845843 -0.405904
O3    O     O_2   0.774404 0.760875 0.148826 -0.464075
O4    O     O_2   0.210550 0.569160 0.856187 -0.474857
O5    O     O_2   0.526322 0.303136 0.854184 -0.587960
O6    O     O_R   0.328007 0.187817 0.797141 -0.709006
O7    O     O_2   0.282669 0.943016 0.280338 -0.558426
O8    O     O_R   0.399601 0.935249 0.187469 -0.768886
O9    O     O_R   0.610750 0.261430 0.496210 -0.601997
O10   O     O_R   0.678390 0.711620 0.493890 -0.581874
O11   O     O_R   0.321610 0.288380 0.506110 -0.587563
O12   O     O_R   0.355400 0.513520 0.588790 -0.580196
O13   O     O_R   0.644600 0.486480 0.411210 -0.573560
O14   O     O_R   0.644550 0.486570 0.578900 -0.569989
O15   O     O_R   0.355450 0.513430 0.421100 -0.590933
O16   O     O_2   0.208734 0.542233 0.160851 -0.434538
Zn1   Zn    Zn3+2 0.306930 0.518000 0.506610 1.124212
Zn2   Zn    Zn3+2 0.693070 0.482000 0.493390 1.139191

loop_
_geom_bond_atom_site_label_1
_geom_bond_atom_site_label_2
_ccdc_geom_bond_type
C2    C4    A    
C8    H6    S    
C5    N2    S    
C23   C27   S    
C6    N1    S    
C34   Cl3   S    
C7    H5    S    
C12   O11   A    
C2    Cl4   S    
C30   H3    S    
O12   Zn1   S    
C5    C23   A    
O14   Zn2   S    
C8    C12   S    
C13   O2    S    
C28   O7    D    
C31   C33   A    
C1    O1    A    
C11   O16   S    
C13   C21   A    
C7    C8    D    
C29   C31   A    
C27   O5    D    
N3    N4    D    
Cl8   N4    S    
C30   C32   A    
Cl7   N3    S    
H7    O6    S    
C20   C26   A    
C25   Cl1   S    
C24   H2    S    
C2    C33   A    
C26   Cl2   S    
C28   C29   S    
C19   C21   A    
C24   C26   A    
C18   C19   A    
C10   C33   S    
C18   C20   A    
C27   O6    S    
O10   Zn2   S    
C14   N1    A    
C28   O8    S    
H8    O8    S    
C15   O4    S    
C14   C16   A    
C11   C20   A    
C9    O14   A    
C17   C24   A    
C11   N1    A    
N4    Zn1   S    
C14   O3    S    
C3    Cl5   S    
C13   N2    A    
C10   O15   A    
C4    Cl6   S    
O15   Zn1   S    
C6    C29   A    
C23   C30   A    
C16   C18   A    
O13   Zn2   S    
C15   C17   A    
C12   O9    A    
C21   C25   A    
C9    O12   A    
C1    C7    S    
C16   C22   A    
C10   O13   A    
C3    C34   A    
C17   C19   A    
C9    C32   S    
C15   N2    A    
N3    Zn2   S    
C4    C6    A    
C1    O10   A    
C22   C25   A    
O1    Zn1   S    
O9    Zn2   S    
C22   H1    S    
O11   Zn1   S    
C3    C5    A    
C31   H4    S    
C32   C34   A    
