data_mof_unit_4121.cif
_audit_creation_date              2012-12-10T17:37:19-0500
_audit_creation_method            fapswitch 2.2
_symmetry_space_group_name_H-M    P1
_symmetry_Int_Tables_number       1
_space_group_crystal_system       triclinic
_cell_length_a                    12.298798
_cell_length_b                    13.231854
_cell_length_c                    15.844285
_cell_angle_alpha                 77.546109
_cell_angle_beta                  101.054343
_cell_angle_gamma                 116.247997
_cell_volume                      2244.44028872

loop_
_atom_site_label
_atom_site_type_symbol
_atom_type_description
_atom_site_fract_x
_atom_site_fract_y
_atom_site_fract_z
_atom_type_partial_charge
C1    C     C_R   0.855486 0.286979 0.503757 0.817346
C2    C     C_3   0.000227 0.499877 0.917297 0.079119
C3    C     C_3   0.116531 0.554903 0.035684 -0.217335
C4    C     C_3   0.001491 0.499580 0.083332 0.102879
C5    C     C_3   0.048178 0.607904 0.959947 -0.192834
C6    C     C_3   0.933347 0.552802 0.009314 -0.116161
C7    C     C_1   0.999349 0.499942 0.825378 0.027012
C8    C     C_1   0.001595 0.499750 0.174975 -0.009085
C9    C     C_R   0.264219 0.034472 0.435976 -0.123461
C10   C     C_R   0.230388 0.835747 0.475249 -0.101205
C11   C     C_R   0.814668 0.078319 0.539929 0.455424
C12   C     C_R   0.999492 0.499763 0.660021 0.813588
C13   C     C_R   0.731421 0.973415 0.576115 -0.181625
C14   C     C_R   0.608618 0.948379 0.564387 -0.208496
C15   C     C_R   0.563653 0.020833 0.505452 0.074860
C16   C     C_R   0.646081 0.131244 0.473060 -0.046837
C17   C     C_R   0.437418 0.985838 0.480308 0.058294
C18   C     C_R   0.391246 0.068279 0.445279 0.037385
C19   C     C_R   0.472275 0.179165 0.412847 0.090492
C20   C     C_R   0.596985 0.203202 0.414573 0.163574
C21   C     C_R   0.358027 0.870065 0.481895 0.113733
C22   C     C_R   0.185133 0.919649 0.454620 -0.229069
C23   C     C_R   0.145841 0.713674 0.486590 0.804124
C24   C     C_R   0.773587 0.164698 0.500517 -0.239664
C25   C     C_R   0.346383 0.329715 0.639980 -0.267612
C26   C     C_R   0.755409 0.641323 0.380341 0.326344
C27   C     C_R   0.647524 0.650791 0.342315 -0.321931
C28   C     C_R   0.537497 0.580848 0.377001 0.404826
C29   C     C_R   0.540048 0.515120 0.460794 -0.162984
C30   C     C_R   0.649689 0.499575 0.492808 0.141688
C31   C     C_R   0.439935 0.462123 0.513390 -0.023773
C32   C     C_R   0.443450 0.381190 0.588062 0.075263
C33   C     C_R   0.545827 0.356135 0.611301 0.074006
C34   C     C_R   0.000590 0.500273 0.340018 0.824781
C35   C     C_R   0.646961 0.417036 0.565877 -0.106918
C36   C     C_R   0.339673 0.491717 0.498703 0.119446
C37   C     C_R   0.249339 0.360488 0.619858 0.189886
C38   C     C_3   0.953464 0.391256 0.041134 -0.206448
C39   C     C_3   0.885531 0.444684 0.965406 -0.199762
C40   C     C_1   0.999021 0.499897 0.749710 -0.124030
C41   C     C_1   0.001290 0.499976 0.250475 -0.139020
C42   C     C_3   0.067228 0.447569 0.991839 0.410992
Cu1   Cu    Cu3+1 0.098270 0.475420 0.519690 1.019379
Cu2   Cu    Cu3+1 0.901730 0.524580 0.480310 0.978356
H1    H     H_    0.790861 0.399836 0.935374 0.166861
H2    H     H_    0.548947 0.870115 0.600169 0.167901
H3    H     H_    0.761744 0.910390 0.614458 0.193934
H4    H     H_    0.176828 0.323829 0.661285 0.179033
H5    H     H_    0.345479 0.267693 0.697160 0.161279
H6    H     H_    0.335984 0.559487 0.448832 0.178223
H7    H     H_    0.915794 0.302420 0.075549 0.174292
H8    H     H_    0.648135 0.706186 0.280901 0.196895
H9    H     H_    0.722097 0.395936 0.590678 0.215746
H10   H     H_    0.877953 0.596338 0.018011 0.158314
H11   H     H_    0.086635 0.696653 0.925470 0.168909
H12   H     H_    0.211372 0.598997 0.065761 0.195322
H13   H     H_    0.087959 0.896085 0.447272 0.198417
H14   H     H_    0.224991 0.095578 0.412467 0.204659
N1    N     N_R   0.246280 0.438200 0.549540 -0.211843
N2    N     N_R   0.754330 0.561180 0.450980 -0.181313
O1    O     O_R   0.972510 0.318130 0.524770 -0.508732
O2    O     O_R   0.806530 0.359650 0.491510 -0.586750
O3    O     O_R   0.082970 0.479240 0.637550 -0.574242
O4    O     O_R   0.916990 0.520750 0.604290 -0.603244
O5    O     O_R   0.193470 0.640350 0.508490 -0.612126
O6    O     O_R   0.027490 0.681870 0.475230 -0.548272
O7    O     O_R   0.083010 0.479250 0.395710 -0.545657
O8    O     O_R   0.917030 0.520760 0.362450 -0.557464
N3    N     N_3   0.408440 0.793997 0.472444 -0.581187
H15   H     H_    0.402297 0.733689 0.528171 0.228501
H16   H     H_    0.363815 0.755170 0.417245 0.269843
S1    S     S_3+6 0.965772 0.092142 0.545990 -0.008471
O9    O     O_2   0.030691 0.175564 0.471737 -0.269590
O10   O     O_2   0.032834 0.130045 0.631158 -0.330099
O11   O     O_3   0.961921 0.964326 0.542775 -0.557934
H17   H     H_    0.044384 0.970072 0.567646 0.368134
N4    N     N_3   0.667229 0.291418 0.350144 -0.536541
H18   H     H_    0.615136 0.279967 0.289632 0.229426
H19   H     H_    0.742712 0.278508 0.343077 0.206225
N5    N     N_3   0.552459 0.271704 0.683579 -0.596391
H20   H     H_    0.545396 0.295287 0.740470 0.232983
H21   H     H_    0.479777 0.193440 0.673708 0.234486
N6    N     N_3   0.864939 0.709463 0.340041 -0.510166
H22   H     H_    0.848803 0.694464 0.275671 0.213200
H23   H     H_    0.884476 0.795093 0.338787 0.209404
S2    S     S_3+6 0.404280 0.556410 0.301277 -0.041441
O12   O     O_2   0.363158 0.649266 0.295536 -0.332434
O13   O     O_2   0.434757 0.559200 0.213076 -0.289863
O14   O     O_3   0.290575 0.428722 0.329128 -0.535633
H24   H     H_    0.222523 0.423316 0.282656 0.380040
S3    S     S_3+6 0.156828 0.377249 0.980230 0.035676
O15   O     O_2   0.079782 0.279923 0.930224 -0.243584
O16   O     O_2   0.263570 0.459500 0.931854 -0.273324
O17   O     O_3   0.207283 0.326548 0.078975 -0.474869
H25   H     H_    0.248193 0.392982 0.110706 0.364963
N7    N     N_3   0.425405 0.261831 0.370227 -0.520927
H26   H     H_    0.495687 0.339971 0.350218 0.264652
H27   H     H_    0.388047 0.277981 0.416997 0.250237

loop_
_geom_bond_atom_site_label_1
_geom_bond_atom_site_label_2
_ccdc_geom_bond_type
C3    C42   S    
C26   N6    S    
C35   H9    S    
Cu2   O6    S    
C19   C20   A    
C4    C8    S    
C36   N1    A    
C1    O2    A    
C22   H13   S    
Cu1   O3    S    
C14   H2    S    
N4    H18   S    
C10   C22   A    
C26   C27   A    
C20   N4    S    
C23   O6    A    
C28   C29   A    
Cu2   N2    S    
C38   C42   S    
C38   C39   S    
C12   O4    A    
S2    O13   D    
C9    C22   A    
C15   C16   A    
C11   C24   A    
C18   C19   A    
N3    H16   S    
C2    C7    S    
C25   C37   A    
C2    C39   S    
C31   C32   A    
N7    H27   S    
C30   N2    A    
C7    C40   T    
C16   C20   A    
C39   H1    S    
C25   C32   A    
C16   C24   A    
C13   C14   A    
O17   H25   S    
C34   C41   S    
C6    H10   S    
S1    O11   S    
C11   S1    S    
C25   H5    S    
N4    H19   S    
C10   C21   A    
C8    C41   T    
S1    O10   D    
C34   O8    A    
S3    O15   D    
C13   H3    S    
C12   O3    A    
S2    O12   D    
S1    O9    D    
C38   H7    S    
Cu2   O2    S    
Cu2   O4    S    
C21   N3    S    
C12   C40   S    
O11   H17   S    
C29   C30   A    
S3    O16   D    
C3    H12   S    
N6    H22   S    
C14   C15   A    
Cu1   O5    S    
N7    H26   S    
C17   C18   A    
C37   H4    S    
C37   N1    A    
C30   C35   A    
C4    C6    S    
N6    H23   S    
C4    C38   S    
Cu1   Cu2   S    
C28   S2    S    
Cu2   O8    S    
C2    C5    S    
C3    C4    S    
C36   H6    S    
C27   H8    S    
Cu1   O1    S    
C15   C17   A    
C9    H14   S    
C31   C36   A    
C5    H11   S    
N5    H20   S    
C3    C5    S    
S2    O14   S    
C1    O1    A    
C34   O7    A    
C33   N5    S    
Cu1   N1    S    
C10   C23   S    
C32   C33   A    
C23   O5    A    
C29   C31   A    
S3    O17   S    
C11   C13   A    
C5    C6    S    
C2    C42   S    
C33   C35   A    
N5    H21   S    
N3    H15   S    
C17   C21   A    
C9    C18   A    
C1    C24   S    
Cu1   O7    S    
C27   C28   A    
C6    C39   S    
O14   H24   S    
C26   N2    A    
C19   N7    S    
C42   S3    S    
