data_mof_unit_2269.cif
_audit_creation_date              2012-12-10T17:42:35-0500
_audit_creation_method            fapswitch 2.2
_symmetry_space_group_name_H-M    P1
_symmetry_Int_Tables_number       1
_space_group_crystal_system       triclinic
_cell_length_a                    9.953872
_cell_length_b                    10.715384
_cell_length_c                    13.163483
_cell_angle_alpha                 93.230708
_cell_angle_beta                  72.58365
_cell_angle_gamma                 88.195785
_cell_volume                      1335.79128335

loop_
_atom_site_label
_atom_site_type_symbol
_atom_type_description
_atom_site_fract_x
_atom_site_fract_y
_atom_site_fract_z
_atom_type_partial_charge
C1    C     C_R   0.498100 0.740235 0.496118 0.953198
C2    C     C_R   0.395428 0.421148 0.802765 -0.132147
C3    C     C_R   0.225659 0.901853 0.536444 -0.182092
C4    C     C_R   0.427505 0.476249 0.698299 0.965848
C5    C     C_R   0.102008 0.972856 0.589543 -0.100170
C6    C     C_R   0.109369 0.090315 0.637066 -0.059845
C7    C     C_R   0.240058 0.141387 0.622290 -0.138908
C8    C     C_R   0.365388 0.073920 0.560721 0.100793
C9    C     C_R   0.360170 0.947308 0.530733 0.115154
C10   C     C_R   0.490524 0.874677 0.495266 -0.114292
C11   C     C_R   0.619373 0.932275 0.471881 -0.170417
C12   C     C_R   0.458175 0.403657 0.966373 0.076919
C13   C     C_R   0.621693 0.059672 0.482524 -0.143109
C14   C     C_R   0.495437 0.130578 0.523676 -0.087494
C15   C     C_R   0.802495 0.654203 0.670816 0.226085
C16   C     C_R   0.498411 0.261570 0.508592 0.852954
C17   C     C_R   0.853295 0.708919 0.751988 0.325886
C18   C     C_R   0.995995 0.713706 0.735883 0.345979
C19   C     C_R   0.087150 0.649559 0.648519 -0.333778
C20   C     C_R   0.042517 0.573669 0.576236 0.031684
C21   C     C_R   0.895992 0.575067 0.580285 0.052742
C22   C     C_R   0.960039 0.429922 0.426457 -0.064503
C23   C     C_R   0.500834 0.403174 0.854243 0.035139
C24   C     C_R   0.102440 0.429481 0.426899 -0.079503
C25   C     C_R   0.576177 0.499170 0.297065 0.887086
C26   C     C_R   0.795869 0.497451 0.012068 0.428326
C27   C     C_R   0.619039 0.488692 0.181572 -0.121132
C28   C     C_R   0.257494 0.391056 0.855269 -0.113687
C29   C     C_R   0.220421 0.362816 0.961786 -0.043298
C30   C     C_R   0.317102 0.375949 0.018906 -0.149924
C31   C     C_R   0.558557 0.433660 0.019966 0.043354
C32   C     C_R   0.700359 0.452479 0.960196 0.041111
C33   C     C_R   0.744673 0.419406 0.851059 -0.240798
C34   C     C_R   0.646901 0.386021 0.799780 0.382754
C35   C     C_R   0.520670 0.452237 0.130692 -0.214895
C36   C     C_R   0.755564 0.513358 0.122407 -0.221518
Cl1   Cl    Cl    0.635481 0.725805 0.688352 -0.500074
Cl2   Cl    Cl    0.739763 0.783137 0.873084 -0.423668
Cl3   Cl    Cl    0.066256 0.806776 0.820844 -0.446566
Cl4   Cl    Cl    0.962365 0.545818 0.942746 -0.628391
Cl5   Cl    Cl    0.712176 0.288018 0.682305 -0.633860
H1    H     H_    0.830316 0.546504 0.161765 0.188521
H2    H     H_    0.178396 0.390524 0.814032 0.181864
H3    H     H_    0.279522 0.360438 0.102676 0.119012
H4    H     H_    0.719320 0.878866 0.442609 0.173223
H5    H     H_    0.211719 0.815782 0.495631 0.173947
H6    H     H_    0.722283 0.102670 0.455596 0.181745
H7    H     H_    0.114015 0.337853 0.002004 0.164659
H8    H     H_    0.000322 0.935992 0.594547 0.157001
H9    H     H_    0.013813 0.143905 0.681587 0.180303
H10   H     H_    0.242325 0.234200 0.658275 0.142103
H11   H     H_    0.932491 0.372346 0.366219 0.128753
H12   H     H_    0.194649 0.663062 0.638896 0.274461
H13   H     H_    0.855672 0.412552 0.806272 0.192490
H14   H     H_    0.181358 0.371421 0.366888 0.132703
H15   H     H_    0.414471 0.439412 0.179108 0.160821
N1    N     N_R   0.856860 0.501200 0.500990 -0.070902
N2    N     N_R   0.142450 0.501280 0.501020 -0.094629
O1    O     O_R   0.385310 0.683220 0.500000 -0.665041
O2    O     O_R   0.614640 0.683250 0.500010 -0.564882
O3    O     O_R   0.328400 0.499950 0.653610 -0.639105
O4    O     O_R   0.557730 0.499970 0.653620 -0.536455
O5    O     O_R   0.385360 0.316750 0.499990 -0.638954
O6    O     O_R   0.614690 0.316780 0.500000 -0.577299
O7    O     O_R   0.442270 0.500030 0.346380 -0.622270
O8    O     O_R   0.671600 0.500050 0.346390 -0.632688
Zn1   Zn    Zn3+2 0.346880 0.499980 0.499990 0.943862
Zn2   Zn    Zn3+2 0.653120 0.500020 0.500010 1.025814

loop_
_geom_bond_atom_site_label_1
_geom_bond_atom_site_label_2
_ccdc_geom_bond_type
O8    Zn2   S    
C18   Cl3   S    
C21   N1    A    
C6    C7    A    
C3    C9    A    
C16   O5    A    
C27   C36   A    
C25   C27   S    
C2    C28   A    
C9    C10   A    
O3    Zn1   S    
C28   H2    S    
C36   H1    S    
C19   C20   A    
O4    Zn2   S    
C29   H7    S    
C33   H13   S    
C23   C34   A    
C30   H3    S    
C32   C33   A    
C19   H12   S    
C22   N1    A    
C17   C18   A    
C3    C5    A    
C7    H10   S    
C7    C8    A    
C13   C14   A    
C6    H9    S    
C24   H14   S    
C26   C32   A    
C11   C13   A    
C12   C23   A    
C26   Cl4   S    
C29   C30   A    
C34   Cl5   S    
C14   C16   S    
C2    C4    S    
O6    Zn2   S    
C22   C24   A    
C26   C36   A    
C28   C29   A    
C3    H5    S    
C33   C34   A    
C22   H11   S    
C31   C35   A    
C17   Cl2   S    
C1    O1    A    
C12   C31   A    
C5    C6    A    
O5    Zn1   S    
C5    H8    S    
C11   H4    S    
C10   C11   A    
C1    C10   S    
N1    Zn2   S    
C20   N2    A    
C4    O4    A    
N2    Zn1   S    
C15   C21   A    
C25   O7    A    
C20   C21   A    
O2    Zn2   S    
C24   N2    A    
C18   C19   A    
C1    O2    A    
C2    C23   A    
C13   H6    S    
O1    Zn1   S    
C15   Cl1   S    
C8    C14   A    
C16   O6    A    
C27   C35   A    
C35   H15   S    
C15   C17   A    
C12   C30   A    
C4    O3    A    
C25   O8    A    
C31   C32   A    
C8    C9    A    
O7    Zn1   S    
