data_mof_unit_344.cif
_audit_creation_date              2012-12-10T19:08:36-0500
_audit_creation_method            fapswitch 2.2
_symmetry_space_group_name_H-M    P1
_symmetry_Int_Tables_number       1
_space_group_crystal_system       triclinic
_cell_length_a                    15.994288
_cell_length_b                    10.846251
_cell_length_c                    9.565941
_cell_angle_alpha                 90.093394
_cell_angle_beta                  89.823673
_cell_angle_gamma                 90.398717
_cell_volume                      1659.43072121

loop_
_atom_site_label
_atom_site_type_symbol
_atom_type_description
_atom_site_fract_x
_atom_site_fract_y
_atom_site_fract_z
_atom_type_partial_charge
C1    C     C_R   0.500897 0.262788 0.499865 0.793564
C2    C     C_R   0.042939 0.529221 0.625889 -0.019318
C3    C     C_1   0.822910 0.501332 0.500765 -0.064652
C4    C     C_1   0.177423 0.501596 0.502181 -0.043797
C5    C     C_1   0.252420 0.500961 0.501207 -0.144578
C6    C     C_1   0.747823 0.500845 0.500187 -0.188587
C7    C     C_R   0.494991 0.062308 0.620928 0.004595
C8    C     C_R   0.503289 0.130173 0.498698 -0.077187
C9    C     C_R   0.514192 0.064536 0.372475 -0.220218
C10   C     C_R   0.513765 0.935289 0.372315 -0.188531
C11   C     C_R   0.503168 0.869784 0.498578 -0.107411
C12   C     C_R   0.341421 0.500165 0.500247 0.815538
C13   C     C_R   0.494260 0.937809 0.620453 -0.028537
C14   C     C_3   0.482465 0.930103 0.776301 0.277123
C15   C     C_3   0.481773 0.072843 0.775323 -0.292791
C16   C     C_R   0.558113 0.567211 0.073276 0.109318
C17   C     C_R   0.440734 0.436095 0.074442 0.562296
C18   C     C_R   0.440325 0.438572 0.925110 -0.131653
C19   C     C_R   0.557139 0.569079 0.925887 0.194685
C20   C     C_3   0.649504 0.555192 0.916754 -0.535394
C21   C     C_3   0.650684 0.547925 0.075027 0.253941
C22   C     C_R   0.501076 0.737186 0.499918 0.774948
C23   C     C_R   0.658662 0.500222 0.499949 0.821059
C24   C     C_R   0.955509 0.528790 0.624635 -0.213147
C25   C     C_R   0.912443 0.501791 0.501311 0.132028
C26   C     C_R   0.956345 0.475119 0.378545 -0.225382
C27   C     C_R   0.043640 0.474772 0.378170 -0.018001
C28   C     C_R   0.087439 0.501959 0.502210 0.045675
Cu1   Cu    Cu3+1 0.500000 0.499980 0.640670 0.965435
Cu2   Cu    Cu3+1 0.500000 0.500020 0.359330 1.013295
H1    H     H_    0.392755 0.388696 0.868023 0.149160
H2    H     H_    0.668468 0.467950 0.864794 0.242735
H3    H     H_    0.680533 0.639647 0.875439 0.151322
H4    H     H_    0.684339 0.624897 0.128568 0.065744
H5    H     H_    0.920976 0.549465 0.719527 0.137912
H6    H     H_    0.922817 0.454575 0.283133 0.130121
H7    H     H_    0.523066 0.112276 0.274161 0.165020
H8    H     H_    0.521789 0.887422 0.273768 0.166966
H9    H     H_    0.538208 0.889589 0.827723 0.106003
H10   H     H_    0.421216 0.115955 0.803597 0.153585
N1    N     N_R   0.500520 0.500930 0.147930 -0.206563
N2    N     N_R   0.500520 0.500890 0.852020 -0.189069
O1    O     O_R   0.500000 0.319640 0.618810 -0.578069
O2    O     O_R   0.500010 0.319680 0.381230 -0.566133
O3    O     O_R   0.380300 0.499950 0.618760 -0.586759
O4    O     O_R   0.380310 0.499990 0.381180 -0.520306
O5    O     O_R   0.499990 0.680320 0.618770 -0.566054
O6    O     O_R   0.500000 0.680360 0.381190 -0.596294
O7    O     O_R   0.619690 0.500010 0.618820 -0.582194
O8    O     O_R   0.619700 0.500050 0.381240 -0.541455
C29   C     C_1   0.085663 0.557796 0.754912 0.231128
N3    N     N_1   0.119885 0.580707 0.858235 -0.268473
C30   C     C_1   0.554258 0.128843 0.846024 0.240875
N4    N     N_1   0.611115 0.173266 0.901742 -0.279475
O9    O     O_3   0.378422 0.373679 0.146692 -0.551751
C31   C     C_3   0.379566 0.245727 0.116579 0.058927
H11   H     H_    0.384494 0.195523 0.217113 0.177981
H12   H     H_    0.433240 0.215131 0.050685 0.115834
C32   C     C_3   0.297663 0.206346 0.048409 -0.808061
H13   H     H_    0.298521 0.105593 0.027680 0.214915
H14   H     H_    0.244443 0.227194 0.119179 0.272357
H15   H     H_    0.288598 0.255294 0.947985 0.238091
O10   O     O_3   0.669697 0.428000 0.122562 -0.519315
C33   C     C_3   0.757132 0.413698 0.128926 0.092419
H16   H     H_    0.785635 0.484038 0.199106 0.131380
H17   H     H_    0.785686 0.421596 0.023030 0.137330
C34   C     C_3   0.776394 0.286436 0.186558 -0.753780
H18   H     H_    0.748216 0.214333 0.118544 0.258893
H19   H     H_    0.845060 0.272673 0.190140 0.191509
H20   H     H_    0.750449 0.277041 0.293879 0.245938
C35   C     C_1   0.086990 0.446059 0.249516 0.245039
N5    N     N_1   0.121745 0.423018 0.146573 -0.253793
O11   O     O_3   0.407102 0.875919 0.828919 -0.564574
C36   C     C_3   0.338603 0.880096 0.735679 0.101503
H21   H     H_    0.349305 0.817650 0.645269 0.150370
H22   H     H_    0.327145 0.975348 0.697802 0.132163
C37   C     C_3   0.260429 0.835262 0.811330 -0.748051
H23   H     H_    0.246711 0.896425 0.901629 0.240691
H24   H     H_    0.206355 0.835984 0.738785 0.199801
H25   H     H_    0.269746 0.739711 0.849590 0.270141

loop_
_geom_bond_atom_site_label_1
_geom_bond_atom_site_label_2
_ccdc_geom_bond_type
C22   O6    A    
O9    C31   S    
C16   C21   S    
Cu1   N2    S    
C1    C8    S    
O11   C36   S    
C19   C20   S    
C3    C6    T    
C7    C8    A    
Cu1   O7    S    
C30   N4    T    
C26   C27   A    
C36   H22   S    
Cu1   O5    S    
C15   C30   S    
Cu2   O6    S    
C18   N2    A    
C23   O7    A    
C31   H11   S    
C14   H9    S    
C1    O1    A    
C8    C9    A    
C36   C37   S    
Cu2   N1    S    
C9    C10   A    
C17   O9    S    
C19   N2    A    
C7    C15   S    
C22   O5    A    
Cu2   O8    S    
C32   H13   S    
C13   C14   S    
Cu1   O1    S    
Cu2   O2    S    
C4    C28   S    
C37   H24   S    
C32   H14   S    
C24   H5    S    
C36   H21   S    
C29   N3    T    
C14   O11   S    
C3    C25   S    
C24   C25   A    
C5    C12   S    
C12   O4    A    
C2    C29   S    
C12   O3    A    
C23   O8    A    
C21   H4    S    
C25   C26   A    
C37   H23   S    
C34   H18   S    
Cu1   O3    S    
C34   H19   S    
C33   H17   S    
C33   C34   S    
Cu1   Cu2   S    
C1    O2    A    
C9    H7    S    
C17   C18   A    
C20   H3    S    
C26   H6    S    
C2    C24   A    
C27   C35   S    
C20   H2    S    
C37   H25   S    
C32   H15   S    
Cu2   O4    S    
C4    C5    T    
C11   C22   S    
C31   C32   S    
C10   H8    S    
C34   H20   S    
C33   H16   S    
C35   N5    T    
C11   C13   A    
C16   C19   A    
C6    C23   S    
C31   H12   S    
C17   N1    A    
C15   H10   S    
C21   O10   S    
C10   C11   A    
O10   C33   S    
C7    C13   A    
C20   C21   S    
C27   C28   A    
C14   C15   S    
C2    C28   A    
C18   H1    S    
C16   N1    A    
