data_mof_unit_881.cif
_audit_creation_date              2012-12-10T17:43:20-0500
_audit_creation_method            fapswitch 2.2
_symmetry_space_group_name_H-M    P1
_symmetry_Int_Tables_number       1
_space_group_crystal_system       triclinic
_cell_length_a                    15.055511
_cell_length_b                    13.85437
_cell_length_c                    10.625984
_cell_angle_alpha                 89.618142
_cell_angle_beta                  87.348132
_cell_angle_gamma                 89.47385
_cell_volume                      2213.90671293

loop_
_atom_site_label
_atom_site_type_symbol
_atom_type_description
_atom_site_fract_x
_atom_site_fract_y
_atom_site_fract_z
_atom_type_partial_charge
C1    C     C_R   0.328840 0.500220 0.500919 0.828527
C2    C     C_R   0.671155 0.499751 0.499063 0.790632
C3    C     C_R   0.953441 0.499982 0.497920 0.044909
C4    C     C_R   0.046520 0.499530 0.502650 0.039078
C5    C     C_R   0.910047 0.426949 0.431194 0.095684
C6    C     C_R   0.089901 0.572509 0.569472 0.088554
C7    C     C_R   0.946236 0.645096 0.626656 -0.263297
C8    C     C_R   0.053742 0.354394 0.373979 -0.257431
C9    C     C_R   0.038554 0.644049 0.635448 -0.032338
C10   C     C_R   0.961407 0.355331 0.365382 -0.037952
C11   C     C_R   0.446089 0.795080 0.584831 0.096572
C12   C     C_R   0.553204 0.204734 0.414379 0.137546
C13   C     C_R   0.554212 0.794605 0.415148 0.091546
C14   C     C_R   0.446095 0.205345 0.585311 0.138738
C15   C     C_R   0.543871 0.897134 0.401034 -0.050514
C16   C     C_R   0.456465 0.102822 0.599118 -0.010929
C17   C     C_R   0.456762 0.897025 0.598996 -0.054002
C18   C     C_R   0.541828 0.102901 0.400160 -0.004519
C19   C     C_R   0.499997 0.948623 0.499891 0.049857
C20   C     C_R   0.499509 0.051287 0.499817 0.003054
C21   C     C_R   0.574127 0.948999 0.290964 -0.036106
C22   C     C_R   0.426577 0.050894 0.709211 -0.007843
C23   C     C_R   0.426414 0.948108 0.709104 -0.029170
C24   C     C_R   0.570669 0.051797 0.289415 -0.025582
C25   C     C_R   0.500195 0.500341 0.259590 0.770574
C26   C     C_R   0.500056 0.499717 0.740399 0.823970
C27   C     C_3   0.490257 0.592039 0.040600 -0.234439
C28   C     C_3   0.510188 0.408412 0.959393 -0.072444
C29   C     C_3   0.567959 0.554510 0.952491 -0.231596
C30   C     C_3   0.432485 0.445908 0.047549 -0.135062
C31   C     C_3   0.423615 0.536232 0.963552 0.003648
C32   C     C_3   0.576857 0.464187 0.036443 0.000109
C33   C     C_3   0.500217 0.499301 0.877101 -0.053779
C34   C     C_3   0.500257 0.501082 0.122889 -0.063727
C35   C     C_R   0.816745 0.426603 0.435829 -0.195966
C36   C     C_R   0.183184 0.572916 0.564728 -0.140797
C37   C     C_R   0.767922 0.499884 0.497607 -0.093455
C38   C     C_R   0.232059 0.499926 0.502508 -0.092347
C39   C     C_R   0.811307 0.574133 0.557350 -0.171267
C40   C     C_R   0.188700 0.425648 0.442768 -0.182568
C41   C     C_R   0.903645 0.573750 0.560000 0.117960
C42   C     C_R   0.096339 0.425839 0.440445 0.119836
Cu1   Cu    Cu3+1 0.500000 0.597420 0.500000 0.929057
Cu2   Cu    Cu3+1 0.500000 0.402580 0.500000 0.954773
H1    H     H_    0.481439 0.666970 0.075763 0.149277
H2    H     H_    0.519549 0.333754 0.924016 0.228211
H3    H     H_    0.623633 0.598105 0.911051 0.157122
H4    H     H_    0.376824 0.402253 0.088911 0.166697
H5    H     H_    0.780921 0.369825 0.392325 0.207715
H6    H     H_    0.218965 0.629478 0.608573 0.215781
H7    H     H_    0.772856 0.630620 0.605350 0.162554
H8    H     H_    0.227176 0.369272 0.394577 0.164379
H9    H     H_    0.906862 0.700241 0.675980 0.150482
H10   H     H_    0.093119 0.299260 0.324639 0.150832
N1    N     N_R   0.500000 0.743810 0.500000 -0.251421
N2    N     N_R   0.500000 0.256190 0.500000 -0.271772
O1    O     O_R   0.370260 0.582280 0.500030 -0.597630
O2    O     O_R   0.629740 0.417720 0.499970 -0.602987
O3    O     O_R   0.629740 0.582280 0.499970 -0.592242
O4    O     O_R   0.370260 0.417720 0.500030 -0.595202
O5    O     O_R   0.499980 0.582260 0.316850 -0.611486
O6    O     O_R   0.500020 0.417740 0.683150 -0.601191
O7    O     O_R   0.500020 0.582260 0.683150 -0.616591
O8    O     O_R   0.499980 0.417740 0.316850 -0.597551
C43   C     C_2   0.337412 0.576354 0.920890 0.338154
H11   H     H_    0.318559 0.650376 0.942419 0.120051
O9    O     O_2   0.288446 0.526257 0.861013 -0.522166
C44   C     C_2   0.663476 0.425642 0.079857 0.378475
H12   H     H_    0.704094 0.470006 0.137732 0.060123
O10   O     O_2   0.688574 0.344488 0.050780 -0.463967
C45   C     C_2   0.076466 0.717304 0.718332 0.442495
H13   H     H_    0.045279 0.788077 0.726613 0.087726
O11   O     O_2   0.138283 0.697731 0.784646 -0.486483
C46   C     C_2   0.923489 0.281960 0.282709 0.438663
H14   H     H_    0.954633 0.211152 0.274647 0.089798
O12   O     O_2   0.861719 0.301482 0.216302 -0.482854
C47   C     C_2   0.368503 0.748114 0.649101 0.378785
H15   H     H_    0.372578 0.677207 0.690006 0.116031
O13   O     O_2   0.296843 0.790211 0.656605 -0.514037
C48   C     C_2   0.630568 0.251228 0.348536 0.466213
H16   H     H_    0.627448 0.323429 0.311631 0.115791
O14   O     O_2   0.701088 0.207377 0.335269 -0.538221
C49   C     C_2   0.631166 0.745722 0.350265 0.410822
H17   H     H_    0.624727 0.678439 0.301593 0.094231
O15   O     O_2   0.704830 0.781855 0.350902 -0.514127
C50   C     C_2   0.369269 0.253919 0.651225 0.438084
H18   H     H_    0.375084 0.322566 0.696697 0.133314
O16   O     O_2   0.296276 0.215986 0.655045 -0.551953
C51   C     C_2   0.594892 0.895359 0.172087 0.369195
H19   H     H_    0.553089 0.835731 0.146851 0.038510
O17   O     O_2   0.660778 0.913718 0.105304 -0.518165
C52   C     C_2   0.409436 0.102803 0.830071 0.414989
H20   H     H_    0.350455 0.088271 0.889147 0.156305
O18   O     O_2   0.462246 0.162212 0.864844 -0.555165
C53   C     C_2   0.409553 0.893384 0.829167 0.390805
H21   H     H_    0.450819 0.831081 0.849785 0.036766
O19   O     O_2   0.347687 0.914013 0.902604 -0.527106
C54   C     C_2   0.582800 0.104618 0.167079 0.461974
H22   H     H_    0.635545 0.085114 0.099105 0.164608
O20   O     O_2   0.532297 0.170412 0.140540 -0.530131

loop_
_geom_bond_atom_site_label_1
_geom_bond_atom_site_label_2
_ccdc_geom_bond_type
C14   N2    A    
C27   C29   S    
C39   H7    S    
C53   H21   S    
Cu1   Cu2   S    
C6    C9    A    
Cu1   O7    S    
C39   C41   A    
C21   C51   S    
C47   H15   S    
Cu2   O8    S    
C15   C19   A    
C28   H2    S    
C17   C23   A    
C46   O12   D    
C29   H3    S    
C18   C24   A    
C30   H4    S    
C35   C37   A    
C8    C42   A    
C29   C32   S    
C30   C31   S    
C50   O16   D    
C29   C33   S    
C7    C9    A    
C11   C47   S    
C11   C17   A    
C19   C20   A    
Cu2   O2    S    
C44   H12   S    
C43   O9    D    
C35   H5    S    
C31   C33   S    
C51   O17   D    
Cu1   O3    S    
C25   C34   S    
C32   C44   S    
C27   H1    S    
C40   C42   A    
C12   C48   S    
C52   O18   D    
C47   O13   D    
C27   C34   S    
C46   H14   S    
C30   C34   S    
C27   C31   S    
C28   C32   S    
C14   C50   S    
C4    C6    A    
C1    O4    A    
C8    H10   S    
C45   O11   D    
C2    O3    A    
Cu2   O6    S    
C40   H8    S    
C25   O8    A    
C32   C34   S    
C26   O7    A    
C1    O1    A    
Cu2   N2    S    
C26   C33   S    
C49   H17   S    
C15   C21   A    
C16   C20   A    
C2    O2    A    
C25   O5    A    
C12   N2    A    
C1    C38   S    
C24   C54   S    
Cu1   N1    S    
C49   O15   D    
C28   C33   S    
C54   H22   S    
C54   O20   D    
C13   C15   A    
C14   C16   A    
C7    H9    S    
C3    C4    A    
C36   H6    S    
Cu1   O5    S    
C31   C43   S    
C3    C41   A    
C16   C22   A    
C50   H18   S    
C22   C23   A    
C9    C45   S    
C48   H16   S    
C3    C5    A    
C53   O19   D    
C13   C49   S    
C11   N1    A    
C28   C30   S    
C26   O6    A    
C5    C10   A    
C37   C39   A    
C38   C40   A    
C10   C46   S    
C2    C37   S    
C4    C42   A    
Cu2   O4    S    
C5    C35   A    
C36   C38   A    
C52   H20   S    
C17   C19   A    
C48   O14   D    
C6    C36   A    
C18   C20   A    
C7    C41   A    
Cu1   O1    S    
C45   H13   S    
C8    C10   A    
C43   H11   S    
C21   C24   A    
C12   C18   A    
C44   O10   D    
C22   C52   S    
C23   C53   S    
C51   H19   S    
C13   N1    A    
