data_mof_unit_3875.cif
_audit_creation_date              2012-12-10T18:58:13-0500
_audit_creation_method            fapswitch 2.2
_symmetry_space_group_name_H-M    P1
_symmetry_Int_Tables_number       1
_space_group_crystal_system       triclinic
_cell_length_a                    10.724675
_cell_length_b                    10.049531
_cell_length_c                    15.864504
_cell_angle_alpha                 90.439949
_cell_angle_beta                  99.430574
_cell_angle_gamma                 90.034541
_cell_volume                      1686.68228898

loop_
_atom_site_label
_atom_site_type_symbol
_atom_type_description
_atom_site_fract_x
_atom_site_fract_y
_atom_site_fract_z
_atom_type_partial_charge
C1    C     C_R   0.872022 0.499212 0.498472 -0.070877
C2    C     C_R   0.493208 0.379495 0.953772 -0.064988
C3    C     C_R   0.506154 0.501350 0.913172 0.041038
C4    C     C_R   0.509930 0.498402 0.088327 0.041136
C5    C     C_1   0.503184 0.502365 0.823445 -0.015339
C6    C     C_1   0.507259 0.497608 0.177523 -0.014290
C7    C     C_1   0.504324 0.498202 0.251968 -0.121504
C8    C     C_1   0.500916 0.501805 0.748476 -0.118614
C9    C     C_R   0.585107 0.073718 0.559978 0.270332
C10   C     C_R   0.413321 0.926584 0.441297 0.274702
C11   C     C_R   0.414716 0.072183 0.440229 0.269367
C12   C     C_R   0.127975 0.499167 0.501486 -0.071701
C13   C     C_R   0.586472 0.928096 0.558820 0.273046
C14   C     C_R   0.063782 0.377742 0.499646 -0.132064
C15   C     C_R   0.936097 0.620161 0.498953 -0.139148
C16   C     C_R   0.935706 0.377762 0.498775 -0.131814
C17   C     C_R   0.064412 0.620138 0.502526 -0.138698
C18   C     C_1   0.538194 0.743572 0.096814 0.222546
C19   C     C_1   0.474798 0.256467 0.904603 0.231735
C20   C     C_1   0.536754 0.746297 0.916257 0.219066
C21   C     C_1   0.487305 0.252292 0.085290 0.225233
C22   C     C_R   0.260645 0.499838 0.501068 0.906475
C23   C     C_R   0.739357 0.499865 0.498928 0.906254
C24   C     C_R   0.501288 0.499489 0.339931 0.932499
C25   C     C_R   0.499107 0.500506 0.660065 0.929985
C26   C     C_R   0.522168 0.621735 0.959459 -0.063858
C27   C     C_R   0.496619 0.377828 0.042179 -0.068063
C28   C     C_R   0.523351 0.620331 0.047754 -0.059307
H1    H     H_    0.111937 0.283076 0.499009 0.200751
H2    H     H_    0.887690 0.714615 0.496736 0.219096
H3    H     H_    0.887144 0.283095 0.498174 0.199311
H4    H     H_    0.113233 0.714589 0.505983 0.218185
H5    H     H_    0.761496 0.346882 0.704607 0.361870
H6    H     H_    0.201008 0.658133 0.314996 0.363245
H7    H     H_    0.238200 0.341451 0.295529 0.362124
H8    H     H_    0.797360 0.662939 0.686015 0.362996
N1    N     N_R   0.500000 0.857200 0.500000 -0.233546
N2    N     N_R   0.500000 0.142800 0.500000 -0.232885
N3    N     N_1   0.550062 0.841571 0.136104 -0.122218
N4    N     N_1   0.459670 0.158420 0.865534 -0.107473
N5    N     N_1   0.548442 0.845458 0.881750 -0.098588
N6    N     N_1   0.480333 0.151682 0.119135 -0.090248
O1    O     O_R   0.316770 0.614620 0.499990 -0.574130
O2    O     O_2   0.816344 0.103532 0.665573 -0.206709
O3    O     O_3   0.718490 0.323596 0.646206 -0.533817
O4    O     O_2   0.166399 0.874438 0.396361 -0.298862
O5    O     O_2   0.287977 0.892262 0.278766 -0.202553
O6    O     O_3   0.283103 0.675916 0.352117 -0.530338
O7    O     O_2   0.372982 0.134171 0.274273 -0.266623
O8    O     O_2   0.182360 0.100083 0.336822 -0.209428
O9    O     O_3   0.282262 0.320278 0.353772 -0.533512
O10   O     O_2   0.833164 0.877760 0.605092 -0.298540
O11   O     O_2   0.709432 0.897369 0.721692 -0.204626
O12   O     O_R   0.683230 0.385380 0.500010 -0.574540
O13   O     O_3   0.716077 0.679611 0.647931 -0.530567
O14   O     O_R   0.683230 0.614620 0.500010 -0.574460
O15   O     O_R   0.316770 0.385380 0.499990 -0.574461
O16   O     O_R   0.499980 0.614630 0.378020 -0.553176
O17   O     O_R   0.500020 0.385370 0.621980 -0.551209
O18   O     O_R   0.500020 0.614630 0.621980 -0.554564
O19   O     O_R   0.499980 0.385370 0.378020 -0.552779
O20   O     O_2   0.624353 0.141464 0.726032 -0.267443
S1    S     S_3+6 0.685990 0.161351 0.648511 0.117301
S2    S     S_3+6 0.289214 0.840474 0.367419 0.113022
S3    S     S_3+6 0.313119 0.157628 0.352291 0.116018
S4    S     S_3+6 0.709797 0.843847 0.633100 0.111470
Zn1   Zn    Zn3+2 0.500000 0.653120 0.500000 1.099369
Zn2   Zn    Zn3+2 0.500000 0.346880 0.500000 1.099387

loop_
_geom_bond_atom_site_label_1
_geom_bond_atom_site_label_2
_ccdc_geom_bond_type
C12   C17   A    
C11   S3    S    
C11   N2    A    
C18   N3    T    
O1    Zn1   S    
C1    C23   S    
C6    C7    T    
C1    C15   A    
C25   O18   A    
O17   Zn2   S    
C5    C8    T    
O14   Zn1   S    
H5    O3    S    
H6    O6    S    
C26   C28   A    
C22   O1    A    
O9    S3    S    
C4    C27   A    
C22   O15   A    
C2    C3    A    
C21   C27   S    
O10   S4    D    
C23   O14   A    
C1    C16   A    
C9    S1    S    
C16   H3    S    
O11   S4    D    
O19   Zn2   S    
C2    C27   A    
C20   C26   S    
C23   O12   A    
C24   O19   A    
N1    Zn1   S    
H8    O13   S    
C24   O16   A    
C9    N2    A    
C4    C28   A    
C12   C14   A    
C20   N5    T    
C13   S4    S    
C10   N1    A    
O2    S1    D    
H7    O9    S    
O8    S3    D    
C14   C16   A    
O6    S2    S    
O12   Zn2   S    
C19   N4    T    
O15   Zn2   S    
C8    C25   S    
C7    C24   S    
C12   C22   S    
O16   Zn1   S    
O13   S4    S    
C18   C28   S    
C15   H2    S    
C4    C6    S    
C10   C11   A    
O4    S2    D    
O5    S2    D    
C15   C17   A    
C17   H4    S    
C9    C13   A    
C25   O17   A    
C2    C19   S    
O7    S3    D    
C13   N1    A    
O3    S1    S    
C3    C26   A    
C10   S2    S    
O20   S1    D    
C21   N6    T    
O18   Zn1   S    
N2    Zn2   S    
C14   H1    S    
C3    C5    S    
