data_mof_unit_984.cif
_audit_creation_date              2012-12-10T17:33:43-0500
_audit_creation_method            fapswitch 2.2
_symmetry_space_group_name_H-M    P1
_symmetry_Int_Tables_number       1
_space_group_crystal_system       triclinic
_cell_length_a                    11.694091
_cell_length_b                    12.320303
_cell_length_c                    13.179964
_cell_angle_alpha                 116.230876
_cell_angle_beta                  77.707498
_cell_angle_gamma                 101.098083
_cell_volume                      1653.78007731

loop_
_atom_site_label
_atom_site_type_symbol
_atom_type_description
_atom_site_fract_x
_atom_site_fract_y
_atom_site_fract_z
_atom_type_partial_charge
C1    C     C_R   0.508066 0.854908 0.286106 0.780965
C2    C     C_R   0.461562 0.227911 0.838368 -0.203248
C3    C     C_R   0.567648 0.813290 0.076235 -0.103331
C4    C     C_R   0.599905 0.727562 0.963505 -0.028378
C5    C     C_R   0.570418 0.603782 0.936936 -0.176187
C6    C     C_R   0.497981 0.562218 0.015326 0.057411
C7    C     C_R   0.466597 0.646361 0.128614 0.072684
C8    C     C_R   0.462665 0.436073 0.984393 0.072417
C9    C     C_R   0.423621 0.393252 0.070278 0.042106
C10   C     C_R   0.382010 0.477019 0.179841 -0.227920
C11   C     C_R   0.393971 0.600322 0.204754 -0.147989
C12   C     C_R   0.715786 0.999621 0.499829 0.820037
C13   C     C_R   0.457644 0.352816 0.870602 -0.060431
C14   C     C_R   0.447636 0.186270 0.925899 -0.054447
C15   C     C_R   0.509498 0.772181 0.162164 -0.133025
C16   C     C_R   0.689639 0.348492 0.331348 -0.284836
C17   C     C_R   0.340813 0.758356 0.643821 0.067963
C18   C     C_R   0.303580 0.660028 0.672659 -0.215967
C19   C     C_R   0.361831 0.555890 0.616345 -0.168160
C20   C     C_R   0.459347 0.549196 0.530708 -0.006049
C21   C     C_R   0.494375 0.652492 0.504103 0.298451
C22   C     C_R   0.524139 0.445038 0.471607 -0.030808
C23   C     C_R   0.481009 0.145262 0.714318 0.795482
C24   C     C_R   0.622461 0.446939 0.388083 0.163046
C25   C     C_R   0.653771 0.547269 0.361966 -0.264332
C26   C     C_R   0.591372 0.647652 0.418712 -0.164414
C27   C     C_R   0.496868 0.338676 0.492082 0.019570
C28   C     C_R   0.660765 0.249005 0.358703 0.130599
C29   C     C_R   0.284205 0.000373 0.500173 0.827649
C30   C     C_1   0.837422 0.999236 0.499898 -0.165937
C31   C     C_1   0.940011 0.999532 0.499891 0.017460
C32   C     C_1   0.059981 0.000213 0.499889 0.020339
C33   C     C_1   0.162573 0.000608 0.499958 -0.155145
C34   C     C_R   0.418967 0.267758 0.042056 -0.056837
Cu1   Cu    Cu3+1 0.526510 0.098270 0.475420 0.979552
Cu2   Cu    Cu3+1 0.473490 0.901730 0.524580 0.937872
H1    H     H_    0.728323 0.548838 0.297430 0.156793
H2    H     H_    0.420735 0.326978 0.550082 0.126435
H3    H     H_    0.294220 0.838266 0.687011 0.125308
H4    H     H_    0.623288 0.719917 0.392960 0.201856
N1    N     N_R   0.566700 0.246290 0.438210 -0.179512
N2    N     N_R   0.434010 0.754320 0.561170 -0.208330
O1    O     O_R   0.533340 0.972510 0.318140 -0.542886
O2    O     O_R   0.488570 0.806530 0.359650 -0.620503
O3    O     O_R   0.685190 0.083000 0.479260 -0.579853
O4    O     O_R   0.640410 0.917020 0.520770 -0.580932
O5    O     O_R   0.511430 0.193470 0.640350 -0.591310
O6    O     O_R   0.466660 0.027490 0.681860 -0.597351
O7    O     O_R   0.359590 0.082980 0.479230 -0.561011
O8    O     O_R   0.314810 0.917000 0.520740 -0.591572
C35   C     C_2   0.463167 0.059316 0.897941 0.525389
H5    H     H_    0.399681 0.984880 0.854496 0.067564
O9    O     O_2   0.547429 0.037818 0.924194 -0.548378
H6    H     H_    0.764836 0.349135 0.267203 0.145138
H7    H     H_    0.328684 0.482225 0.641427 0.175664
H8    H     H_    0.228904 0.664261 0.738426 0.166740
H9    H     H_    0.334775 0.447950 0.245252 0.135401
C36   C     C_2   0.388400 0.223471 0.134050 0.444355
H10   H     H_    0.414807 0.279939 0.217651 0.066786
O10   O     O_2   0.331070 0.124863 0.118182 -0.506922
C37   C     C_2   0.418204 0.394162 0.795071 0.379999
H11   H     H_    0.480105 0.410325 0.728093 0.080977
O11   O     O_2   0.316070 0.413612 0.810442 -0.547569
C38   C     C_2   0.597562 0.944499 0.102234 0.443069
H12   H     H_    0.687766 0.980425 0.083230 0.019030
O12   O     O_2   0.520470 0.012391 0.141353 -0.460472
H13   H     H_    0.606136 0.539138 0.854000 0.163813
C39   C     C_2   0.664602 0.765137 0.871513 0.380585
H14   H     H_    0.691503 0.860147 0.889039 0.102420
O13   O     O_2   0.687997 0.689720 0.773530 -0.541353
H15   H     H_    0.346384 0.657705 0.284769 0.177549
H16   H     H_    0.712988 0.173222 0.316060 0.116925

loop_
_geom_bond_atom_site_label_1
_geom_bond_atom_site_label_2
_ccdc_geom_bond_type
C14   C34   A    
C21   C26   A    
Cu2   O4    S    
C6    C7    A    
C1    C15   S    
Cu1   O1    S    
C9    C10   A    
C27   N1    A    
C1    O2    A    
Cu2   N2    S    
C16   C28   A    
C18   H8    S    
C30   C31   T    
C5    H13   S    
Cu1   O5    S    
C32   C33   T    
C20   C21   A    
C19   C20   A    
C7    C15   A    
C17   C18   A    
C36   H10   S    
C2    C14   A    
C3    C15   A    
C16   C24   A    
C29   O7    A    
C3    C38   S    
C38   H12   S    
C7    C11   A    
C26   H4    S    
C28   H16   S    
C11   H15   S    
C5    C6    A    
Cu1   O7    S    
C39   O13   D    
C20   C22   A    
C9    C34   A    
Cu2   O6    S    
C22   C24   A    
C29   O8    A    
C14   C35   S    
C37   H11   S    
Cu1   N1    S    
C34   C36   S    
C16   H6    S    
Cu2   O2    S    
C23   O5    A    
C10   C11   A    
C27   H2    S    
C36   O10   D    
C35   H5    S    
Cu1   O3    S    
C8    C13   A    
C29   C33   S    
C28   N1    A    
C22   C27   A    
C10   H9    S    
C13   C37   S    
C24   C25   A    
C31   C32   S    
C8    C9    A    
C12   O4    A    
C18   C19   A    
C17   H3    S    
C19   H7    S    
C2    C23   S    
C37   O11   D    
C2    C13   A    
C17   N2    A    
C4    C5    A    
C6    C8    A    
C23   O6    A    
C12   C30   S    
C25   C26   A    
C39   H14   S    
C4    C39   S    
C1    O1    A    
C21   N2    A    
C3    C4    A    
Cu1   Cu2   S    
Cu2   O8    S    
C25   H1    S    
C12   O3    A    
C35   O9    D    
C38   O12   D    
