data_mof_unit_3065.cif
_audit_creation_date              2012-12-11T15:43:14-0500
_audit_creation_method            fapswitch 2.2
_symmetry_space_group_name_H-M    P1
_symmetry_Int_Tables_number       1
_space_group_crystal_system       triclinic
_cell_length_a                    18.982756
_cell_length_b                    11.021604
_cell_length_c                    18.78702
_cell_angle_alpha                 90.049048
_cell_angle_beta                  90.047664
_cell_angle_gamma                 90.023066
_cell_volume                      3930.62508486

loop_
_atom_site_label
_atom_site_type_symbol
_atom_type_description
_atom_site_fract_x
_atom_site_fract_y
_atom_site_fract_z
_atom_type_partial_charge
C1    C     C_R   0.730882 0.379123 0.146646 0.579215
C2    C     C_R   0.940026 0.974578 0.054110 -0.097510
C3    C     C_R   0.737141 0.409315 0.580550 -0.003935
C4    C     C_R   0.710999 0.331622 0.359646 0.566629
C5    C     C_R   0.287374 0.336236 0.640291 0.570870
C6    C     C_R   0.210999 0.831623 0.359647 0.567533
C7    C     C_R   0.787377 0.836233 0.640291 0.573647
C8    C     C_R   0.532026 0.157573 0.353016 0.550989
C9    C     C_R   0.466653 0.155810 0.645981 0.538266
C10   C     C_R   0.032012 0.657575 0.353006 0.552062
C11   C     C_R   0.966635 0.655809 0.645970 0.539784
C12   C     C_R   0.741465 0.971115 0.354365 0.556347
C13   C     C_R   0.546836 0.481930 0.948803 -0.113327
C14   C     C_R   0.256959 0.969458 0.646710 0.520629
C15   C     C_R   0.241459 0.471135 0.354374 0.560164
C16   C     C_R   0.756956 0.469444 0.646719 0.529499
C17   C     C_R   0.489738 0.160662 0.927926 -0.014827
C18   C     C_R   0.500055 0.172751 0.076289 0.022181
C19   C     C_R   0.999663 0.675315 0.923669 0.011001
C20   C     C_R   0.012764 0.661731 0.071491 0.031253
C21   C     C_R   0.512277 0.269977 0.959460 0.049312
C22   C     C_R   0.511880 0.280010 0.034624 0.095468
C23   C     C_R   0.984321 0.780394 0.966328 0.020303
C24   C     C_R   0.540816 0.495750 0.021881 -0.141435
C25   C     C_R   0.985780 0.769043 0.041361 0.031371
C26   C     C_R   0.476085 0.067506 0.043490 -0.167489
C27   C     C_R   0.471468 0.061388 0.970779 -0.149797
C28   C     C_R   0.037086 0.568042 0.027424 -0.135422
C29   C     C_R   0.030333 0.574230 0.954810 -0.163830
C30   C     C_3   0.967246 0.062852 0.598455 0.002308
C31   C     C_3   0.021959 0.030686 0.654712 -0.355149
C32   C     C_3   0.070254 0.156237 0.378329 -0.000208
C33   C     C_3   0.029086 0.104202 0.315754 -0.340107
C34   C     C_3   0.467218 0.562778 0.598530 0.005337
C35   C     C_R   0.775706 0.859545 0.935067 -0.013673
C36   C     C_3   0.521996 0.530591 0.654720 -0.362726
C37   C     C_3   0.570285 0.656229 0.378320 -0.000199
C38   C     C_3   0.529165 0.604098 0.315744 -0.344701
C39   C     C_R   0.239768 0.900555 0.069025 -0.072860
C40   C     C_R   0.258594 0.402470 0.930695 -0.054224
C41   C     C_R   0.756641 0.440825 0.082692 -0.012737
C42   C     C_R   0.741961 0.966985 0.952613 0.052224
C43   C     C_R   0.302214 0.871638 0.033586 -0.011053
C44   C     C_R   0.198491 0.363202 0.967391 -0.027291
C45   C     C_R   0.271712 0.372552 0.856267 0.559197
C46   C     C_R   0.814607 0.400570 0.043499 0.008319
C47   C     C_R   0.731123 0.997499 0.022746 -0.059939
C48   C     C_R   0.305270 0.876313 0.959387 0.022957
C49   C     C_R   0.196421 0.366968 0.041944 -0.047550
C50   C     C_R   0.820301 0.427853 0.971752 -0.048052
C51   C     C_R   0.793479 0.817697 0.061472 0.201866
C52   C     C_R   0.181836 0.931249 0.954424 0.185118
C53   C     C_R   0.316988 0.438782 0.044295 0.186092
C54   C     C_R   0.720134 0.560989 0.979618 0.208637
C55   C     C_R   0.806880 0.790718 0.989567 -0.081482
C56   C     C_R   0.227925 0.872005 0.143624 0.559249
C57   C     C_R   0.179899 0.930643 0.028396 -0.158050
C58   C     C_R   0.317224 0.441230 0.970426 -0.170009
C59   C     C_R   0.714985 0.533033 0.052529 -0.086500
C60   C     C_3   0.672533 0.015792 0.928832 0.128148
C61   C     C_3   0.340584 0.753918 0.036383 0.135742
C62   C     C_3   0.166620 0.239681 0.964156 0.134874
C63   C     C_3   0.847673 0.278517 0.035036 0.101021
C64   C     C_3   0.660428 0.050771 0.006711 0.125200
C65   C     C_3   0.341846 0.756218 0.955790 0.151247
C66   C     C_3   0.167756 0.239932 0.044840 0.153694
C67   C     C_R   0.788802 0.830430 0.861428 0.562866
C68   C     C_3   0.851003 0.305692 0.955135 0.158005
C69   C     C_R   0.751857 0.920659 0.077802 -0.020824
C70   C     C_R   0.245879 0.909107 0.919546 0.003982
C71   C     C_R   0.254835 0.408448 0.080506 0.022067
C72   C     C_R   0.769394 0.498001 0.936900 0.008262
C73   C     C_R   0.531326 0.156931 0.147054 0.568072
C74   C     C_R   0.466993 0.154577 0.853921 0.519700
C75   C     C_R   0.033587 0.654628 0.145851 0.546644
C76   C     C_R   0.968227 0.657288 0.853193 0.526952
C77   C     C_R   0.490743 0.156182 0.572959 0.032630
C78   C     C_R   0.534637 0.369619 0.917871 -0.084661
C79   C     C_R   0.506114 0.167937 0.424858 0.016354
C80   C     C_R   0.990704 0.656189 0.572941 0.030939
C81   C     C_R   0.006079 0.667950 0.424839 0.014840
C82   C     C_R   0.468887 0.061080 0.528662 0.046616
C83   C     C_R   0.477417 0.065570 0.456259 0.067193
C84   C     C_R   0.968820 0.561109 0.528639 0.046378
C85   C     C_R   0.977354 0.565600 0.456234 0.067291
C86   C     C_R   0.533581 0.259771 0.469016 -0.124147
C87   C     C_R   0.528506 0.251395 0.543032 -0.088505
C88   C     C_R   0.033553 0.759770 0.469002 -0.124463
C89   C     C_R   0.524187 0.396391 0.064555 -0.041909
C90   C     C_R   0.028476 0.751391 0.543017 -0.089144
C91   C     C_3   0.398567 0.002146 0.522425 -0.252151
C92   C     C_3   0.407657 0.007719 0.442504 -0.294628
C93   C     C_3   0.898480 0.502251 0.522398 -0.252760
C94   C     C_3   0.907572 0.507830 0.442477 -0.293606
C95   C     C_R   0.774032 0.866841 0.567550 -0.052410
C96   C     C_R   0.219466 0.849941 0.436115 -0.060188
C97   C     C_R   0.274027 0.366847 0.567553 -0.051505
C98   C     C_R   0.719467 0.349936 0.436115 -0.058877
C99   C     C_R   0.831078 0.879346 0.522125 0.026631
C100  C     C_R   0.966763 0.895779 0.937656 -0.095489
C101  C     C_R   0.177196 0.935694 0.469107 0.039615
C102  C     C_R   0.331072 0.379359 0.522131 0.027488
C103  C     C_R   0.677217 0.435721 0.469102 0.040289
C104  C     C_R   0.821291 0.893410 0.449112 -0.096635
C105  C     C_R   0.185301 0.964462 0.538990 -0.056328
C106  C     C_R   0.321286 0.393431 0.449120 -0.094872
C107  C     C_R   0.685327 0.464496 0.538983 -0.057478
C108  C     C_R   0.694129 0.905300 0.471076 0.184382
C109  C     C_R   0.270987 0.805540 0.552983 0.194268
C110  C     C_R   0.194122 0.405305 0.471081 0.183286
C111  C     C_R   0.960493 0.865234 0.084192 -0.063189
C112  C     C_R   0.770956 0.305497 0.552996 0.194490
C113  C     C_R   0.705807 0.881303 0.542240 -0.106650
C114  C     C_R   0.262987 0.777462 0.479762 -0.104121
C115  C     C_R   0.205801 0.381298 0.542244 -0.108429
C116  C     C_R   0.762960 0.277421 0.479772 -0.103830
C117  C     C_3   0.881593 0.983181 0.524090 0.165168
C118  C     C_3   0.157710 0.061041 0.447225 0.168174
C119  C     C_3   0.381596 0.483182 0.524104 0.164118
C120  C     C_3   0.657749 0.561071 0.447219 0.169006
C121  C     C_R   0.742216 0.966913 0.148938 0.541172
C122  C     C_R   0.944601 0.990786 0.981151 -0.113960
C123  C     C_R   0.257584 0.965827 0.850816 0.572059
C124  C     C_R   0.242465 0.465763 0.149122 0.574632
C125  C     C_R   0.772323 0.519367 0.859885 0.574894
C126  C     C_3   0.883867 0.977341 0.444405 -0.221268
C127  C     C_3   0.169878 0.095332 0.524392 -0.210671
C128  C     C_3   0.383867 0.477353 0.444418 -0.220216
C129  C     C_3   0.669935 0.595373 0.524381 -0.211339
C130  C     C_R   0.752322 0.913696 0.423082 -0.003409
C131  C     C_R   0.237141 0.909318 0.580547 -0.003099
C132  C     C_R   0.252316 0.413718 0.423091 -0.003233
Cr1   Cr    Cr6+3 0.772010 0.169670 0.250090 1.002047
Cr2   Cr    Cr6+3 0.383290 0.010760 0.749160 1.041843
Cr3   Cr    Cr6+3 0.116710 0.510760 0.250840 1.027855
Cr4   Cr    Cr6+3 0.883290 0.510760 0.749160 1.044139
Cr5   Cr    Cr6+3 0.227990 0.169670 0.749910 1.010582
Cr6   Cr    Cr6+3 0.272010 0.669670 0.250090 1.008608
Cr7   Cr    Cr6+3 0.727990 0.669670 0.749910 1.025908
Cr8   Cr    Cr6+3 0.615000 0.323260 0.249260 1.005084
Cr9   Cr    Cr6+3 0.385000 0.323260 0.750740 1.005984
Cr10  Cr    Cr6+3 0.115000 0.823260 0.249260 1.001781
Cr11  Cr    Cr6+3 0.885000 0.823260 0.750740 1.009654
Cr12  Cr    Cr6+3 0.616710 0.010760 0.250840 1.011320
H1    H     H_    0.464884 0.986482 0.074005 0.188845
H2    H     H_    0.912816 0.416830 0.417450 0.148133
H3    H     H_    0.355251 0.061063 0.542160 0.129357
H4    H     H_    0.412937 0.916720 0.417484 0.147615
H5    H     H_    0.400080 0.908395 0.543764 0.192812
H6    H     H_    0.369686 0.069839 0.415923 0.131340
H7    H     H_    0.899962 0.408495 0.543731 0.192339
H8    H     H_    0.869624 0.569997 0.415899 0.131133
H9    H     H_    0.661130 0.877064 0.578063 0.166839
H10   H     H_    0.291664 0.702528 0.456983 0.133675
H11   H     H_    0.161124 0.377045 0.578066 0.165470
H12   H     H_    0.452121 0.977782 0.948192 0.230084
H13   H     H_    0.791613 0.202453 0.457000 0.134154
H14   H     H_    0.853123 0.065017 0.541110 0.178592
H15   H     H_    0.196714 0.100405 0.409312 0.105978
H16   H     H_    0.353134 0.565025 0.541130 0.178067
H17   H     H_    0.696747 0.600413 0.409291 0.104576
H18   H     H_    0.874795 0.067458 0.420191 0.124167
H19   H     H_    0.218283 0.149792 0.531647 0.091541
H20   H     H_    0.374801 0.567471 0.420203 0.123959
H21   H     H_    0.718355 0.649796 0.531624 0.090307
H22   H     H_    0.930964 0.929504 0.423389 0.169440
H23   H     H_    0.063119 0.489695 0.049199 0.160491
H24   H     H_    0.122266 0.130219 0.551752 0.158767
H25   H     H_    0.430961 0.429505 0.423405 0.170008
H26   H     H_    0.622332 0.630298 0.551744 0.158917
H27   H     H_    0.542869 0.362197 0.861115 0.130800
H28   H     H_    0.515301 0.416352 0.119998 0.161390
H29   H     H_    0.974484 0.918963 0.882533 0.181456
H30   H     H_    0.953995 0.856069 0.141076 0.145945
H31   H     H_    0.931111 0.077303 0.957908 0.205874
H32   H     H_    0.920719 0.046505 0.087873 0.166997
H33   H     H_    0.559510 0.558867 0.915529 0.172404
H34   H     H_    0.046423 0.496980 0.922999 0.171261
H35   H     H_    0.547581 0.584458 0.045686 0.126938
H36   H     H_    0.839154 0.712989 0.976344 0.122575
H37   H     H_    0.129563 0.947786 0.053636 0.181573
H38   H     H_    0.366102 0.466191 0.944541 0.143302
H39   H     H_    0.674180 0.576121 0.083846 0.123902
H40   H     H_    0.201933 0.170704 0.940443 0.140776
H41   H     H_    0.813352 0.200773 0.049417 0.120422
H42   H     H_    0.636215 0.944699 0.907966 0.124304
H43   H     H_    0.308563 0.679156 0.058856 0.138526
H44   H     H_    0.616806 0.000283 0.032554 0.144100
H45   H     H_    0.559441 0.336874 0.445975 0.191682
H46   H     H_    0.309241 0.685022 0.929557 0.078224
H47   H     H_    0.206245 0.174813 0.067870 0.119811
H48   H     H_    0.815387 0.247854 0.922550 0.161026
H49   H     H_    0.611382 0.884840 0.414719 0.334128
H50   H     H_    0.300897 0.744714 0.644854 0.341664
H51   H     H_    0.111382 0.384847 0.414712 0.334129
H52   H     H_    0.800831 0.244675 0.644880 0.349344
H53   H     H_    0.923021 0.104885 0.628554 0.176800
H54   H     H_    0.989770 0.130990 0.561220 0.149807
H55   H     H_    0.070278 0.993866 0.630286 0.154312
H56   H     H_    0.551145 0.320659 0.576164 0.156307
H57   H     H_    0.036654 0.113634 0.684886 0.101732
H58   H     H_    0.000134 0.963564 0.692691 0.179741
H59   H     H_    0.117147 0.203761 0.356211 0.109248
H60   H     H_    0.036269 0.224174 0.405233 0.137924
H61   H     H_    0.980162 0.059807 0.334529 0.133322
H62   H     H_    0.014609 0.178323 0.278499 0.097350
H63   H     H_    0.061494 0.036813 0.286635 0.191329
H64   H     H_    0.422982 0.604658 0.628690 0.174000
H65   H     H_    0.489676 0.631042 0.561333 0.150127
H66   H     H_    0.570320 0.493931 0.630225 0.155395
H67   H     H_    0.059426 0.836862 0.445964 0.191621
H68   H     H_    0.536657 0.613501 0.684945 0.097001
H69   H     H_    0.500255 0.463340 0.692670 0.173031
H70   H     H_    0.617172 0.703793 0.356216 0.103795
H71   H     H_    0.536262 0.724148 0.405191 0.138928
H72   H     H_    0.480325 0.559442 0.334527 0.142213
H73   H     H_    0.514545 0.678215 0.278547 0.081887
H74   H     H_    0.561663 0.536916 0.286562 0.182289
H75   H     H_    0.804466 0.767079 0.160298 0.317557
H76   H     H_    0.088431 0.000127 0.947233 0.356420
H77   H     H_    0.406607 0.521150 0.050639 0.334792
H78   H     H_    0.051125 0.820646 0.576150 0.156196
H79   H     H_    0.650400 0.689994 0.987474 0.304985
H80   H     H_    0.633361 0.139995 0.868716 0.332894
H81   H     H_    0.400610 0.760213 0.119155 0.335074
H82   H     H_    0.104764 0.239564 0.882644 0.351456
H83   H     H_    0.905421 0.266184 0.119211 0.333884
H84   H     H_    0.699642 0.215852 0.998784 0.341815
H85   H     H_    0.429385 0.683497 0.926803 0.323775
H86   H     H_    0.069288 0.292005 0.057543 0.386068
H87   H     H_    0.946516 0.373760 0.953553 0.378006
H88   H     H_    0.855185 0.561209 0.542138 0.128260
O1    O     O_R   0.787520 0.042810 0.170440 -0.527241
O2    O     O_R   0.454050 0.051210 0.669140 -0.513451
O3    O     O_R   0.045950 0.551210 0.330860 -0.499477
O4    O     O_R   0.954050 0.551210 0.669140 -0.512758
O5    O     O_R   0.681390 0.959480 0.325510 -0.506280
O6    O     O_R   0.318610 0.959480 0.674490 -0.500920
O7    O     O_R   0.181390 0.459480 0.325510 -0.503622
O8    O     O_R   0.818610 0.459480 0.674490 -0.492795
O9    O     O_3   0.667900 0.167900 0.250060 -0.254516
O10   O     O_3   0.332100 0.167900 0.749940 -0.277236
O11   O     O_3   0.167900 0.667900 0.250060 -0.274714
O12   O     O_R   0.212480 0.042810 0.829560 -0.473799
O13   O     O_3   0.832100 0.667900 0.749940 -0.324543
O14   O     O_R   0.765640 0.292100 0.175020 -0.498792
O15   O     O_R   0.234360 0.292100 0.824980 -0.509254
O16   O     O_R   0.265640 0.792100 0.175020 -0.510696
O17   O     O_R   0.734360 0.792100 0.824980 -0.462847
O18   O     O_R   0.670190 0.408840 0.168540 -0.524775
O19   O     O_R   0.329810 0.408840 0.831460 -0.521989
O20   O     O_R   0.170190 0.908840 0.168540 -0.512242
O21   O     O_R   0.829810 0.908840 0.831460 -0.496643
O22   O     O_R   0.556620 0.251410 0.175160 -0.507952
O23   O     O_R   0.287520 0.542810 0.170440 -0.470562
O24   O     O_R   0.443380 0.251410 0.824840 -0.518960
O25   O     O_R   0.056620 0.751410 0.175160 -0.523083
O26   O     O_R   0.943380 0.751410 0.824840 -0.546860
O27   O     O_R   0.545960 0.049620 0.170320 -0.519672
O28   O     O_R   0.454040 0.049620 0.829680 -0.498334
O29   O     O_R   0.045960 0.549620 0.170320 -0.504990
O30   O     O_R   0.954040 0.549620 0.829680 -0.494650
O31   O     O_R   0.681390 0.958010 0.176690 -0.499075
O32   O     O_R   0.318610 0.958010 0.823310 -0.486472
O33   O     O_R   0.181390 0.458010 0.176690 -0.498221
O34   O     O_R   0.712480 0.542810 0.829560 -0.464765
O35   O     O_R   0.818610 0.458010 0.823310 -0.478002
O36   O     O_R   0.787510 0.044390 0.330970 -0.544755
O37   O     O_R   0.212490 0.044390 0.669030 -0.534829
O38   O     O_R   0.287510 0.544390 0.330970 -0.541619
O39   O     O_R   0.712490 0.544390 0.669030 -0.536901
O40   O     O_R   0.765630 0.293570 0.323840 -0.511146
O41   O     O_R   0.234370 0.293570 0.676160 -0.516064
O42   O     O_R   0.265630 0.793570 0.323840 -0.509847
O43   O     O_R   0.734370 0.793570 0.676160 -0.510302
O44   O     O_R   0.670190 0.410420 0.329080 -0.511619
O45   O     O_R   0.556610 0.252880 0.323980 -0.530970
O46   O     O_R   0.329810 0.410420 0.670920 -0.485167
O47   O     O_R   0.170190 0.910420 0.329080 -0.505906
O48   O     O_R   0.829810 0.910420 0.670920 -0.475383
O49   O     O_3   0.626745 0.939079 0.453365 -0.690734
O50   O     O_3   0.315028 0.736303 0.594355 -0.765568
O51   O     O_3   0.126735 0.439070 0.453369 -0.691649
O52   O     O_3   0.814954 0.236206 0.594383 -0.763240
O53   O     O_3   0.945569 0.958344 0.559851 -0.540024
O54   O     O_3   0.085541 0.063145 0.427763 -0.552779
O55   O     O_3   0.445572 0.458322 0.559860 -0.539103
O56   O     O_R   0.443390 0.252880 0.676020 -0.501091
O57   O     O_3   0.585575 0.563192 0.427784 -0.551982
O58   O     O_3   0.820581 0.740829 0.112640 -0.717341
O59   O     O_3   0.122425 0.959118 0.915409 -0.679111
O60   O     O_3   0.376170 0.472077 0.082136 -0.696081
O61   O     O_3   0.677286 0.648204 0.949439 -0.707385
O62   O     O_3   0.681458 0.115093 0.883162 -0.679784
O63   O     O_3   0.407568 0.766802 0.066980 -0.693140
O64   O     O_3   0.098590 0.242540 0.935015 -0.673568
O65   O     O_3   0.914212 0.275299 0.067436 -0.686327
O66   O     O_3   0.657625 0.176483 0.019948 -0.683388
O67   O     O_R   0.056610 0.752880 0.323980 -0.530366
O68   O     O_3   0.409640 0.766819 0.927082 -0.662180
O69   O     O_3   0.101391 0.230409 0.077876 -0.652825
O70   O     O_3   0.919604 0.311472 0.926925 -0.636866
O71   O     O_R   0.943390 0.752880 0.676020 -0.498842
O72   O     O_R   0.545950 0.051210 0.330860 -0.503381

loop_
_geom_bond_atom_site_label_1
_geom_bond_atom_site_label_2
_ccdc_geom_bond_type
C4    O40   A    
C8    O72   A    
C55   H36   S    
C38   H74   S    
C107  C129  S    
C105  C131  A    
C106  C132  A    
C56   O16   A    
C10   O3    A    
C12   C130  S    
Cr6   O42   S    
Cr4   O35   S    
C95   C99   A    
C94   H8    S    
C15   O7    A    
Cr3   O11   S    
C35   C42   A    
C50   C72   A    
C15   C132  S    
C127  H19   S    
C48   C65   S    
C97   C115  A    
C117  C126  S    
Cr9   O56   S    
Cr1   O14   S    
C119  C128  S    
C21   C22   A    
Cr2   O6    S    
C96   C114  A    
Cr7   O17   S    
Cr11  O26   S    
C87   H56   S    
C2    C111  A    
C40   C58   A    
C47   C64   S    
C91   H5    S    
C62   C66   S    
C20   C28   A    
H77   O60   S    
H82   O64   S    
C82   C91   S    
C108  C113  A    
C19   C23   A    
C37   C38   S    
C39   C56   S    
C3    C112  A    
C9    C77   S    
H86   O69   S    
C36   H68   S    
C67   O17   A    
C1    C41   S    
Cr4   O8    S    
Cr9   O19   S    
C5    O41   A    
Cr6   O23   S    
C53   C71   A    
C37   H70   S    
C16   O39   A    
C43   C61   S    
Cr6   O38   S    
C27   H12   S    
C76   O30   A    
C19   C76   S    
H49   O49   S    
C48   C70   A    
H52   O52   S    
C53   C58   A    
C73   O27   A    
H75   O58   S    
C74   O28   A    
Cr9   O10   S    
C72   C125  S    
C60   C64   S    
C44   C62   S    
C32   H59   S    
C125  O35   A    
Cr7   O39   S    
C77   C82   A    
H79   O61   S    
C22   C89   A    
C51   C55   A    
C84   C93   S    
C81   C88   A    
C73   O22   A    
C61   C65   S    
C49   C71   A    
C103  C107  A    
C51   C69   A    
Cr12  O31   S    
C114  H10   S    
Cr6   O11   S    
C75   O29   A    
C66   O69   S    
C91   H3    S    
C8    O45   A    
C14   O37   A    
C102  C119  S    
C33   H61   S    
C101  C118  S    
C32   O54   S    
C128  H20   S    
C112  O52   S    
C47   C69   A    
C10   O67   A    
C11   O71   A    
Cr10  O67   S    
C30   O53   S    
C108  C130  A    
C23   C100  A    
C128  H25   S    
C66   H47   S    
Cr7   O43   S    
C124  O23   A    
C54   C59   A    
C49   C66   S    
C105  C127  S    
H84   O66   S    
C120  C129  S    
C17   C27   A    
C129  H26   S    
Cr8   O18   S    
C52   C57   A    
C91   C92   S    
C20   C75   S    
C12   O36   A    
C99   C117  S    
C62   O64   S    
C35   C67   S    
C123  O32   A    
Cr2   O2    S    
C59   H39   S    
C64   H44   S    
C109  C114  A    
C30   H54   S    
C5    C97   S    
C18   C73   S    
C118  C127  S    
C52   O59   S    
C117  O53   S    
C112  C116  A    
C119  O55   S    
C68   O70   S    
C63   C68   S    
C33   H63   S    
C117  H14   S    
C18   C22   A    
Cr9   O24   S    
C5    O46   A    
C46   C63   S    
C45   O19   A    
Cr4   O4    S    
Cr11  O48   S    
C34   C36   S    
C6    O42   A    
C25   C111  A    
C62   H40   S    
C40   C44   A    
C16   O8    A    
C37   O57   S    
Cr11  O21   S    
H50   O50   S    
C81   C85   A    
C3    C16   S    
C94   H2    S    
C92   H4    S    
C111  H30   S    
C103  C120  S    
C18   C26   A    
C80   C84   A    
C31   H55   S    
C26   C27   A    
C120  O57   S    
C28   C29   A    
Cr9   O46   S    
C30   C31   S    
Cr5   O15   S    
C20   C25   A    
C98   C103  A    
C106  C128  S    
C124  O33   A    
C61   H43   S    
H85   O68   S    
Cr8   O9    S    
Cr12  O27   S    
Cr2   O10   S    
C31   H58   S    
C13   C78   A    
C75   O25   A    
C127  H24   S    
C63   H41   S    
C21   C78   A    
C109  C131  A    
C8    C79   S    
C110  C132  A    
C15   O38   A    
C97   C102  A    
Cr5   O37   S    
C99   C104  A    
C104  C130  A    
C96   C101  A    
C38   H73   S    
C118  H15   S    
C6    O47   A    
C14   C131  S    
C2    C122  A    
C40   C45   S    
C63   O65   S    
Cr10  O20   S    
Cr4   O30   S    
C84   C85   A    
C38   H72   S    
C14   O6    A    
C86   C87   A    
Cr1   O40   S    
C34   H64   S    
Cr10  O25   S    
C32   H60   S    
Cr12  O9    S    
Cr1   O1    S    
Cr5   O10   S    
H76   O59   S    
C12   O5    A    
C88   C90   A    
C121  O1    A    
C29   H34   S    
C92   H6    S    
Cr3   O3    S    
C93   H7    S    
Cr8   O22   S    
C7    O48   A    
C19   C29   A    
C11   O4    A    
Cr2   O32   S    
C9    O2    A    
Cr8   O45   S    
C126  H22   S    
C10   C81   S    
C129  H21   S    
C58   H38   S    
C32   C33   S    
C79   C83   A    
C109  O50   S    
C13   H33   S    
C56   O20   A    
C78   H27   S    
Cr12  O5    S    
C17   C21   A    
C118  O54   S    
C11   C80   S    
C65   H46   S    
C82   C83   A    
C50   C68   S    
C110  C115  A    
C37   H71   S    
C79   C86   A    
Cr10  O11   S    
C44   C49   A    
C93   C94   S    
C4    C98   S    
C125  O34   A    
C24   C89   A    
C45   O15   A    
C57   H37   S    
C83   C92   S    
C90   H78   S    
C7    O43   A    
C1    O14   A    
C68   H48   S    
C65   O68   S    
C122  H31   S    
C39   C57   A    
H51   O51   S    
C28   H23   S    
Cr1   O9    S    
Cr5   O12   S    
C70   C123  S    
C60   O62   S    
C119  H16   S    
C61   O63   S    
C88   H67   S    
C41   C46   A    
H83   O65   S    
C43   C48   A    
Cr11  O71   S    
C2    H32   S    
Cr12  O72   S    
C123  O12   A    
C67   O21   A    
C101  C105  A    
C33   H62   S    
C35   C55   A    
C4    O44   A    
C71   C124  S    
C52   C70   A    
C41   C59   A    
C51   O58   S    
C42   C60   S    
C1    O18   A    
C39   C43   A    
C110  O51   S    
C3    C107  A    
H81   O63   S    
C76   O26   A    
Cr11  O13   S    
C13   C24   A    
C26   H1    S    
C53   O60   S    
C34   H65   S    
C36   H69   S    
C85   C94   S    
C98   C116  A    
C69   C121  S    
C34   O55   S    
C24   H35   S    
C104  C126  S    
C77   C87   A    
C120  H17   S    
Cr7   O34   S    
Cr3   O29   S    
C6    C96   S    
C64   O66   S    
C17   C74   S    
H80   O62   S    
C93   H88   S    
Cr1   O36   S    
C86   H45   S    
C60   H42   S    
C9    O56   A    
C115  H11   S    
C89   H28   S    
C113  H9    S    
Cr10  O47   S    
C7    C95   S    
C46   C50   A    
Cr8   O44   S    
C116  H13   S    
C121  O31   A    
C95   C113  A    
Cr5   O41   S    
Cr3   O7    S    
Cr4   O13   S    
C102  C106  A    
C100  C122  A    
C42   C47   A    
C23   C25   A    
C80   C90   A    
C31   H57   S    
Cr6   O16   S    
C108  O49   S    
C54   O61   S    
C30   H53   S    
C54   C72   A    
Cr2   O28   S    
C100  H29   S    
Cr3   O33   S    
C126  H18   S    
H87   O70   S    
C74   O24   A    
C36   H66   S    
Cr7   O13   S    
