data_mof_unit_2166.cif
_audit_creation_date              2012-12-11T15:50:30-0500
_audit_creation_method            fapswitch 2.2
_symmetry_space_group_name_H-M    P1
_symmetry_Int_Tables_number       1
_space_group_crystal_system       triclinic
_cell_length_a                    18.978657
_cell_length_b                    11.102668
_cell_length_c                    18.725045
_cell_angle_alpha                 90.377448
_cell_angle_beta                  90.441975
_cell_angle_gamma                 89.772701
_cell_volume                      3945.39077124

loop_
_atom_site_label
_atom_site_type_symbol
_atom_type_description
_atom_site_fract_x
_atom_site_fract_y
_atom_site_fract_z
_atom_type_partial_charge
C1    C     C_R   0.271630 0.043363 0.853248 0.552766
C2    C     C_R   0.727310 0.040564 0.145572 0.541780
C3    C     C_R   0.771631 0.543361 0.853249 0.552651
C4    C     C_R   0.227311 0.540564 0.145573 0.541475
C5    C     C_3   0.552912 0.771056 0.963916 -0.157106
C6    C     C_3   0.503695 0.716092 0.020157 -0.146004
C7    C     C_3   0.052922 0.271055 0.963911 -0.157517
C8    C     C_3   0.003704 0.216091 0.020152 -0.145878
C9    C     C_R   0.241343 0.569376 0.071011 0.016932
C10   C     C_R   0.745840 0.600681 0.918817 0.016950
C11   C     C_R   0.741343 0.069377 0.071012 0.016821
C12   C     C_R   0.245839 0.100682 0.918815 0.016126
C13   C     C_R   0.292094 0.505473 0.032425 0.004219
C14   C     C_R   0.689679 0.553993 0.957829 -0.005301
C15   C     C_R   0.792095 0.005476 0.032425 0.004099
C16   C     C_R   0.189679 0.053992 0.957828 -0.005572
C17   C     C_R   0.294440 0.509626 0.958400 0.002449
C18   C     C_R   0.679854 0.585602 0.029085 0.016780
C19   C     C_R   0.794441 0.009627 0.958400 0.002584
C20   C     C_R   0.179856 0.085599 0.029085 0.016952
C21   C     C_R   0.187894 0.626770 0.957882 -0.160175
C22   C     C_R   0.778417 0.719498 0.023092 -0.127355
C23   C     C_R   0.687893 0.126768 0.957883 -0.159760
C24   C     C_R   0.278418 0.219496 0.023092 -0.127303
C25   C     C_R   0.187368 0.626729 0.031870 -0.164731
C26   C     C_R   0.786197 0.692294 0.950843 -0.123760
C27   C     C_R   0.687367 0.126728 0.031871 -0.165011
C28   C     C_R   0.286197 0.192295 0.950842 -0.124062
C29   C     C_3   0.370389 0.504253 0.039369 -0.284589
C30   C     C_3   0.669272 0.426722 0.970219 -0.260564
C31   C     C_3   0.870391 0.004257 0.039368 -0.284609
C32   C     C_3   0.169274 0.926720 0.970218 -0.260461
C33   C     C_3   0.372951 0.498862 0.958002 -0.273475
C34   C     C_3   0.657779 0.460826 0.047866 -0.251715
C35   C     C_3   0.872951 0.998863 0.958002 -0.273610
C36   C     C_3   0.157782 0.960822 0.047865 -0.251669
C37   C     C_R   0.245955 0.581015 0.920341 0.015622
C38   C     C_R   0.727631 0.661956 0.064239 0.027406
C39   C     C_R   0.745955 0.081016 0.920341 0.016527
C40   C     C_R   0.227633 0.161952 0.064239 0.027471
C41   C     C_R   0.493530 0.833578 0.420149 0.018177
C42   C     C_R   0.457689 0.827148 0.565058 0.023091
C43   C     C_R   0.000565 0.336706 0.423134 0.017556
C44   C     C_R   0.984483 0.327735 0.571323 0.027275
C45   C     C_R   0.468600 0.822460 0.855876 0.566393
C46   C     C_R   0.534033 0.820679 0.142795 0.570764
C47   C     C_R   0.968605 0.322460 0.855874 0.558230
C48   C     C_R   0.034038 0.320679 0.142792 0.571052
C49   C     C_R   0.458825 0.733698 0.448394 0.027786
C50   C     C_R   0.442959 0.729677 0.520578 0.022963
C51   C     C_R   0.965047 0.240832 0.454082 0.022770
C52   C     C_R   0.958135 0.236567 0.527348 0.049243
C53   C     C_R   0.489676 0.929417 0.536701 -0.155255
C54   C     C_R   0.509370 0.930784 0.465353 -0.172769
C55   C     C_R   0.014275 0.428784 0.540688 -0.170778
C56   C     C_R   0.023969 0.432006 0.467111 -0.168665
C57   C     C_3   0.485720 0.607158 0.449018 -0.270801
C58   C     C_3   0.474078 0.606743 0.527928 -0.270646
C59   C     C_3   0.982994 0.109669 0.450138 -0.274514
C60   C     C_3   0.979608 0.108070 0.530114 -0.273815
C61   C     C_R   0.239602 0.570278 0.429297 0.024415
C62   C     C_R   0.762825 0.562208 0.569525 0.024296
C63   C     C_R   0.738123 0.065481 0.430290 0.024757
C64   C     C_R   0.261148 0.067270 0.570800 0.021978
C65   C     C_R   0.181659 0.611661 0.467428 0.011086
C66   C     C_R   0.823072 0.578154 0.528466 0.031871
C67   C     C_R   0.680147 0.106587 0.468367 0.013432
C68   C     C_R   0.321118 0.085960 0.529965 0.027598
C69   C     C_R   0.184032 0.617763 0.539942 0.013536
C70   C     C_R   0.817763 0.589607 0.455877 0.015946
C71   C     C_R   0.682685 0.113742 0.540959 0.017695
C72   C     C_R   0.316230 0.095468 0.457396 0.017018
C73   C     C_R   0.295017 0.513599 0.541408 -0.162385
C74   C     C_R   0.695303 0.534816 0.461220 -0.170183
C75   C     C_R   0.794488 0.010817 0.542194 -0.161736
C76   C     C_R   0.193922 0.039420 0.462380 -0.168797
C77   C     C_R   0.295459 0.515757 0.466852 -0.157563
C78   C     C_R   0.699220 0.534345 0.535402 -0.178883
C79   C     C_R   0.793891 0.010582 0.467695 -0.159208
C80   C     C_R   0.197717 0.038723 0.536559 -0.178608
C81   C     C_3   0.142354 0.727849 0.460619 -0.269763
C82   C     C_3   0.875884 0.676437 0.535092 -0.255245
C83   C     C_3   0.640979 0.222486 0.460543 -0.268364
C84   C     C_3   0.371611 0.187748 0.536288 -0.256531
C85   C     C_3   0.146753 0.737051 0.541337 -0.116230
C86   C     C_3   0.866344 0.695562 0.455707 -0.124178
C87   C     C_3   0.645143 0.233214 0.541185 -0.116786
C88   C     C_3   0.363728 0.202811 0.456403 -0.121275
C89   C     C_R   0.260115 0.635129 0.851001 0.544634
C90   C     C_R   0.725470 0.685213 0.141334 0.568963
C91   C     C_R   0.760116 0.135130 0.851002 0.543964
C92   C     C_R   0.225470 0.185212 0.141334 0.569105
C93   C     C_R   0.243172 0.577932 0.577783 0.013675
C94   C     C_R   0.753017 0.575467 0.421720 0.010797
C95   C     C_R   0.742674 0.075890 0.578497 0.015419
C96   C     C_R   0.251975 0.078823 0.422867 0.010372
C97   C     C_R   0.272538 0.042959 0.645005 0.536389
C98   C     C_R   0.727164 0.042443 0.355560 0.554721
C99   C     C_R   0.773108 0.541549 0.644364 0.545439
C100  C     C_R   0.227616 0.543703 0.355070 0.553793
C101  C     C_R   0.440128 0.819424 0.639894 0.564996
C102  C     C_R   0.529773 0.823586 0.352517 0.556044
C103  C     C_R   0.967857 0.322540 0.646133 0.543381
C104  C     C_R   0.030518 0.324074 0.352849 0.557284
C105  C     C_R   0.258862 0.634306 0.645254 0.542047
C106  C     C_R   0.740435 0.635183 0.355024 0.565596
C107  C     C_R   0.758809 0.134101 0.645356 0.550304
C108  C     C_R   0.240205 0.135801 0.355302 0.565489
C109  C     C_3   0.452223 0.891819 0.034530 0.105854
C110  C     C_3   0.500629 0.946954 0.977783 0.122535
C111  C     C_3   0.952232 0.391817 0.034524 0.105865
C112  C     C_3   0.000639 0.446953 0.977777 0.122643
C113  C     C_3   0.439709 0.781300 0.986528 -0.137507
C114  C     C_3   0.564929 0.882929 0.012190 -0.130076
C115  C     C_3   0.939720 0.281299 0.986522 -0.136406
C116  C     C_3   0.064939 0.382928 0.012185 -0.130446
C117  C     C_3   0.489449 0.834606 0.930597 0.042642
C118  C     C_3   0.515157 0.827396 0.067478 0.042457
C119  C     C_3   0.989459 0.334605 0.930592 0.044489
C120  C     C_3   0.015165 0.327396 0.067474 0.042280
Cr1   Cr    Cr6+3 0.229640 0.835880 0.747370 0.993271
Cr2   Cr    Cr6+3 0.770360 0.835880 0.252630 1.003648
Cr3   Cr    Cr6+3 0.729640 0.335880 0.747370 0.999406
Cr4   Cr    Cr6+3 0.270360 0.335880 0.252630 1.003368
Cr5   Cr    Cr6+3 0.387390 0.989720 0.750850 1.030455
Cr6   Cr    Cr6+3 0.612610 0.989720 0.249150 1.008639
Cr7   Cr    Cr6+3 0.887390 0.489720 0.750850 1.034778
Cr8   Cr    Cr6+3 0.112610 0.489720 0.249150 1.008289
Cr9   Cr    Cr6+3 0.385770 0.677220 0.749340 0.997242
Cr10  Cr    Cr6+3 0.614230 0.677220 0.250660 1.005125
Cr11  Cr    Cr6+3 0.885770 0.177220 0.749340 1.001209
Cr12  Cr    Cr6+3 0.114230 0.177220 0.250660 1.004649
H1    H     H_    0.384968 0.751467 0.975885 0.126609
H2    H     H_    0.617321 0.920655 0.025187 0.133621
H3    H     H_    0.884978 0.251466 0.975879 0.126558
H4    H     H_    0.117330 0.420653 0.025183 0.133620
H5    H     H_    0.504978 0.003265 0.570964 0.123283
H6    H     H_    0.543447 0.001816 0.447391 0.133568
H7    H     H_    0.033994 0.499860 0.574252 0.110867
H8    H     H_    0.055721 0.503115 0.445532 0.141250
H9    H     H_    0.036556 0.089374 0.430974 0.159744
H10   H     H_    0.938938 0.048339 0.551489 0.145375
H11   H     H_    0.542059 0.598163 0.436044 0.159012
H12   H     H_    0.437592 0.536502 0.544936 0.135776
H13   H     H_    0.450173 0.547208 0.418243 0.124401
H14   H     H_    0.524269 0.609394 0.558932 0.144362
H15   H     H_    0.940968 0.057622 0.422993 0.125567
H16   H     H_    0.032278 0.100149 0.555871 0.128344
H17   H     H_    0.337448 0.472001 0.570785 0.112268
H18   H     H_    0.645576 0.515531 0.435577 0.125451
H19   H     H_    0.837939 0.970739 0.571016 0.112606
H20   H     H_    0.144164 0.020415 0.436717 0.126394
H21   H     H_    0.339307 0.477141 0.438566 0.108301
H22   H     H_    0.652840 0.514955 0.565985 0.110597
H23   H     H_    0.837163 0.970619 0.439278 0.106779
H24   H     H_    0.151462 0.017990 0.566971 0.108404
H25   H     H_    0.088610 0.715289 0.439107 0.130298
H26   H     H_    0.927018 0.638447 0.552272 0.141472
H27   H     H_    0.587549 0.209001 0.438432 0.130357
H28   H     H_    0.423081 0.155029 0.555509 0.135131
H29   H     H_    0.173645 0.797009 0.432534 0.134647
H30   H     H_    0.856329 0.753237 0.567767 0.120348
H31   H     H_    0.672402 0.291158 0.432157 0.134818
H32   H     H_    0.349434 0.263982 0.567539 0.119701
H33   H     H_    0.182505 0.810424 0.558416 0.182724
H34   H     H_    0.836549 0.779023 0.445399 0.165288
H35   H     H_    0.680724 0.307163 0.557691 0.181935
H36   H     H_    0.333692 0.285118 0.443874 0.167472
H37   H     H_    0.593473 0.724654 0.931583 0.133428
H38   H     H_    0.506891 0.621202 0.038053 0.135521
H39   H     H_    0.093482 0.224656 0.931576 0.132473
H40   H     H_    0.006899 0.121201 0.038048 0.135480
H41   H     H_    0.146454 0.676086 0.930963 0.175529
H42   H     H_    0.816564 0.776584 0.048558 0.157343
H43   H     H_    0.646453 0.176082 0.930963 0.175796
H44   H     H_    0.316565 0.276581 0.048558 0.157303
H45   H     H_    0.143175 0.670011 0.057986 0.170295
H46   H     H_    0.829353 0.732898 0.922586 0.162140
H47   H     H_    0.643173 0.170008 0.057986 0.170235
H48   H     H_    0.329351 0.232901 0.922584 0.162112
H49   H     H_    0.892182 0.922713 0.065477 0.149557
H50   H     H_    0.214608 0.864611 0.962422 0.166399
H51   H     H_    0.392180 0.422709 0.065477 0.149455
H52   H     H_    0.714605 0.364611 0.962425 0.166155
H53   H     H_    0.389192 0.589609 0.063588 0.149798
H54   H     H_    0.619873 0.402159 0.941472 0.153287
H55   H     H_    0.889194 0.089613 0.063586 0.149765
H56   H     H_    0.119875 0.902157 0.941472 0.153173
H57   H     H_    0.400298 0.573677 0.931917 0.176454
H58   H     H_    0.601561 0.456903 0.063843 0.139373
H59   H     H_    0.900299 0.073675 0.931916 0.176629
H60   H     H_    0.101564 0.956896 0.063844 0.139399
H61   H     H_    0.390654 0.409677 0.937844 0.149827
H62   H     H_    0.695224 0.415588 0.085076 0.175319
H63   H     H_    0.890654 0.909676 0.937845 0.149830
H64   H     H_    0.195228 0.915584 0.085074 0.175309
O1    O     O_R   0.214300 0.709080 0.827500 -0.523046
O2    O     O_R   0.785700 0.709080 0.172500 -0.488779
O3    O     O_R   0.714300 0.209080 0.827500 -0.523896
O4    O     O_R   0.285700 0.209080 0.172500 -0.488821
O5    O     O_R   0.445900 0.919370 0.676500 -0.511624
O6    O     O_R   0.554100 0.919370 0.323500 -0.508850
O7    O     O_R   0.945900 0.419370 0.676500 -0.506655
O8    O     O_R   0.054100 0.419370 0.323500 -0.510532
O9    O     O_R   0.456660 0.717710 0.669820 -0.520713
O10   O     O_R   0.543340 0.717710 0.330180 -0.523740
O11   O     O_R   0.956660 0.217710 0.669820 -0.524035
O12   O     O_R   0.043340 0.217710 0.330180 -0.523822
O13   O     O_R   0.320590 0.625770 0.672930 -0.518178
O14   O     O_R   0.679410 0.625770 0.327070 -0.506438
O15   O     O_R   0.820590 0.125770 0.672930 -0.506125
O16   O     O_R   0.179410 0.125770 0.327070 -0.506838
O17   O     O_3   0.334270 0.834280 0.749190 -0.272458
O18   O     O_3   0.665730 0.834280 0.250810 -0.281728
O19   O     O_3   0.834270 0.334280 0.749190 -0.255595
O20   O     O_3   0.165730 0.334280 0.250810 -0.281625
O21   O     O_R   0.236190 0.958390 0.823150 -0.502346
O22   O     O_R   0.763810 0.958390 0.176850 -0.516766
O23   O     O_R   0.736190 0.458390 0.823150 -0.504170
O24   O     O_R   0.263810 0.458390 0.176850 -0.516916
O25   O     O_R   0.332090 0.075280 0.831290 -0.498592
O26   O     O_R   0.667910 0.075280 0.168710 -0.523102
O27   O     O_R   0.832090 0.575280 0.831290 -0.498892
O28   O     O_R   0.167910 0.575280 0.168710 -0.523162
O29   O     O_R   0.446280 0.918040 0.826620 -0.467052
O30   O     O_R   0.553720 0.918040 0.173380 -0.485990
O31   O     O_R   0.946280 0.418040 0.826620 -0.471784
O32   O     O_R   0.053720 0.418040 0.173380 -0.485600
O33   O     O_R   0.457080 0.716270 0.831760 -0.530833
O34   O     O_R   0.542920 0.716270 0.168240 -0.532990
O35   O     O_R   0.957080 0.216270 0.831760 -0.534397
O36   O     O_R   0.042920 0.216270 0.168240 -0.532891
O37   O     O_R   0.320980 0.624440 0.823040 -0.507460
O38   O     O_R   0.679020 0.624440 0.176960 -0.498370
O39   O     O_R   0.820980 0.124440 0.823040 -0.508375
O40   O     O_R   0.179020 0.124440 0.176960 -0.498310
O41   O     O_R   0.213880 0.710510 0.665560 -0.534640
O42   O     O_R   0.786120 0.710510 0.334440 -0.526402
O43   O     O_R   0.713880 0.210510 0.665560 -0.534977
O44   O     O_R   0.286120 0.210510 0.334440 -0.525706
O45   O     O_R   0.235800 0.959720 0.673040 -0.527455
O46   O     O_R   0.764200 0.959720 0.326960 -0.516727
O47   O     O_R   0.735800 0.459720 0.673040 -0.526452
O48   O     O_R   0.264200 0.459720 0.326960 -0.516897
O49   O     O_R   0.331670 0.076720 0.669350 -0.527741
O50   O     O_R   0.668330 0.076720 0.330650 -0.526848
O51   O     O_R   0.831670 0.576720 0.669350 -0.522970
O52   O     O_R   0.168330 0.576720 0.330650 -0.527833
C121  C     C_3   0.077468 0.728961 0.583508 -0.245834
C122  C     C_3   0.058423 0.848195 0.619307 -0.312689
C123  C     C_3   0.997438 0.835725 0.671319 -0.435941
H65   H     H_    0.949984 0.801022 0.643547 0.147820
H66   H     H_    0.012096 0.773611 0.715340 0.162229
H67   H     H_    0.984631 0.925368 0.694635 0.152266
H68   H     H_    0.104339 0.884187 0.649538 0.194316
H69   H     H_    0.043272 0.910834 0.576641 0.147040
H70   H     H_    0.034151 0.702061 0.547391 0.126629
H71   H     H_    0.083211 0.660734 0.626401 0.174482
C124  C     C_3   0.930913 0.676789 0.407589 -0.233018
C125  C     C_3   0.952527 0.793836 0.370522 -0.318118
C126  C     C_3   0.000388 0.769022 0.306833 -0.424852
H72   H     H_    0.046690 0.714066 0.322827 0.173512
H73   H     H_    0.970806 0.720071 0.264305 0.171240
H74   H     H_    0.019209 0.855649 0.284786 0.135354
H75   H     H_    0.905427 0.843282 0.350521 0.187155
H76   H     H_    0.980615 0.852276 0.409697 0.141842
H77   H     H_    0.975772 0.645572 0.439797 0.128526
H78   H     H_    0.919153 0.606735 0.366435 0.185639
C127  C     C_3   0.575117 0.227574 0.582381 -0.245993
C128  C     C_3   0.560087 0.345019 0.622708 -0.307947
C129  C     C_3   0.496422 0.334984 0.671519 -0.433367
H79   H     H_    0.447956 0.319337 0.639701 0.143506
H80   H     H_    0.503894 0.260395 0.710097 0.164137
H81   H     H_    0.489710 0.420470 0.701850 0.152211
H82   H     H_    0.606338 0.370581 0.656027 0.200632
H83   H     H_    0.549735 0.416230 0.583147 0.143434
H84   H     H_    0.531355 0.210033 0.544988 0.124676
H85   H     H_    0.577361 0.153242 0.621894 0.172135
C130  C     C_3   0.429211 0.181468 0.409908 -0.232641
C131  C     C_3   0.451790 0.295145 0.370117 -0.317669
C132  C     C_3   0.497380 0.264583 0.305550 -0.422961
H86   H     H_    0.543332 0.208608 0.321425 0.173229
H87   H     H_    0.465895 0.214623 0.264891 0.173347
H88   H     H_    0.516818 0.348994 0.281207 0.134785
H89   H     H_    0.405218 0.346731 0.350797 0.186106
H90   H     H_    0.482605 0.352663 0.407489 0.140780
H91   H     H_    0.473340 0.153732 0.443951 0.123644
H92   H     H_    0.418691 0.107886 0.370605 0.185656
I1    I     I_    0.372633 0.970284 0.099193 -0.376692
I2    I     I_    0.492589 0.131198 0.946076 -0.445383
I3    I     I_    0.872628 0.470276 0.099172 -0.376205
I4    I     I_    0.992600 0.631192 0.946061 -0.447357

loop_
_geom_bond_atom_site_label_1
_geom_bond_atom_site_label_2
_ccdc_geom_bond_type
Cr4   O24   S    
C57   H13   S    
Cr6   O50   S    
C73   C93   A    
Cr8   O28   S    
C75   C95   A    
C48   C120  S    
Cr6   O6    S    
C132  H88   S    
C53   H5    S    
C104  O8    A    
C16   C20   A    
C63   C98   S    
Cr3   O19   S    
C97   O49   A    
C5    C6    S    
C56   H8    S    
C71   C95   A    
C129  H79   S    
C22   C38   A    
C29   C33   S    
C111  I3    S    
C33   H57   S    
C9    C13   A    
C131  H89   S    
C72   C88   S    
C11   C15   A    
C87   H35   S    
C12   C16   A    
C88   H36   S    
Cr12  O20   S    
Cr4   O48   S    
C34   H62   S    
C96   C108  S    
C59   C60   S    
C113  H1    S    
C31   H49   S    
Cr6   O30   S    
C41   C49   A    
C109  C118  S    
Cr11  O19   S    
C51   C52   A    
C7    C119  S    
C30   C34   S    
Cr11  O39   S    
C92   O40   A    
Cr1   O17   S    
C66   C82   S    
C11   C27   A    
C68   C72   A    
C45   O29   A    
Cr12  O40   S    
C64   C97   S    
C21   H41   S    
C125  H76   S    
C24   H44   S    
C84   C88   S    
C38   C90   S    
C69   C93   A    
C85   H33   S    
C18   C38   A    
C101  O5    A    
C76   C96   A    
C44   C55   A    
Cr7   O19   S    
C66   C70   A    
C20   C40   A    
Cr10  O18   S    
C88   C130  S    
C98   O46   A    
C79   H23   S    
C62   C99   S    
C72   C96   A    
C61   C65   A    
C107  O15   A    
Cr9   O37   S    
C2    O22   A    
Cr10  O34   S    
C19   C35   S    
C60   H16   S    
C75   C79   A    
C59   H15   S    
C67   C83   S    
C111  C112  S    
C121  H71   S    
Cr11  O11   S    
Cr3   O47   S    
C55   H7    S    
C7    C8    S    
C53   C54   A    
Cr1   O45   S    
C121  C122  S    
C64   C68   A    
C1    O25   A    
C103  O11   A    
C42   C53   A    
C126  H72   S    
C82   H26   S    
C91   O39   A    
C49   C57   S    
C41   C102  S    
C89   O37   A    
C43   C104  S    
C124  H78   S    
C52   C60   S    
C77   H21   S    
C61   C77   A    
C110  C114  S    
C100  O48   A    
C44   C52   A    
C1    C12   S    
Cr5   O17   S    
C2    C11   S    
C108  O16   A    
C44   C103  S    
Cr3   O43   S    
C122  H69   S    
C62   C66   A    
C34   H58   S    
C131  C132  S    
C10   C14   A    
C132  H87   S    
C123  H67   S    
C82   H30   S    
C116  C120  S    
C130  H91   S    
C7    C116  S    
C36   H64   S    
Cr10  O10   S    
Cr8   O32   S    
C114  H2    S    
C127  H84   S    
C105  O41   A    
Cr2   O2    S    
C102  O10   A    
C19   C39   A    
C42   C50   A    
C113  C117  S    
Cr8   O20   S    
C115  C119  S    
Cr11  O15   S    
C61   C100  S    
C99   O51   A    
C42   C101  S    
C112  C116  S    
C69   C85   S    
C6    H38   S    
Cr11  O35   S    
C48   O32   A    
C21   C25   A    
C35   H59   S    
C36   H60   S    
Cr1   O21   S    
C128  H82   S    
C62   C78   A    
C76   C80   A    
C125  C126  S    
C126  H74   S    
C15   C31   S    
Cr5   O25   S    
C16   C32   S    
C89   O1    A    
C13   C17   A    
C57   C58   S    
Cr2   O42   S    
C115  H3    S    
C29   H53   S    
Cr9   O17   S    
C131  H90   S    
C58   H12   S    
C47   O31   A    
C59   H9    S    
C49   C50   A    
C4    C9    S    
C92   O4    A    
C81   C85   S    
C57   H11   S    
C129  H81   S    
C83   C87   S    
C55   C56   A    
C7    H39   S    
C64   C80   A    
C74   C94   A    
Cr5   O49   S    
C86   H34   S    
C84   H28   S    
C9    C25   A    
C123  H65   S    
C109  I1    S    
C15   C19   A    
Cr5   O5    S    
C12   C28   A    
C13   C29   S    
C70   C94   A    
C27   H47   S    
C98   O50   A    
Cr4   O44   S    
C25   H45   S    
C23   H43   S    
C76   H20   S    
C45   C117  S    
C2    O26   A    
C105  O13   A    
C46   C118  S    
Cr8   O8    S    
C39   C91   S    
C73   C77   A    
Cr3   O23   S    
Cr6   O18   S    
C60   H10   S    
C4    O24   A    
C3    O27   A    
C130  C131  S    
Cr2   O22   S    
C35   H63   S    
C33   H61   S    
C127  C128  S    
Cr7   O31   S    
C46   O34   A    
C17   C33   S    
Cr5   O29   S    
C110  C117  S    
C81   H25   S    
C68   C84   S    
C24   C28   A    
C78   H22   S    
C122  C123  S    
C82   C86   S    
C107  O43   A    
Cr10  O38   S    
Cr2   O18   S    
C50   C58   S    
C100  O52   A    
Cr9   O9    S    
C65   C81   S    
C58   H14   S    
C95   C107  S    
C71   C87   S    
C31   C35   S    
Cr7   O51   S    
C106  O42   A    
C32   C36   S    
Cr3   O3    S    
C83   H31   S    
C73   H17   S    
C81   H29   S    
C121  H70   S    
C112  C119  S    
C116  H4    S    
Cr4   O4    S    
C37   C89   S    
C102  O6    A    
C109  C110  S    
C43   C51   A    
C65   C69   A    
C67   C71   A    
C104  O12   A    
C99   O47   A    
C124  H77   S    
C97   O45   A    
C20   C36   S    
C21   C37   A    
C3    O23   A    
C22   C26   A    
C5    H37   S    
C128  C129  S    
C1    O21   A    
C125  H75   S    
Cr7   O7    S    
C8    H40   S    
C5    C114  S    
C14   C18   A    
Cr12  O16   S    
Cr2   O46   S    
C63   C79   A    
C85   C121  S    
C30   H54   S    
C32   H50   S    
C23   C39   A    
C123  H66   S    
C47   O35   A    
Cr9   O33   S    
C90   O38   A    
C8    C115  S    
C93   C105  S    
C108  O44   A    
C23   C27   A    
C74   C78   A    
C84   H32   S    
Cr7   O27   S    
C91   O3    A    
C10   C26   A    
C47   C119  S    
C110  I2    S    
C45   O33   A    
C14   C30   S    
Cr12  O36   S    
C22   H42   S    
C80   H24   S    
C26   H46   S    
C86   C124  S    
C63   C67   A    
C32   H56   S    
Cr8   O52   S    
C128  H83   S    
C75   H19   S    
C126  H73   S    
C132  H86   S    
C4    O28   A    
C5    C117  S    
C111  C120  S    
C6    C113  S    
C28   H48   S    
C46   O30   A    
C17   C37   A    
C40   C92   S    
C18   C34   S    
Cr1   O1    S    
C114  C118  S    
C101  O9    A    
Cr12  O12   S    
C112  I4    S    
Cr10  O14   S    
C51   C59   S    
C124  C125  S    
C70   C86   S    
C8    C120  S    
Cr4   O20   S    
C122  H68   S    
C129  H80   S    
C94   C106  S    
C29   H51   S    
C30   H52   S    
C106  O14   A    
Cr6   O26   S    
C90   O2    A    
C109  C113  S    
C130  H92   S    
C3    C10   S    
C87   C127  S    
C54   H6    S    
Cr1   O41   S    
C24   C40   A    
C127  H85   S    
C103  O7    A    
C41   C54   A    
C48   O36   A    
C43   C56   A    
C83   H27   S    
C74   H18   S    
C111  C115  S    
C31   H55   S    
Cr9   O13   S    
C6    C118  S    
