data_mof_unit_2944.cif
_audit_creation_date              2013-03-05T16:37:42-0500
_audit_creation_method            fapswitch 2.2
_symmetry_space_group_name_H-M    P1
_symmetry_Int_Tables_number       1
_space_group_crystal_system       triclinic
_cell_length_a                    18.496683
_cell_length_b                    18.777017
_cell_length_c                    18.99432
_cell_angle_alpha                 110.072117
_cell_angle_beta                  109.379586
_cell_angle_gamma                 109.115433
_cell_volume                      5068.42175544

loop_
_atom_site_label
_atom_site_type_symbol
_atom_site_description
_atom_site_fract_x
_atom_site_fract_y
_atom_site_fract_z
_atom_type_partial_charge
O1    O     O_R   0.408360 0.551710 0.460090 -0.606127
O2    O     O_R   0.408390 0.448280 0.356670 -0.626686
C1    C     C_R   0.381264 0.501927 0.380231 0.865804
O3    O     O_R   0.591600 0.643340 0.551710 -0.626003
O4    O     O_R   0.591630 0.539900 0.448290 -0.630356
C2    C     C_R   0.620522 0.620137 0.500477 0.858111
Zn1   Zn    Zn3+2 0.499980 0.569070 0.569050 1.020429
Zn2   Zn    Zn3+2 0.500020 0.430930 0.430950 0.973486
O5    O     O_R   0.591610 0.551720 0.643330 -0.577286
O6    O     O_R   0.591640 0.448290 0.539910 -0.631582
O7    O     O_R   0.408370 0.460100 0.551710 -0.592670
O8    O     O_R   0.408400 0.356660 0.448290 -0.624390
C3    C     C_R   0.620825 0.500308 0.619542 0.942328
C4    C     C_R   0.378243 0.380035 0.498313 0.899285
H1    H     H_    0.846278 0.778742 0.884620 0.161242
C5    C     C_R   0.772521 0.802931 0.790362 -0.078384
H2    H     H_    0.745901 0.830524 0.828109 0.173435
C6    C     C_R   0.750531 0.796905 0.709893 -0.071558
H3    H     H_    0.707016 0.820207 0.685714 0.169516
C7    C     C_R   0.784540 0.760377 0.660791 0.087122
C8    C     C_R   0.842185 0.732311 0.693390 -0.185605
H4    H     H_    0.869961 0.705464 0.656545 0.132054
C9    C     C_R   0.864326 0.738788 0.773669 -0.147744
H5    H     H_    0.908893 0.716639 0.797178 0.136227
C10   C     C_R   0.829283 0.773687 0.822226 -0.087986
C11   C     C_R   0.826449 0.814779 0.572758 -0.166380
H6    H     H_    0.887741 0.866460 0.632149 0.171243
C12   C     C_R   0.810530 0.810440 0.493916 -0.050943
C13   C     C_R   0.729565 0.744736 0.416399 0.007027
C14   C     C_R   0.668998 0.681239 0.420524 -0.275398
H7    H     H_    0.607825 0.628075 0.361938 0.151375
C15   C     C_R   0.685639 0.686400 0.499745 -0.081747
C16   C     C_R   0.763472 0.754544 0.576673 -0.014339
C17   C     C_R   0.621997 0.729552 0.282251 -0.131971
H8    H     H_    0.577143 0.727720 0.307401 0.136468
C18   C     C_R   0.596809 0.722356 0.200996 -0.133353
H9    H     H_    0.533139 0.714738 0.164115 0.146653
C19   C     C_R   0.653698 0.725016 0.167363 -0.091884
H10   H     H_    0.634169 0.719529 0.104510 0.155251
C20   C     C_R   0.735917 0.735047 0.215023 -0.092617
H11   H     H_    0.780319 0.737624 0.189288 0.155780
C21   C     C_R   0.761133 0.742138 0.296177 -0.123543
H12   H     H_    0.825328 0.751376 0.332604 0.097745
C22   C     C_R   0.704729 0.739698 0.330958 0.131022
C23   C     C_R   0.432186 0.803148 0.526046 -0.177631
H13   H     H_    0.413263 0.841746 0.565276 0.208153
C24   C     C_R   0.366425 0.721469 0.453181 -0.155187
H14   H     H_    0.298227 0.698605 0.437456 0.210185
C25   C     C_R   0.388636 0.669274 0.401449 0.121839
C26   C     C_R   0.477162 0.700769 0.422156 -0.191870
H15   H     H_    0.494875 0.661789 0.381775 0.120376
C27   C     C_R   0.543038 0.782674 0.494790 -0.185387
H16   H     H_    0.610930 0.805415 0.509525 0.194669
C28   C     C_R   0.521310 0.834469 0.547919 0.367912
C29   C     C_R   0.253852 0.579266 0.258017 -0.214386
H17   H     H_    0.254293 0.639180 0.264580 0.178602
C30   C     C_R   0.187885 0.499126 0.183499 -0.076145
C31   C     C_R   0.185345 0.420398 0.173339 0.014002
C32   C     C_R   0.250661 0.423814 0.239046 -0.259645
H18   H     H_    0.249311 0.363494 0.232117 0.167768
C33   C     C_R   0.316578 0.503853 0.314173 -0.084304
C34   C     C_R   0.318753 0.582704 0.324370 0.021355
C35   C     C_R   0.057300 0.270547 0.101381 -0.219686
H19   H     H_    0.061242 0.286194 0.163470 0.171527
C36   C     C_R   0.993211 0.187403 0.028089 0.359210
C37   C     C_R   0.990196 0.168532 0.948503 -0.193469
H20   H     H_    0.942089 0.105023 0.891068 0.184110
C38   C     C_R   0.049899 0.231342 0.942415 -0.195461
H21   H     H_    0.047868 0.215324 0.881173 0.166899
C39   C     C_R   0.112464 0.314160 0.015105 -0.134683
H22   H     H_    0.158459 0.362165 0.009426 0.124005
C40   C     C_R   0.116592 0.334173 0.095063 0.075051
C41   C     C_R   0.184036 0.500443 0.525556 -0.159412
H23   H     H_    0.180453 0.547030 0.575186 0.163663
C42   C     C_R   0.208217 0.441384 0.539948 -0.194951
H24   H     H_    0.222794 0.442637 0.600644 0.139544
C43   C     C_R   0.213130 0.380745 0.476022 0.133247
C44   C     C_R   0.193029 0.379488 0.397389 -0.189855
H25   H     H_    0.195308 0.332306 0.346940 0.142917
C45   C     C_R   0.167477 0.437722 0.382730 -0.163396
H26   H     H_    0.149917 0.435151 0.321307 0.169804
C46   C     C_R   0.163286 0.498397 0.446796 0.348057
C47   C     C_R   0.172463 0.250071 0.490668 -0.239379
H27   H     H_    0.111768 0.249866 0.483882 0.164778
C48   C     C_R   0.188673 0.185532 0.500845 -0.049989
C49   C     C_R   0.267564 0.185447 0.510281 0.051502
C50   C     C_R   0.328266 0.249876 0.507768 -0.207614
H28   H     H_    0.389390 0.250886 0.514943 0.165848
C51   C     C_R   0.311760 0.314009 0.497708 -0.075684
C52   C     C_R   0.233896 0.315174 0.489439 -0.001013
C53   C     C_R   0.334612 0.133413 0.604410 -0.199530
H29   H     H_    0.348284 0.189792 0.659555 0.182605
C54   C     C_R   0.364394 0.076349 0.616661 0.293238
C55   C     C_R   0.347763 0.004865 0.543985 -0.162787
H30   H     H_    0.370256 0.960152 0.551625 0.211893
C56   C     C_R   0.301636 0.990296 0.460793 0.298575
C57   C     C_R   0.273355 0.048018 0.449478 -0.170755
H31   H     H_    0.241142 0.038427 0.385295 0.198132
C58   C     C_R   0.288986 0.119363 0.521112 0.016389
C59   C     C_R   0.781276 0.518436 0.617250 -0.137881
H32   H     H_    0.741065 0.532364 0.573923 0.144802
C60   C     C_R   0.853091 0.516115 0.610068 -0.152277
H33   H     H_    0.865488 0.526209 0.561492 0.138751
C61   C     C_R   0.907856 0.499256 0.664244 -0.130893
H34   H     H_    0.962199 0.494962 0.657068 0.142526
C62   C     C_R   0.893289 0.488635 0.728278 -0.151531
H35   H     H_    0.936591 0.473642 0.767296 0.150319
C63   C     C_R   0.823239 0.495264 0.739610 0.040216
C64   C     C_R   0.763339 0.504421 0.679837 0.058090
C65   C     C_R   0.687197 0.499253 0.684288 -0.241964
C66   C     C_R   0.671768 0.488638 0.748552 0.219870
C67   C     C_R   0.735876 0.489729 0.813425 0.207446
C68   C     C_R   0.811251 0.492859 0.808807 -0.274662
O9    O     O_R   0.051730 0.908360 0.460070 -0.600845
O10   O     O_R   0.948280 0.908380 0.356650 -0.593095
C69   C     C_R   0.999074 0.878429 0.380553 0.904530
O11   O     O_R   0.960110 0.908350 0.551690 -0.637808
O12   O     O_R   0.856660 0.908370 0.448270 -0.594777
C70   C     C_R   0.878944 0.877727 0.496989 0.891244
Zn3   Zn    Zn3+2 0.069080 0.999960 0.569030 1.019680
Zn4   Zn    Zn3+2 0.930920 0.999990 0.430930 1.082667
O13   O     O_R   0.051720 0.091580 0.643310 -0.622020
O14   O     O_R   0.948270 0.091600 0.539890 -0.598890
O15   O     O_R   0.143340 0.091590 0.551680 -0.621121
O16   O     O_R   0.039890 0.091610 0.448270 -0.592152
C71   C     C_R   0.999463 0.119938 0.619547 0.935065
C72   C     C_R   0.121033 0.119028 0.499540 0.926515
O17   O     O_R   0.051710 0.460040 0.908380 -0.638834
O18   O     O_R   0.948270 0.356620 0.908410 -0.619401
C73   C     C_R   0.997641 0.379768 0.877584 0.875026
O19   O     O_R   0.143330 0.551680 0.091590 -0.622478
O20   O     O_R   0.039890 0.448260 0.091620 -0.605300
C74   C     C_R   0.120649 0.499249 0.118802 0.881638
Zn5   Zn    Zn3+2 0.069060 0.569020 0.999970 0.976382
Zn6   Zn    Zn3+2 0.930920 0.430910 0.000010 1.032987
O21   O     O_R   0.051700 0.643310 0.091570 -0.606073
O22   O     O_R   0.948260 0.539890 0.091600 -0.605622
O23   O     O_R   0.960080 0.551670 0.908360 -0.637731
O24   O     O_R   0.856640 0.448250 0.908390 -0.572471
C75   C     C_R   0.999856 0.620310 0.119974 0.907196
C76   C     C_R   0.879078 0.497939 0.878533 0.914823
H36   H     H_    0.942893 0.668541 0.554743 0.130851
C77   C     C_R   0.039649 0.735618 0.527618 -0.132399
H37   H     H_    0.094579 0.763304 0.591266 0.161325
C78   C     C_R   0.054549 0.753174 0.466224 0.387312
C79   C     C_R   0.982614 0.717944 0.383801 0.037967
C80   C     C_R   0.897696 0.659505 0.362192 -0.238820
H38   H     H_    0.842323 0.627776 0.297633 0.159615
C81   C     C_R   0.883269 0.642718 0.423943 -0.113162
H39   H     H_    0.817188 0.599480 0.407391 0.152723
C82   C     C_R   0.954080 0.681556 0.506928 -0.162192
C83   C     C_R   0.992313 0.674012 0.251192 -0.157537
H40   H     H_    0.986027 0.614550 0.251390 0.186465
C84   C     C_R   0.999336 0.687103 0.185345 -0.118735
C85   C     C_R   0.008156 0.764000 0.183866 -0.105768
C86   C     C_R   0.008235 0.827358 0.249005 0.262814
C87   C     C_R   0.002114 0.813942 0.315866 -0.180168
C88   C     C_R   0.994893 0.737354 0.317735 0.004910
C89   C     C_R   0.095885 0.846806 0.134714 -0.039465
H41   H     H_    0.148767 0.891799 0.201223 0.162683
C90   C     C_R   0.106995 0.855707 0.068349 -0.128014
H42   H     H_    0.167711 0.907823 0.083678 0.144929
C91   C     C_R   0.040453 0.796129 0.982097 -0.115827
H43   H     H_    0.049988 0.801983 0.930735 0.132045
C92   C     C_R   0.962097 0.728778 0.962447 -0.120835
H44   H     H_    0.910844 0.681116 0.896268 0.131126
C93   C     C_R   0.949783 0.721116 0.028435 -0.090516
H45   H     H_    0.888997 0.668393 0.012208 0.145241
C94   C     C_R   0.017433 0.778651 0.114813 0.168096
H46   H     H_    0.393483 0.340752 0.774515 0.180887
C95   C     C_R   0.304095 0.288650 0.815900 -0.112861
H47   H     H_    0.349110 0.277556 0.858403 0.170181
C96   C     C_R   0.221370 0.268298 0.809104 -0.126836
H48   H     H_    0.202977 0.241844 0.846886 0.132580
C97   C     C_R   0.162765 0.282330 0.753810 0.144802
C98   C     C_R   0.187813 0.317257 0.705764 -0.186282
H49   H     H_    0.143420 0.328892 0.663222 0.128240
C99   C     C_R   0.271079 0.338560 0.713633 -0.142710
H50   H     H_    0.290909 0.366570 0.677513 0.160046
C100  C     C_R   0.329087 0.324170 0.768531 -0.082289
C101  C     C_R   0.074398 0.327606 0.810697 -0.249697
H51   H     H_    0.135560 0.387553 0.862002 0.171082
C102  C     C_R   0.994558 0.313664 0.808144 -0.129452
C103  C     C_R   0.914281 0.236521 0.741808 -0.126809
C104  C     C_R   0.916070 0.171028 0.680041 0.263145
C105  C     C_R   0.997648 0.185522 0.684479 -0.202118
C106  C     C_R   0.076786 0.264051 0.749247 -0.051094
C107  C     C_R   0.790440 0.175275 0.768397 -0.028517
H52   H     H_    0.821279 0.143346 0.794617 0.148485
C108  C     C_R   0.713017 0.169052 0.768464 -0.044514
H53   H     H_    0.684349 0.132493 0.794628 0.197924
C109  C     C_R   0.673054 0.210693 0.735565 -0.067171
H54   H     H_    0.613017 0.205603 0.735510 0.176898
C110  C     C_R   0.710841 0.259219 0.703097 -0.116629
H55   H     H_    0.680046 0.291669 0.677872 0.151141
C111  C     C_R   0.788915 0.266620 0.704021 -0.126121
H56   H     H_    0.818185 0.304992 0.679502 0.131271
C112  C     C_R   0.829134 0.224740 0.736762 0.159975
N1    N     N_R   0.589089 0.918158 0.623521 0.201749
O25   O     O_R   0.569291 0.964075 0.674791 -0.384863
O26   O     O_R   0.671326 0.948591 0.642610 -0.373385
N2    N     N_R   0.932170 0.122418 0.034595 0.213615
O27   O     O_R   0.873115 0.045405 0.966913 -0.385647
O28   O     O_R   0.935132 0.139548 0.108285 -0.360665
Br1   Br    Br    0.127289 0.576941 0.425780 -0.541704
N3    N     N_R   0.412112 0.091509 0.702332 0.212989
O29   O     O_R   0.427526 0.157623 0.769657 -0.397114
O30   O     O_R   0.440823 0.039485 0.713890 -0.346819
Br2   Br    Br    0.278327 0.891975 0.362643 -0.514551
Br3   Br    Br    0.560684 0.467794 0.745786 -0.472656
Br4   Br    Br    0.720599 0.491563 0.910119 -0.449205
Br5   Br    Br    0.173941 0.821384 0.495932 -0.470715
N4    N     N_R   0.012294 0.904075 0.245908 0.207507
O31   O     O_R   0.954352 0.896324 0.177755 -0.360119
O32   O     O_R   0.073842 0.981702 0.310892 -0.421740
N5    N     N_R   0.836161 0.089239 0.614735 0.221867
O33   O     O_R   0.766721 0.087798 0.565234 -0.350858
O34   O     O_R   0.832099 0.015974 0.605959 -0.394547

loop_
_geom_bond_atom_site_label_1
_geom_bond_atom_site_label_2
_geom_bond_distance
_ccdc_geom_bond_type
H36   C82   1.082270 S    
C110  C111  1.398270 A    
C50   H28   1.085865 S    
C35   C36   1.407650 A    
C108  H53   1.081686 S    
O10   Zn4   2.012269 S    
C41   H23   1.082438 S    
C2    C15   1.428446 S    
C66   C67   1.386338 A    
O21   C75   1.276404 A    
O19   Zn5   2.029039 S    
C61   C62   1.393007 A    
C90   H42   1.082257 S    
C101  C106  1.378791 A    
C93   C94   1.400081 A    
C92   H44   1.077519 S    
C43   C44   1.403961 A    
C63   C64   1.403590 A    
Zn1   O7    2.015603 S    
C95   C96   1.398603 A    
C11   H6    1.085751 S    
C54   C55   1.406329 A    
N2    O28   1.301590 A    
C47   H27   1.085268 S    
C12   C13   1.418604 A    
C80   C81   1.397394 A    
N5    O34   1.300982 A    
C6    H3    1.083274 S    
C73   C102  1.436506 S    
O11   C70   1.285851 A    
C48   C49   1.410525 A    
O4    C2    1.278309 A    
O7    C4    1.276307 A    
C44   C45   1.398826 A    
H1    C10   1.080908 S    
C62   H35   1.080277 S    
C77   H37   1.082407 S    
C29   C34   1.386734 A    
C111  H56   1.082277 S    
C103  C104  1.397120 A    
C107  C108  1.398629 A    
C17   H8    1.083196 S    
C23   C24   1.396845 A    
O5    C3    1.277658 A    
O12   C70   1.274734 A    
C61   H34   1.082545 S    
C80   H38   1.083064 S    
C57   C58   1.401323 A    
O18   Zn6   2.018380 S    
N1    O25   1.301132 A    
C87   C88   1.414085 A    
C104  C105  1.410298 A    
C36   N2    1.439706 S    
C89   H41   1.082841 S    
Zn3   O13   2.012397 S    
C5    H2    1.082281 S    
C18   H9    1.082351 S    
C26   C27   1.397836 A    
C9    H5    1.076858 S    
C89   C90   1.397560 A    
C39   H22   1.083202 S    
C25   C34   1.480205 S    
C107  C112  1.403257 A    
C95   H47   1.082278 S    
C14   C15   1.393351 A    
N4    O32   1.299960 A    
C17   C18   1.398494 A    
C55   C56   1.398364 A    
C78   Br5   1.913144 S    
C86   N4    1.440295 S    
C77   C82   1.396823 A    
C110  H55   1.082523 S    
C32   H18   1.085246 S    
C92   C93   1.391169 A    
Zn6   O22   2.018186 S    
C8    H4    1.083482 S    
C20   C21   1.397391 A    
C41   C42   1.398696 A    
C30   C74   1.430509 S    
C55   H30   1.082297 S    
C21   C22   1.404935 A    
O3    Zn1   2.015699 S    
C54   N3    1.439567 S    
C67   C68   1.409234 A    
C90   C91   1.397278 A    
C27   C28   1.406156 A    
C57   H31   1.081960 S    
C1    C33   1.438880 S    
C8    C9    1.390434 A    
O22   C75   1.279725 A    
C83   C88   1.380341 A    
C43   C52   1.479368 S    
C32   C33   1.398110 A    
N2    O27   1.301720 A    
C60   H33   1.082499 S    
C67   Br4   1.939497 S    
C99   H50   1.081758 S    
C71   C105  1.432045 S    
C17   C22   1.408004 A    
N5    O33   1.301074 A    
C111  C112  1.403703 A    
C101  C102  1.393675 A    
C93   H45   1.082016 S    
C44   H25   1.083255 S    
C38   H21   1.080970 S    
O14   C71   1.278907 A    
Zn5   O21   2.018505 S    
C31   C32   1.383820 A    
C101  H51   1.085319 S    
O23   C76   1.279839 A    
C28   N1    1.438487 S    
C65   C66   1.404324 A    
H46   C100  1.082401 S    
C107  H52   1.083162 S    
O1    C1    1.281104 A    
O12   Zn4   2.023930 S    
C109  C110  1.397769 A    
C63   C68   1.416445 A    
O13   C71   1.278311 A    
Zn6   O24   2.029121 S    
C42   H24   1.083190 S    
O10   C69   1.281937 A    
C4    C51   1.425392 S    
Zn4   O16   2.007518 S    
C13   C14   1.389342 A    
O20   C74   1.275455 A    
O17   Zn5   2.018103 S    
C53   C54   1.406541 A    
C85   C94   1.480413 S    
C11   C16   1.376221 A    
C99   C100  1.397265 A    
C24   H14   1.082595 S    
N4    O31   1.301295 A    
C14   H7    1.085010 S    
Zn2   O8    2.015699 S    
C56   C57   1.396837 A    
C29   H17   1.085488 S    
C59   C60   1.392508 A    
C26   H15   1.081598 S    
C102  C103  1.409798 A    
C7    C8    1.397096 A    
C60   C61   1.388206 A    
C49   C58   1.477233 S    
C42   C43   1.403955 A    
C3    C65   1.432015 S    
C84   C85   1.410248 A    
C96   C97   1.403219 A    
O15   C72   1.278575 A    
C7    C16   1.468155 S    
C38   C39   1.396781 A    
C20   H11   1.082796 S    
C47   C48   1.398624 A    
C83   C84   1.392673 A    
C23   C28   1.406703 A    
C36   C37   1.406180 A    
C103  C112  1.481759 S    
C29   C30   1.394956 A    
C13   C22   1.491691 S    
C95   C100  1.397882 A    
O11   Zn3   2.007430 S    
O3    C2    1.276757 A    
C21   H12   1.075275 S    
C18   C19   1.396957 A    
C51   C52   1.404362 A    
C41   C46   1.398791 A    
C53   H29   1.081444 S    
C27   H16   1.082190 S    
C49   C50   1.382784 A    
O16   C72   1.282907 A    
C79   C80   1.404930 A    
C5    C10   1.397907 A    
C77   C78   1.400766 A    
C47   C52   1.383299 A    
C98   H49   1.083176 S    
C108  C109  1.398416 A    
C56   Br2   1.911176 S    
C89   C94   1.404984 A    
C91   C92   1.398495 A    
N3    O29   1.301642 A    
Zn2   O6    2.027061 S    
O2    Zn2   2.014809 S    
C78   C79   1.410394 A    
O8    C4    1.277657 A    
C45   H26   1.081011 S    
O19   C74   1.278697 A    
O6    C3    1.277479 A    
O17   C73   1.278091 A    
Zn5   O23   2.012531 S    
O4    Zn2   2.015603 S    
O9    C69   1.276035 A    
C12   C70   1.433277 S    
C79   C88   1.485940 S    
C37   C38   1.396119 A    
C24   C25   1.401938 A    
C11   C12   1.394232 A    
C104  N5    1.439033 S    
C15   C16   1.399657 A    
C81   C82   1.395402 A    
O2    C1    1.279588 A    
O18   C73   1.278777 A    
C66   Br3   1.940409 S    
C69   C87   1.431159 S    
C97   C98   1.403562 A    
C81   H39   1.082501 S    
C109  H54   1.082572 S    
C19   C20   1.396219 A    
O24   C76   1.276774 A    
C31   C40   1.481040 S    
C30   C31   1.406227 A    
C19   H10   1.082315 S    
C62   C63   1.418793 A    
N3    O30   1.301562 A    
O20   Zn6   2.012409 S    
C98   C99   1.398958 A    
C59   H32   1.080639 S    
C45   C46   1.397720 A    
C68   C76   1.438507 S    
C37   H20   1.082500 S    
C6    C7    1.403137 A    
C9    C10   1.400094 A    
C33   C34   1.410763 A    
Zn4   O14   2.024670 S    
C91   H43   1.081703 S    
C48   C72   1.435345 S    
C97   C106  1.478193 S    
C35   H19   1.083301 S    
Zn1   O5    2.014808 S    
C59   C64   1.418404 A    
C86   C87   1.409081 A    
C35   C40   1.404331 A    
C5    C6    1.397490 A    
C25   C26   1.401540 A    
C85   C86   1.390482 A    
N1    O26   1.301633 A    
C50   C51   1.392793 A    
O1    Zn1   2.027061 S    
C39   C40   1.402186 A    
C83   H40   1.085485 S    
C53   C58   1.402386 A    
C105  C106  1.405884 A    
C64   C65   1.412527 A    
C96   H48   1.083291 S    
C46   Br1   1.910138 S    
O9    Zn3   2.024586 S    
Zn3   O15   2.024185 S    
C75   C84   1.435865 S    
C23   H13   1.082390 S    
