data_mof_unit_2732.cif
_audit_creation_date              2012-10-26T18:29:55-0400
_audit_creation_method            fapswitch 2.2
_symmetry_space_group_name_H-M    P1
_symmetry_Int_Tables_number       1
_space_group_crystal_system       triclinic
_cell_length_a                    10.751315
_cell_length_b                    13.041406
_cell_length_c                    11.659432
_cell_angle_alpha                 99.440164
_cell_angle_beta                  93.8938
_cell_angle_gamma                 90.594229
_cell_volume                      1608.54913744

loop_
_atom_site_label
_atom_site_type_symbol
_atom_type_description
_atom_site_fract_x
_atom_site_fract_y
_atom_site_fract_z
_atom_type_partial_charge
C1    C     C_R   0.503519 0.299244 0.479429 0.596142
C2    C     C_R   0.536528 0.029396 0.556816 0.032757
C3    C     C_R   0.491640 0.969560 0.449010 0.031047
C4    C     C_R   0.260043 0.493547 0.499419 0.611461
C5    C     C_R   0.479971 0.861993 0.438153 -0.108074
C6    C     C_R   0.556338 0.871478 0.640139 -0.134014
C7    C     C_R   0.569668 0.978422 0.651609 -0.107044
C8    C     C_R   0.378693 0.405321 0.022355 -0.156420
C9    C     C_R   0.390748 0.413864 0.144451 0.050718
C10   C     C_R   0.553117 0.540242 0.156759 0.049186
C11   C     C_R   0.544473 0.534157 0.033994 0.007518
C12   C     C_3   0.877587 0.494355 0.499206 -0.030524
C13   C     C_R   0.455777 0.465904 0.966075 0.001634
C14   C     C_R   0.446826 0.460028 0.843414 0.070181
C15   C     C_R   0.609891 0.585661 0.855369 0.054428
C16   C     C_R   0.503188 0.700532 0.521046 0.568838
C17   C     C_R   0.621904 0.594367 0.977537 -0.163818
C18   C     C_R   0.740055 0.497418 0.499530 0.543818
C19   C     C_3   0.075393 0.429975 0.595521 -0.070223
C20   C     C_3   0.932351 0.441161 0.600748 -0.230340
C21   C     C_3   0.075811 0.605193 0.521475 -0.094011
C22   C     C_3   0.059270 0.439785 0.375066 -0.067353
C23   C     C_3   0.931306 0.606613 0.515417 -0.251328
C24   C     C_3   0.121818 0.489642 0.498706 -0.029189
C25   C     C_2   0.604305 0.200217 0.676585 0.581964
C26   C     C_2   0.115074 0.317517 0.583394 0.601124
C27   C     C_2   0.132697 0.670897 0.632694 0.576991
C28   C     C_2   0.108416 0.337227 0.314846 0.587519
C29   C     C_3   0.916717 0.431824 0.382563 -0.224803
C30   C     C_R   0.511910 0.813000 0.533519 0.023837
C31   C     C_R   0.508961 0.185873 0.469643 -0.010118
C32   C     C_R   0.460096 0.017411 0.352784 -0.130691
C33   C     C_R   0.468795 0.124541 0.363003 -0.141782
C34   C     C_R   0.548183 0.138091 0.566665 0.050006
Cu1   Cu    Cu3+1 0.509350 0.507730 0.615930 1.023969
Cu2   Cu    Cu3+1 0.490650 0.492270 0.384070 0.967768
H1    H     H_    0.118481 0.467184 0.681755 0.159571
H2    H     H_    0.309698 0.351762 0.972497 0.131912
H3    H     H_    0.691239 0.647653 0.027283 0.098015
H4    H     H_    0.620782 0.592742 0.209985 0.115856
H5    H     H_    0.883513 0.365260 0.598571 0.200796
H6    H     H_    0.913183 0.489121 0.685648 0.156586
H7    H     H_    0.896711 0.653459 0.595128 0.155235
H8    H     H_    0.105848 0.644015 0.449260 0.118201
H9    H     H_    0.445806 0.816472 0.355440 0.126017
H10   H     H_    0.588374 0.252974 0.847347 0.339699
H11   H     H_    0.251480 0.217917 0.612911 0.353890
H12   H     H_    0.870620 0.461790 0.306642 0.141236
H13   H     H_    0.331207 0.366731 0.186903 0.158914
H14   H     H_    0.251633 0.788329 0.704306 0.346912
H15   H     H_    0.075915 0.495119 0.314005 0.099453
H16   H     H_    0.230237 0.220913 0.313542 0.331298
H17   H     H_    0.884839 0.349392 0.376334 0.176890
H18   H     H_    0.896435 0.644247 0.440689 0.109156
H19   H     H_    0.583040 0.834412 0.714484 0.129911
H20   H     H_    0.427052 0.971967 0.269764 0.121920
H21   H     H_    0.606333 0.019942 0.735191 0.160976
H22   H     H_    0.441311 0.159588 0.287403 0.138921
H23   H     H_    0.379102 0.407696 0.790457 0.179790
H24   H     H_    0.670060 0.632229 0.812646 0.125193
N1    N     N_R   0.523430 0.519360 0.790130 -0.233663
N2    N     N_R   0.476570 0.480640 0.209880 -0.238673
O1    O     O_R   0.506640 0.354460 0.582000 -0.456189
O2    O     O_R   0.541152 0.208182 0.778509 -0.708779
O3    O     O_2   0.044555 0.246562 0.535891 -0.484833
O4    O     O_R   0.234268 0.295096 0.626836 -0.684411
O5    O     O_2   0.102541 0.656373 0.728119 -0.535709
O6    O     O_R   0.219195 0.749854 0.625049 -0.688569
O7    O     O_2   0.059882 0.297846 0.219639 -0.522914
O8    O     O_R   0.209927 0.289098 0.363220 -0.664567
O9    O     O_R   0.490840 0.341410 0.386200 -0.500780
O10   O     O_R   0.325590 0.506510 0.597900 -0.475472
O11   O     O_R   0.309790 0.493450 0.402100 -0.498975
O12   O     O_R   0.509160 0.658590 0.613800 -0.506021
O13   O     O_R   0.493360 0.645540 0.418000 -0.518678
O14   O     O_R   0.690210 0.506550 0.597900 -0.508414
O15   O     O_R   0.674410 0.493490 0.402100 -0.519856
O16   O     O_2   0.704822 0.245055 0.677112 -0.511019

loop_
_geom_bond_atom_site_label_1
_geom_bond_atom_site_label_2
_ccdc_geom_bond_type
Cu1   O12   S    
C33   H22   S    
C22   C29   S    
C12   C29   S    
C16   O13   A    
C15   H24   S    
C19   C20   S    
C6    H19   S    
C20   H5    S    
C14   H23   S    
C12   C23   S    
C8    C13   A    
C16   O12   A    
Cu2   O15   S    
C4    C24   S    
C16   C30   S    
C1    C31   S    
C23   H7    S    
C10   H4    S    
C17   H3    S    
C19   C26   S    
C27   O6    S    
C19   H1    S    
C2    C7    A    
C28   O7    D    
C8    C9    A    
C31   C33   A    
H11   O4    S    
Cu2   O9    S    
C25   C34   S    
C2    C34   A    
C21   C27   S    
C22   C28   S    
C13   C14   A    
C10   N2    A    
C8    H2    S    
Cu2   N2    S    
C1    O1    A    
Cu1   O14   S    
C29   H12   S    
C9    N2    A    
C26   O4    S    
C9    H13   S    
Cu2   O11   S    
C14   N1    A    
C5    H9    S    
C25   O16   D    
H10   O2    S    
C25   O2    S    
Cu2   O13   S    
C21   H8    S    
C12   C20   S    
C15   N1    A    
C31   C34   A    
Cu1   N1    S    
C27   O5    D    
C1    O9    A    
C4    O11   A    
C6    C30   A    
Cu1   O10   S    
C21   C23   S    
C22   C24   S    
C4    O10   A    
C23   H18   S    
C5    C30   A    
C15   C17   A    
C11   C17   A    
C18   O14   A    
C26   O3    D    
C28   O8    S    
C3    C5    A    
C20   H6    S    
C6    C7    A    
C32   C33   A    
C2    C3    A    
C11   C13   A    
C29   H17   S    
C18   O15   A    
C7    H21   S    
C19   C24   S    
C3    C32   A    
H16   O8    S    
C10   C11   A    
C21   C24   S    
C12   C18   S    
Cu1   O1    S    
Cu1   Cu2   S    
H14   O6    S    
C32   H20   S    
C22   H15   S    
