data_mof_unit_2059.cif
_audit_creation_date              2012-12-10T17:35:36-0500
_audit_creation_method            fapswitch 2.2
_symmetry_space_group_name_H-M    P1
_symmetry_Int_Tables_number       1
_space_group_crystal_system       triclinic
_cell_length_a                    11.093868
_cell_length_b                    12.503511
_cell_length_c                    13.422415
_cell_angle_alpha                 116.949541
_cell_angle_beta                  72.268995
_cell_angle_gamma                 101.900686
_cell_volume                      1575.72149386

loop_
_atom_site_label
_atom_site_type_symbol
_atom_type_description
_atom_site_fract_x
_atom_site_fract_y
_atom_site_fract_z
_atom_type_partial_charge
C1    C     C_R   0.509436 0.854993 0.286698 0.804205
C2    C     C_3   0.124462 0.006649 0.501359 -0.202365
C3    C     C_3   0.029680 0.006329 0.618781 -0.087010
C4    C     C_3   0.088658 0.890495 0.392974 0.287816
C5    C     C_R   0.301301 0.277436 0.021670 0.287641
C6    C     C_R   0.451600 0.229109 0.836329 -0.150505
C7    C     C_R   0.572780 0.810918 0.074616 0.189450
C8    C     C_R   0.583662 0.729923 0.960001 -0.110721
C9    C     C_R   0.542279 0.610070 0.930386 -0.087255
C10   C     C_R   0.483783 0.564123 0.013305 0.121019
C11   C     C_R   0.456165 0.646875 0.130394 0.006116
C12   C     C_R   0.739753 0.002011 0.502500 0.868750
C13   C     C_R   0.446952 0.438254 0.981487 -0.028684
C14   C     C_R   0.352547 0.399831 0.061390 0.033128
C15   C     C_R   0.321382 0.483523 0.178103 0.116483
C16   C     C_R   0.378217 0.600795 0.209776 -0.224551
C17   C     C_R   0.505436 0.348776 0.874111 0.221990
C18   C     C_R   0.351247 0.195762 0.910815 -0.244856
C19   C     C_R   0.510319 0.771036 0.163353 -0.084819
C20   C     C_R   0.708337 0.340929 0.323752 0.059316
C21   C     C_R   0.324284 0.759433 0.651982 0.395228
C22   C     C_R   0.288761 0.667054 0.689547 0.003158
C23   C     C_R   0.482193 0.145041 0.713507 0.843519
C24   C     C_R   0.366871 0.573544 0.643397 0.263450
C25   C     C_R   0.457931 0.551007 0.537110 -0.120117
C26   C     C_R   0.486576 0.643364 0.492959 0.112144
C27   C     C_R   0.525268 0.442010 0.474287 -0.052988
C28   C     C_R   0.617863 0.427172 0.372274 0.088308
C29   C     C_R   0.602765 0.484728 0.311834 0.119423
C30   C     C_R   0.568991 0.603913 0.374206 0.135887
C31   C     C_R   0.497226 0.338434 0.496855 0.151203
C32   C     C_R   0.682587 0.249144 0.358938 0.113829
C33   C     C_R   0.260583 0.002303 0.502040 0.883331
C34   C     C_3   0.966563 0.108468 0.474155 0.000881
C35   C     C_3   0.103106 0.124663 0.492229 0.448567
C36   C     C_3   0.886935 0.023134 0.630615 0.266890
C37   C     C_3   0.938028 0.879002 0.407403 0.298636
C38   C     C_3   0.878063 0.002930 0.505613 -0.151171
Cu1   Cu    Cu3+1 0.529690 0.098270 0.475420 1.040934
Cu2   Cu    Cu3+1 0.470310 0.901730 0.524580 0.957908
H1    H     H_    0.031006 0.914182 0.610368 0.202657
H2    H     H_    0.308425 0.105066 0.881911 0.241678
H3    H     H_    0.554798 0.554758 0.839964 0.222026
H4    H     H_    0.628031 0.758743 0.891249 0.152048
H5    H     H_    0.978376 0.077387 0.380555 0.219035
H6    H     H_    0.357635 0.652318 0.299945 0.200482
H7    H     H_    0.745318 0.177565 0.320901 0.159908
H8    H     H_    0.410101 0.323376 0.552451 0.216178
N1    N     N_R   0.574690 0.246280 0.438200 -0.221764
N2    N     N_R   0.426100 0.754320 0.561190 -0.228370
O1    O     O_R   0.537340 0.972510 0.318130 -0.565424
O2    O     O_R   0.487200 0.806530 0.359650 -0.616518
O3    O     O_R   0.707380 0.082980 0.479220 -0.532069
O4    O     O_R   0.657240 0.917000 0.520740 -0.614785
O5    O     O_R   0.512800 0.193470 0.640350 -0.525640
O6    O     O_R   0.462660 0.027490 0.681870 -0.563837
O7    O     O_R   0.342760 0.083000 0.479260 -0.538909
O8    O     O_R   0.292620 0.917020 0.520780 -0.570527
Br1   Br    Br    0.901660 0.265817 0.525868 -0.382835
C39   C     C_3   0.138989 0.774287 0.375254 -0.774105
H9    H     H_    0.118585 0.758566 0.453812 0.219813
H10   H     H_    0.107577 0.692890 0.304880 0.260943
H11   H     H_    0.242158 0.782991 0.345986 0.240667
C40   C     C_3   0.795889 0.939782 0.686450 -0.806754
H12   H     H_    0.804493 0.970682 0.775999 0.221902
H13   H     H_    0.694400 0.943911 0.694665 0.261455
H14   H     H_    0.815776 0.845572 0.649201 0.219216
C41   C     C_3   0.242306 0.449968 0.275351 -0.708062
H15   H     H_    0.247194 0.521858 0.362015 0.207746
H16   H     H_    0.140776 0.434801 0.273731 0.259742
H17   H     H_    0.277949 0.370209 0.269591 0.286190
Br2   Br    Br    0.153085 0.209581 0.100497 -0.486101
Br3   Br    Br    0.677463 0.378270 0.794671 -0.504263
C42   C     C_3   0.631058 0.937798 0.096755 -0.756769
H18   H     H_    0.677263 0.948879 0.015630 0.207136
H19   H     H_    0.556455 0.002423 0.145627 0.262867
H20   H     H_    0.705935 0.960875 0.144068 0.248857
C43   C     C_3   0.627621 0.419940 0.180627 -0.810582
H21   H     H_    0.559760 0.443953 0.150440 0.243047
H22   H     H_    0.724725 0.443657 0.137385 0.245690
H23   H     H_    0.613412 0.320703 0.151424 0.243679
C44   C     C_3   0.833509 0.348081 0.241019 -0.801670
H24   H     H_    0.855567 0.437808 0.238918 0.237071
H25   H     H_    0.911009 0.335019 0.269802 0.272537
H26   H     H_    0.832682 0.276700 0.153348 0.249204
Br4   Br    Br    0.222784 0.892252 0.734081 -0.572194
Br5   Br    Br    0.360016 0.500973 0.745409 -0.538558
C45   C     C_3   0.167992 0.671245 0.782731 -0.595866
H27   H     H_    0.087165 0.688372 0.760848 0.237146
H28   H     H_    0.138552 0.584849 0.791015 0.280363
H29   H     H_    0.180440 0.743391 0.867108 0.269686
C46   C     C_3   0.654208 0.671206 0.306660 -0.699932
H30   H     H_    0.672046 0.765220 0.354922 0.290098
H31   H     H_    0.749866 0.638079 0.267450 0.223083
H32   H     H_    0.622523 0.652609 0.230020 0.233219
Br6   Br    Br    0.220928 0.172118 0.372552 -0.378828
Br7   Br    Br    0.138107 0.272819 0.623342 -0.461503
C47   C     C_3   0.840591 0.148611 0.720755 -0.657783
H33   H     H_    0.898069 0.224888 0.706858 0.303378
H34   H     H_    0.742139 0.151862 0.719714 0.227887
H35   H     H_    0.836590 0.165864 0.810521 0.217235
C48   C     C_3   0.074274 0.086065 0.732221 -0.688253
H36   H     H_    0.049309 0.179986 0.774993 0.264755
H37   H     H_    0.028262 0.048320 0.796658 0.252444
H38   H     H_    0.178287 0.091779 0.718958 0.250921
C49   C     C_3   0.877528 0.765300 0.430525 -0.820777
H39   H     H_    0.918848 0.751669 0.487974 0.210422
H40   H     H_    0.775406 0.763172 0.469114 0.263676
H41   H     H_    0.897666 0.682467 0.350250 0.244027
Br8   Br    Br    0.899064 0.847940 0.260661 -0.520388
Br9   Br    Br    0.188648 0.893814 0.243038 -0.401220

loop_
_geom_bond_atom_site_label_1
_geom_bond_atom_site_label_2
_ccdc_geom_bond_type
C2    C35   S    
Cu1   O1    S    
C33   O8    A    
C20   C44   S    
C36   C40   S    
C7    C8    A    
C35   Br6   S    
C11   C19   A    
C37   C38   S    
C42   H19   S    
C39   H11   S    
C28   C29   A    
C5    Br2   S    
C18   H2    S    
C47   H33   S    
C43   H22   S    
C49   H39   S    
C6    C23   S    
C15   C16   A    
Cu1   O7    S    
C48   H38   S    
C39   H10   S    
C34   C35   S    
C7    C19   A    
Cu1   O5    S    
C29   C43   S    
C8    C9    A    
Cu2   O6    S    
C42   H20   S    
C22   C45   S    
C9    C10   A    
C12   O3    A    
C21   C22   A    
C17   Br3   S    
C31   N1    A    
C21   N2    A    
C1    O2    A    
C7    C42   S    
C6    C18   A    
C9    H3    S    
Cu2   O8    S    
C42   H18   S    
C27   C31   A    
C40   H14   S    
C23   O6    A    
C24   C25   A    
C30   C46   S    
C16   H6    S    
Cu1   Cu2   S    
C43   H21   S    
C41   H15   S    
C5    C18   A    
C20   C28   A    
C25   C26   A    
Cu2   O2    S    
C1    C19   S    
C46   H32   S    
C39   H9    S    
C40   H13   S    
C2    C4    S    
C29   C30   A    
C11   C16   A    
C45   H29   S    
C4    C39   S    
C46   H31   S    
C37   Br8   S    
C34   H5    S    
C4    C37   S    
C48   H37   S    
C1    O1    A    
C5    C14   A    
C2    C33   S    
Cu1   N1    S    
C4    Br9   S    
C45   H28   S    
C26   C30   A    
Cu2   O4    S    
C31   H8    S    
C34   Br1   S    
C32   H7    S    
C22   C24   A    
C47   H35   S    
C3    C48   S    
C20   C32   A    
C6    C17   A    
C21   Br4   S    
C3    H1    S    
C33   O7    A    
C34   C38   S    
C47   H34   S    
C8    H4    S    
C10   C13   A    
C23   O5    A    
C25   C27   A    
C44   H26   S    
C44   H25   S    
C13   C17   A    
C40   H12   S    
C26   N2    A    
C2    C3    S    
C37   C49   S    
C35   Br7   S    
C43   H23   S    
Cu1   O3    S    
C49   H40   S    
C3    C36   S    
C41   H17   S    
Cu2   N2    S    
C15   C41   S    
C36   C38   S    
C46   H30   S    
C12   C38   S    
C48   H36   S    
C24   Br5   S    
C32   N1    A    
C10   C11   A    
C45   H27   S    
C41   H16   S    
C44   H24   S    
C27   C28   A    
C14   C15   A    
C36   C47   S    
C13   C14   A    
C12   O4    A    
C49   H41   S    
