data_mof_unit_827.cif
_audit_creation_date              2012-12-11T14:44:32-0500
_audit_creation_method            fapswitch 2.2
_symmetry_space_group_name_H-M    P1
_symmetry_Int_Tables_number       1
_space_group_crystal_system       monoclinic
_cell_length_a                    20.329947
_cell_length_b                    7.217062
_cell_length_c                    19.452581
_cell_angle_alpha                 90.0
_cell_angle_beta                  97.96273
_cell_angle_gamma                 90.0
_cell_volume                      2826.61266023

loop_
_atom_site_label
_atom_site_type_symbol
_atom_type_description
_atom_site_fract_x
_atom_site_fract_y
_atom_site_fract_z
_atom_type_partial_charge
O1    O     O_R   0.673210 0.377390 0.686390 -0.500134
O2    O     O_R   0.326790 0.622610 0.313610 -0.499051
O3    O     O_R   0.826790 0.877390 0.813610 -0.500134
O4    O     O_R   0.173210 0.122610 0.186390 -0.499051
O5    O     O_R   0.810750 0.706450 0.681250 -0.511322
O6    O     O_R   0.189250 0.293550 0.318750 -0.507153
O7    O     O_R   0.689250 0.206450 0.818750 -0.511322
O8    O     O_R   0.310750 0.793550 0.181250 -0.507153
C1    C     C_R   0.832453 0.538574 0.666933 0.821737
C2    C     C_R   0.167436 0.461490 0.332976 0.814291
C3    C     C_R   0.667547 0.038574 0.833067 0.821737
C4    C     C_R   0.332564 0.961490 0.167024 0.814291
O9    O     O_R   0.672750 0.707060 0.678240 -0.545365
O10   O     O_R   0.327250 0.292940 0.321760 -0.548484
O11   O     O_R   0.827250 0.207060 0.821760 -0.545365
O12   O     O_R   0.172750 0.792940 0.178240 -0.548484
O13   O     O_R   0.687800 0.877990 0.810580 -0.539288
O14   O     O_R   0.312200 0.122010 0.189420 -0.537064
O15   O     O_R   0.812200 0.377990 0.689420 -0.539288
O16   O     O_R   0.187800 0.622010 0.310580 -0.537064
C5    C     C_R   0.649973 0.539164 0.659759 0.805781
C6    C     C_R   0.349951 0.460775 0.340295 0.801092
C7    C     C_R   0.850026 0.039164 0.840241 0.805781
C8    C     C_R   0.150049 0.960775 0.159705 0.801092
O17   O     O_3   0.755100 0.544060 0.793420 -0.359313
O18   O     O_3   0.244900 0.455940 0.206580 -0.359550
O19   O     O_3   0.744900 0.044060 0.706580 -0.359313
O20   O     O_3   0.255100 0.955940 0.293420 -0.359550
V1    V     V_3+5 0.749050 0.818670 0.741950 1.779992
V2    V     V_3+5 0.250950 0.181330 0.258050 1.796055
V3    V     V_3+5 0.750950 0.318670 0.758050 1.779992
V4    V     V_3+5 0.249050 0.681330 0.241950 1.796055
C9    C     C_R   0.091388 0.960502 0.104269 -0.170589
C10   C     C_R   0.908858 0.039006 0.895531 -0.178147
C11   C     C_R   0.408612 0.460502 0.395731 -0.170589
C12   C     C_R   0.591142 0.539007 0.604469 -0.178147
C13   C     C_R   0.008753 0.204676 0.944765 -0.082409
C14   C     C_R   0.991955 0.793670 0.054617 -0.045679
C15   C     C_R   0.491247 0.704676 0.555234 -0.082409
C16   C     C_R   0.508045 0.293670 0.445383 -0.045679
C17   C     C_R   0.954615 0.183599 0.893509 -0.130986
C18   C     C_R   0.045774 0.815530 0.106160 -0.124847
C19   C     C_R   0.545385 0.683599 0.606491 -0.130986
C20   C     C_R   0.454226 0.315530 0.393840 -0.124847
C21   C     C_R   0.917733 0.914273 0.952851 0.370564
C22   C     C_R   0.082779 0.084312 0.046702 0.316602
C23   C     C_R   0.582267 0.414273 0.547149 0.370563
C24   C     C_R   0.417221 0.584312 0.453298 0.316602
C25   C     C_R   0.977198 0.925827 0.001739 -0.012208
C26   C     C_R   0.023338 0.072812 0.997780 -0.035635
C27   C     C_R   0.522802 0.425827 0.498261 -0.012208
C28   C     C_R   0.476662 0.572812 0.502220 -0.035636
H1    H     H_    0.038303 0.328022 0.942292 0.215858
H2    H     H_    0.962899 0.669359 0.056753 0.185246
H3    H     H_    0.461697 0.828022 0.557708 0.215858
H4    H     H_    0.537100 0.169359 0.443247 0.185246
C29   C     C_R   0.558601 0.142449 0.871144 0.401338
C30   C     C_R   0.441342 0.855570 0.128832 0.458878
C31   C     C_R   0.941399 0.642449 0.628856 0.401338
C32   C     C_R   0.058658 0.355570 0.371168 0.458878
C33   C     C_R   0.615565 0.027600 0.879783 -0.170848
C34   C     C_R   0.384993 0.972919 0.120757 -0.189689
C35   C     C_R   0.884435 0.527600 0.620217 -0.170848
C36   C     C_R   0.115007 0.472919 0.379243 -0.189689
C37   C     C_R   0.622273 0.893072 0.932312 -0.139137
C38   C     C_R   0.379604 0.111259 0.069605 -0.115266
C39   C     C_R   0.877727 0.393072 0.567688 -0.139137
C40   C     C_R   0.120396 0.611259 0.430395 -0.115266
C41   C     C_R   0.575170 0.873262 0.978392 -0.020058
C42   C     C_R   0.426810 0.130548 0.023582 0.002309
C43   C     C_R   0.924830 0.373262 0.521608 -0.020058
C44   C     C_R   0.073189 0.630548 0.476418 0.002309
C45   C     C_R   0.523259 0.004738 0.975883 0.043475
C46   C     C_R   0.477950 0.996981 0.025315 0.016995
C47   C     C_R   0.976741 0.504738 0.524117 0.043475
C48   C     C_R   0.022049 0.496981 0.474685 0.016995
C49   C     C_R   0.516334 0.143459 0.923717 -0.033857
C50   C     C_R   0.484297 0.856683 0.076881 -0.026750
C51   C     C_R   0.983666 0.643459 0.576283 -0.033857
C52   C     C_R   0.015703 0.356683 0.423119 -0.026750
C53   C     C_R   0.578828 0.726998 0.027423 0.327463
C54   C     C_R   0.423962 0.278494 0.975331 0.349629
C55   C     C_R   0.921172 0.226998 0.472576 0.327463
C56   C     C_R   0.076038 0.778494 0.524669 0.349629
C57   C     C_R   0.532945 0.719417 0.074696 -0.086091
C58   C     C_R   0.468275 0.282219 0.926318 -0.174367
C59   C     C_R   0.967055 0.219417 0.425304 -0.086091
C60   C     C_R   0.031725 0.782219 0.573682 -0.174367
H5    H     H_    0.534774 0.601746 0.109093 0.232538
H6    H     H_    0.466228 0.398745 0.891296 0.227552
H7    H     H_    0.965226 0.101746 0.390907 0.232538
H8    H     H_    0.033772 0.898745 0.608704 0.227552
S1    S     S_3+6 0.148886 0.234094 0.030201 0.042755
O21   O     O_2   0.136965 0.423899 0.057718 -0.306863
O22   O     O_2   0.214963 0.164495 0.064176 -0.350439
O23   O     O_3   0.152754 0.249153 0.944535 -0.451874
H9    H     H_    0.160673 0.120604 0.929818 0.362556
S2    S     S_3+6 0.852186 0.761634 0.968646 0.040025
O24   O     O_2   0.785953 0.831942 0.935524 -0.333055
O25   O     O_2   0.864598 0.574134 0.939273 -0.351017
O26   O     O_3   0.848585 0.743275 0.054361 -0.447194
H10   H     H_    0.839431 0.610778 0.062350 0.407779
S3    S     S_3+6 0.351114 0.734093 0.469799 0.042755
O27   O     O_2   0.363035 0.923899 0.442282 -0.306863
O28   O     O_2   0.285036 0.664496 0.435824 -0.350439
O29   O     O_3   0.347246 0.749153 0.555465 -0.451874
H11   H     H_    0.339327 0.620605 0.570182 0.362556
S4    S     S_3+6 0.647814 0.261634 0.531354 0.040025
O30   O     O_2   0.714047 0.331942 0.564476 -0.333055
O31   O     O_2   0.635402 0.074135 0.560726 -0.351017
O32   O     O_3   0.651415 0.243275 0.445639 -0.447194
H12   H     H_    0.660568 0.110778 0.437650 0.407779
H13   H     H_    0.052779 0.713233 0.147332 0.182418
H14   H     H_    0.947586 0.285881 0.852341 0.189164
H15   H     H_    0.447221 0.213233 0.352668 0.182418
H16   H     H_    0.552413 0.785881 0.647659 0.189164
S5    S     S_3+6 0.535368 0.260459 0.790527 -0.012782
O33   O     O_2   0.460985 0.271420 0.773991 -0.304457
O34   O     O_2   0.563678 0.453091 0.794952 -0.364416
O35   O     O_3   0.564022 0.145655 0.725459 -0.520007
H17   H     H_    0.542491 0.205952 0.682393 0.361265
S6    S     S_3+6 0.462830 0.730576 0.208195 0.018165
O36   O     O_2   0.433343 0.539491 0.200580 -0.330157
O37   O     O_2   0.537029 0.715650 0.225977 -0.294569
O38   O     O_3   0.433853 0.841071 0.274037 -0.527336
H18   H     H_    0.457469 0.784093 0.316807 0.359697
S7    S     S_3+6 0.964632 0.760459 0.709473 -0.012782
O39   O     O_2   0.039015 0.771420 0.726009 -0.304457
O40   O     O_2   0.936322 0.953091 0.705047 -0.364416
O41   O     O_3   0.935978 0.645655 0.774541 -0.520007
H19   H     H_    0.957509 0.705952 0.817607 0.361265
S8    S     S_3+6 0.037170 0.230576 0.291805 0.018165
O42   O     O_2   0.066657 0.039491 0.299420 -0.330157
O43   O     O_2   0.962970 0.215650 0.274023 -0.294569
O44   O     O_3   0.066147 0.341071 0.225963 -0.527335
H20   H     H_    0.042531 0.284093 0.183193 0.359697
H21   H     H_    0.664798 0.803043 0.936437 0.242873
H22   H     H_    0.337767 0.203984 0.066195 0.247152
H23   H     H_    0.835202 0.303043 0.563563 0.242873
H24   H     H_    0.162233 0.703984 0.433804 0.247152
S9    S     S_3+6 0.640129 0.549890 0.032336 0.096640
O45   O     O_2   0.705412 0.631064 0.063800 -0.228296
O46   O     O_2   0.622795 0.391906 0.076904 -0.283818
O47   O     O_3   0.647884 0.467573 0.953084 -0.476344
H25   H     H_    0.603269 0.482782 0.926195 0.323623
S10   S     S_3+6 0.366243 0.463615 0.974523 0.053796
O48   O     O_2   0.366015 0.535615 0.046928 -0.310941
O49   O     O_2   0.383565 0.619991 0.929198 -0.314586
O50   O     O_3   0.289873 0.385359 0.944340 -0.412226
H26   H     H_    0.294045 0.331147 0.898366 0.368362
S11   S     S_3+6 0.859871 0.049890 0.467664 0.096640
O51   O     O_2   0.794588 0.131065 0.436200 -0.228296
O52   O     O_2   0.877205 0.891906 0.423096 -0.283818
O53   O     O_3   0.852116 0.967573 0.546915 -0.476344
H27   H     H_    0.896731 0.982782 0.573805 0.323623
S12   S     S_3+6 0.133757 0.963615 0.525477 0.053796
O54   O     O_2   0.133984 0.035615 0.453072 -0.310941
O55   O     O_2   0.116435 0.119991 0.570802 -0.314586
O56   O     O_3   0.210127 0.885359 0.555660 -0.412226
H28   H     H_    0.205955 0.831147 0.601634 0.368362

loop_
_geom_bond_atom_site_label_1
_geom_bond_atom_site_label_2
_ccdc_geom_bond_type
C30   C34   A    
C55   C59   A    
O1    C5    A    
S1    O21   D    
C59   H7    S    
O19   V1    S    
O13   V1    S    
C45   C46   A    
O3    C7    A    
O32   H12   S    
C17   H14   S    
C44   C48   A    
O15   V3    S    
C32   S8    S    
O44   H20   S    
C5    C12   S    
O7    C3    A    
C6    C11   S    
O5    C1    A    
O26   H10   S    
C9    C18   A    
C36   C40   A    
O9    V1    S    
S12   O54   D    
C14   C18   A    
C52   C59   A    
C21   S2    S    
S5    O34   D    
O4    C8    A    
O29   H11   S    
C31   S7    S    
S2    O24   D    
O1    V3    S    
S4    O30   D    
C12   C23   A    
O2    V4    S    
S11   O53   S    
O3    V1    S    
S9    O45   D    
C1    O15   A    
C43   C55   A    
C15   H3    S    
C60   H8    S    
C20   H15   S    
C2    O16   A    
S8    O42   D    
C16   H4    S    
C14   H2    S    
C42   C46   A    
S11   O51   D    
C41   C45   A    
O14   V2    S    
C39   H23   S    
C16   C20   A    
S10   O49   D    
C40   C44   A    
C37   H21   S    
O11   C7    A    
C15   C28   A    
O12   C8    A    
C9    C22   A    
C10   C17   A    
O10   V2    S    
C11   C24   A    
C51   C60   A    
C54   S10   S    
O5    V1    S    
C55   S11   S    
C35   C39   A    
C30   S6    S    
O7    V3    S    
C34   C38   A    
C27   C28   A    
O8    V4    S    
C29   C49   A    
C58   H6    S    
S5    O35   S    
C31   C51   A    
C14   C25   A    
C57   H5    S    
O18   V4    S    
C15   C19   A    
C54   C58   A    
C24   S3    S    
S9    O46   D    
C56   C60   A    
C47   C48   A    
S7    O40   D    
O2    C6    A    
C19   H16   S    
S10   O50   S    
C4    C34   S    
C18   H13   S    
O56   H28   S    
C38   H22   S    
C21   C25   A    
O8    C4    A    
C7    C10   S    
O23   H9    S    
O9    C5    A    
S3    O28   D    
C10   C21   A    
O11   V3    S    
C11   C20   A    
O53   H27   S    
C44   C56   A    
C50   C57   A    
S8    O43   D    
O6    V2    S    
C49   C58   A    
C25   C26   A    
S1    O23   S    
S2    O25   D    
O38   H18   S    
C40   H24   S    
S6    O37   D    
S7    O39   D    
S2    O26   S    
O35   H17   S    
C29   S5    S    
S10   O48   D    
O16   V4    S    
C32   C52   A    
C1    C35   S    
O17   V3    S    
S12   O56   S    
C2    C36   S    
C48   C52   A    
O47   H25   S    
C3    C33   S    
C3    O13   A    
O6    C2    A    
C23   C27   A    
C29   C33   A    
S9    O47   S    
O12   V4    S    
C16   C27   A    
C22   C26   A    
C31   C35   A    
C8    C9    S    
S4    O32   S    
C32   C36   A    
O10   C6    A    
S6    O38   S    
S12   O55   D    
O41   H19   S    
S7    O41   S    
C13   H1    S    
O20   V2    S    
S5    O33   D    
C43   C47   A    
C13   C26   A    
C56   S12   S    
C38   C42   A    
C22   S1    S    
S8    O44   S    
C37   C41   A    
C53   S9    S    
S4    O31   D    
S3    O29   S    
C39   C43   A    
S11   O52   D    
C13   C17   A    
C42   C54   A    
O4    V2    S    
C41   C53   A    
C30   C50   A    
C33   C37   A    
C24   C28   A    
S1    O22   D    
C23   S4    S    
C46   C50   A    
C4    O14   A    
S3    O27   D    
C45   C49   A    
C12   C19   A    
S6    O36   D    
O50   H26   S    
C47   C51   A    
C53   C57   A    
