data_mof_unit_3346.cif
_audit_creation_date              2012-12-10T17:24:10-0500
_audit_creation_method            fapswitch 2.2
_symmetry_space_group_name_H-M    P1
_symmetry_Int_Tables_number       1
_space_group_crystal_system       triclinic
_cell_length_a                    19.267432
_cell_length_b                    10.843482
_cell_length_c                    9.66164
_cell_angle_alpha                 92.740098
_cell_angle_beta                  91.208483
_cell_angle_gamma                 94.055252
_cell_volume                      2010.60562399

loop_
_atom_site_label
_atom_site_type_symbol
_atom_type_description
_atom_site_fract_x
_atom_site_fract_y
_atom_site_fract_z
_atom_type_partial_charge
C1    C     C_R   0.504178 0.263543 0.497184 0.833537
C2    C     C_R   0.291724 0.500215 0.496473 -0.112213
C3    C     C_R   0.929023 0.497582 0.503404 0.537804
C4    C     C_R   0.069245 0.494538 0.495041 0.437002
C5    C     C_R   0.821498 0.598714 0.578541 0.373341
C6    C     C_R   0.748488 0.601182 0.570184 0.326371
C7    C     C_R   0.707975 0.501218 0.503937 -0.275205
C8    C     C_R   0.739531 0.400392 0.442060 0.436026
C9    C     C_R   0.812399 0.402347 0.442737 -0.304109
C10   C     C_R   0.853270 0.500142 0.509754 -0.204376
C11   C     C_R   0.590847 0.146875 0.696654 -0.359323
C12   C     C_R   0.367759 0.500378 0.498847 0.852703
C13   C     C_R   0.603306 0.105443 0.829185 0.456968
C14   C     C_R   0.569897 0.993147 0.864933 0.431645
C15   C     C_R   0.536639 0.912741 0.761770 -0.355866
C16   C     C_R   0.528527 0.950799 0.624861 0.027700
C17   C     C_R   0.545173 0.076667 0.602706 0.022806
C18   C     C_R   0.512017 0.130847 0.492147 -0.079248
C19   C     C_R   0.476142 0.056185 0.389145 -0.113520
C20   C     C_R   0.473980 0.928866 0.394091 -0.192055
C21   C     C_R   0.499277 0.873779 0.511442 -0.098210
C22   C     C_R   0.601991 0.649900 0.154173 -0.060411
C23   C     C_R   0.499571 0.738170 0.503860 0.762490
C24   C     C_R   0.655178 0.714497 0.087355 -0.152798
C25   C     C_R   0.653593 0.717000 0.944659 -0.078947
C26   C     C_R   0.600139 0.651290 0.868207 -0.119092
C27   C     C_R   0.549879 0.573145 0.931299 0.140238
C28   C     C_R   0.550381 0.572540 0.080262 0.147196
C29   C     C_R   0.450564 0.431207 0.064249 0.490951
C30   C     C_R   0.452095 0.431845 0.917689 -0.098031
C31   C     C_R   0.632113 0.500904 0.501256 0.874665
C32   C     C_R   0.253396 0.423027 0.583802 -0.231796
C33   C     C_R   0.180956 0.419905 0.582184 -0.121710
C34   C     C_R   0.145685 0.495140 0.494252 -0.018679
C35   C     C_R   0.184081 0.573207 0.407588 -0.214301
C36   C     C_R   0.256922 0.577696 0.409614 0.530653
Cu1   Cu    Cu3+1 0.500000 0.499990 0.640660 0.945958
Cu2   Cu    Cu3+1 0.500000 0.500010 0.359340 1.053986
H1    H     H_    0.279587 0.363919 0.652206 0.180351
H2    H     H_    0.614041 0.235901 0.669219 0.177210
H3    H     H_    0.510207 0.828766 0.794209 0.230053
H4    H     H_    0.449382 0.873273 0.308231 0.217642
H5    H     H_    0.601662 0.668782 0.262933 0.172385
H6    H     H_    0.695150 0.770041 0.147208 0.164646
H7    H     H_    0.691842 0.775579 0.893576 0.223999
H8    H     H_    0.598116 0.668264 0.760728 0.222969
H9    H     H_    0.152640 0.359503 0.650824 0.179356
H10   H     H_    0.412797 0.378521 0.854278 0.208006
H11   H     H_    0.157813 0.631291 0.338205 0.178393
H12   H     H_    0.837540 0.328494 0.388810 0.188835
H13   H     H_    0.448545 0.096043 0.306043 0.240034
N1    N     N_R   0.036451 0.590143 0.444218 -0.209385
N2    N     N_R   0.967571 0.591708 0.448405 -0.152526
N3    N     N_R   0.961428 0.400913 0.552209 -0.206110
N4    N     N_R   0.030393 0.399744 0.548733 -0.220484
N5    N     N_R   0.500660 0.501210 0.147910 -0.262087
N6    N     N_R   0.500680 0.501290 0.852040 -0.246132
O1    O     O_R   0.499990 0.319640 0.618810 -0.590744
O2    O     O_R   0.500000 0.319660 0.381240 -0.519411
O3    O     O_R   0.400140 0.499970 0.618820 -0.595174
O4    O     O_R   0.400150 0.500000 0.381250 -0.465763
O5    O     O_R   0.500000 0.680340 0.618760 -0.606113
O6    O     O_R   0.500010 0.680360 0.381190 -0.583598
O7    O     O_R   0.599850 0.500000 0.618750 -0.604233
O8    O     O_R   0.599860 0.500030 0.381180 -0.593378
O9    O     O_3   0.646950 0.172816 0.925856 -0.533403
C37   C     C_3   0.623745 0.291985 0.952153 -0.140249
H14   H     H_    0.566559 0.288993 0.966677 0.156960
H15   H     H_    0.639394 0.354360 0.868635 0.141744
H16   H     H_    0.648984 0.332095 0.050009 0.207386
S1    S     S_3+6 0.553544 0.972276 0.040746 0.001105
O10   O     O_2   0.511456 0.076434 0.089575 -0.288554
O11   O     O_2   0.512792 0.851209 0.059542 -0.332454
O12   O     O_3   0.628628 0.980555 0.133474 -0.516962
H17   H     H_    0.614852 0.960793 0.228557 0.348888
S2    S     S_3+6 0.374835 0.347578 0.123684 0.031714
O13   O     O_2   0.385568 0.283070 0.254948 -0.301351
O14   O     O_2   0.319103 0.436457 0.143680 -0.260574
O15   O     O_3   0.346144 0.238890 0.001545 -0.558400
H18   H     H_    0.299856 0.207219 0.032618 0.381618
O16   O     O_3   0.293757 0.655178 0.323410 -0.536366
C38   C     C_3   0.298788 0.775906 0.385509 -0.288321
H19   H     H_    0.331013 0.780287 0.482848 0.143831
H20   H     H_    0.246682 0.810160 0.406099 0.167988
H21   H     H_    0.324647 0.839368 0.312772 0.206005
S3    S     S_3+6 0.871948 0.717363 0.676904 0.042701
O17   O     O_2   0.932033 0.663930 0.748971 -0.262951
O18   O     O_2   0.899533 0.812713 0.580263 -0.280974
O19   O     O_3   0.823726 0.785972 0.797204 -0.499771
H22   H     H_    0.854500 0.855672 0.838681 0.378669
O20   O     O_3   0.716142 0.698253 0.632899 -0.557949
C39   C     C_3   0.707886 0.789304 0.535601 -0.275209
H23   H     H_    0.684242 0.868829 0.588030 0.181197
H24   H     H_    0.672117 0.753904 0.448923 0.105865
H25   H     H_    0.758734 0.824334 0.494741 0.203426
O21   O     O_3   0.697903 0.305365 0.374161 -0.558605
C40   C     C_3   0.714645 0.189078 0.419938 -0.255128
H26   H     H_    0.669251 0.121827 0.397970 0.190501
H27   H     H_    0.725742 0.190763 0.533752 0.148449
H28   H     H_    0.759142 0.154964 0.361789 0.188281

loop_
_geom_bond_atom_site_label_1
_geom_bond_atom_site_label_2
_ccdc_geom_bond_type
C16   C21   A    
C3    N2    A    
C14   S1    S    
C19   C20   A    
C8    O21   S    
S2    O15   S    
C2    C12   S    
Cu1   O7    S    
O16   C38   S    
C28   N5    A    
C7    C8    A    
C29   S2    S    
C1    C18   S    
Cu1   Cu2   S    
C4    N1    A    
C30   H10   S    
S2    O14   D    
C18   C19   A    
C1    O2    A    
C5    C6    A    
C3    N3    A    
S3    O18   D    
C15   C16   A    
C30   N6    A    
C2    C32   A    
C34   C35   A    
C32   H1    S    
C23   O5    A    
C35   C36   A    
C8    C9    A    
C35   H11   S    
C9    C10   A    
Cu1   O1    S    
Cu2   O4    S    
C23   O6    A    
O9    C37   S    
C22   C28   A    
C13   C14   A    
C40   H27   S    
C40   H26   S    
C13   O9    S    
C4    C34   S    
C7    C31   S    
O12   H17   S    
C37   H14   S    
C24   C25   A    
C15   H3    S    
C27   N6    A    
O20   C39   S    
S1    O11   D    
S3    O17   D    
C16   C17   A    
C25   C26   A    
C39   H25   S    
Cu2   O2    S    
C37   H15   S    
C29   C30   A    
C22   H5    S    
Cu2   O8    S    
C36   O16   S    
O21   C40   S    
C39   H24   S    
C17   C18   A    
C26   C27   A    
S2    O13   D    
C5    S3    S    
C38   H20   S    
C21   C23   S    
C4    N4    A    
C33   H9    S    
C22   C24   A    
C25   H7    S    
C40   H28   S    
N1    N2    A    
Cu2   O6    S    
C2    C36   A    
C31   O8    A    
N3    N4    A    
C11   C17   A    
C31   O7    A    
C9    H12   S    
S3    O19   S    
S1    O12   S    
C20   H4    S    
C6    C7    A    
C29   N5    A    
C38   H21   S    
C37   H16   S    
C32   C33   A    
C5    C10   A    
C3    C10   S    
C1    O1    A    
C12   O4    A    
C11   C13   A    
C24   H6    S    
C39   H23   S    
C33   C34   A    
C11   H2    S    
Cu1   O3    S    
C26   H8    S    
O15   H18   S    
C12   O3    A    
C19   H13   S    
S1    O10   D    
Cu2   N5    S    
C20   C21   A    
C38   H19   S    
C27   C28   A    
Cu1   O5    S    
C14   C15   A    
O19   H22   S    
Cu1   N6    S    
C6    O20   S    
