data_mof_unit_1842.cif
_audit_creation_date              2012-12-10T18:03:57-0500
_audit_creation_method            fapswitch 2.2
_symmetry_space_group_name_H-M    P1
_symmetry_Int_Tables_number       1
_space_group_crystal_system       triclinic
_cell_length_a                    10.854031
_cell_length_b                    9.600188
_cell_length_c                    10.997113
_cell_angle_alpha                 90.281629
_cell_angle_beta                  93.609408
_cell_angle_gamma                 90.46358
_cell_volume                      1143.5799479

loop_
_atom_site_label
_atom_site_type_symbol
_atom_type_description
_atom_site_fract_x
_atom_site_fract_y
_atom_site_fract_z
_atom_type_partial_charge
C1    C     C_R   0.263444 0.499191 0.512126 0.813346
C2    C     C_R   0.737290 0.500270 0.490533 0.832228
C3    C     C_R   0.412951 0.072088 0.428620 -0.007445
C4    C     C_R   0.585379 0.074522 0.573353 -0.011007
C5    C     C_R   0.408851 0.922882 0.436810 0.521895
C6    C     C_R   0.589878 0.925151 0.565064 0.537935
C7    C     C_R   0.501953 0.498718 0.262904 0.816716
C8    C     C_R   0.496371 0.499144 0.736958 0.811251
C9    C     C_R   0.495063 0.613399 0.061934 0.044570
C10   C     C_R   0.498948 0.613854 0.939212 0.043073
C11   C     C_R   0.502580 0.492484 0.130073 -0.099889
C12   C     C_R   0.492001 0.493170 0.869527 -0.098545
C13   C     C_R   0.505143 0.364204 0.063469 -0.092042
C14   C     C_R   0.486115 0.364565 0.934491 -0.091201
C15   C     C_3   0.503291 0.769355 0.931117 -0.231367
C16   C     C_3   0.491681 0.768773 0.072687 -0.249801
C17   C     C_R   0.061645 0.370747 0.519119 -0.058965
C18   C     C_R   0.937403 0.374081 0.474999 -0.098381
C19   C     C_R   0.872509 0.500817 0.483256 -0.269185
C20   C     C_R   0.129304 0.497533 0.525625 -0.308362
C21   C     C_R   0.938524 0.627478 0.498750 0.456219
C22   C     C_R   0.065736 0.625244 0.526994 0.341370
Cu1   Cu    Cu3+1 0.500000 0.640660 0.500000 1.117309
Cu2   Cu    Cu3+1 0.500000 0.359340 0.500000 0.962262
N1    N     N_R   0.500000 0.852070 0.500000 -0.205034
N2    N     N_R   0.500000 0.147940 0.500000 -0.265698
O1    O     O_R   0.319640 0.618740 0.499990 -0.506548
O2    O     O_R   0.680360 0.618740 0.500010 -0.463381
O3    O     O_R   0.319620 0.381170 0.499990 -0.645934
O4    O     O_R   0.680380 0.381170 0.500010 -0.658900
O5    O     O_R   0.499990 0.618810 0.319660 -0.531083
O6    O     O_R   0.500010 0.618810 0.680340 -0.535596
O7    O     O_R   0.499960 0.381240 0.319650 -0.603177
O8    O     O_R   0.500040 0.381240 0.680350 -0.600851
C23   C     C_2   0.530943 0.228848 0.123782 0.411110
H1    H     H_    0.466913 0.142375 0.109390 0.060299
O9    O     O_2   0.627647 0.211435 0.184282 -0.503922
C24   C     C_2   0.455857 0.229761 0.872584 0.421372
H2    H     H_    0.514688 0.140359 0.889358 0.077752
O10   O     O_2   0.360907 0.216158 0.807954 -0.511630
C25   C     C_2   0.626418 0.823973 0.893854 0.538374
H3    H     H_    0.646723 0.933904 0.904566 0.114142
O11   O     O_2   0.705187 0.746030 0.858342 -0.485559
C26   C     C_2   0.368983 0.821379 0.111767 0.540569
H4    H     H_    0.350650 0.931870 0.108095 0.105930
O12   O     O_2   0.288642 0.741471 0.142640 -0.485112
C27   C     C_2   0.393292 0.823940 0.854299 0.346118
H5    H     H_    0.301312 0.784075 0.867963 0.105280
O13   O     O_2   0.405956 0.910721 0.775241 -0.536025
C28   C     C_2   0.602260 0.823953 0.150111 0.377304
H6    H     H_    0.693453 0.782439 0.137891 0.114144
O14   O     O_2   0.590942 0.913530 0.227618 -0.528520
C29   C     C_2   0.112475 0.241353 0.578362 0.501157
H7    H     H_    0.206303 0.236933 0.616777 0.137590
O15   O     O_2   0.046591 0.140400 0.595079 -0.477223
C30   C     C_2   0.883536 0.254298 0.401153 0.495932
H8    H     H_    0.788934 0.254586 0.364637 0.138725
O16   O     O_2   0.947558 0.157788 0.370521 -0.466965
O17   O     O_3   0.876980 0.752307 0.483468 -0.681541
H9    H     H_    0.936386 0.830930 0.481153 0.392691
O18   O     O_3   0.123918 0.748357 0.563081 -0.698685
H10   H     H_    0.184392 0.727136 0.631751 0.342653
C31   C     C_2   0.325771 0.143127 0.338432 0.373067
H11   H     H_    0.323707 0.253391 0.328293 0.152830
O19   O     O_2   0.254831 0.078380 0.268281 -0.538835
C32   C     C_2   0.668593 0.148057 0.667173 0.373205
H12   H     H_    0.679541 0.258342 0.670567 0.156951
O20   O     O_2   0.725219 0.085649 0.748837 -0.562183
O21   O     O_3   0.314717 0.846435 0.379646 -0.615657
H13   H     H_    0.236366 0.890120 0.400567 0.380077
O22   O     O_3   0.682279 0.850370 0.624525 -0.607039
H14   H     H_    0.760524 0.902589 0.618141 0.375841

loop_
_geom_bond_atom_site_label_1
_geom_bond_atom_site_label_2
_ccdc_geom_bond_type
C28   O14   D    
Cu1   Cu2   S    
C31   O19   D    
C13   C23   S    
Cu1   O1    S    
C14   C24   S    
C3    N2    A    
C25   O11   D    
C9    C10   A    
C16   C26   S    
C29   O15   D    
C32   O20   D    
Cu2   O7    S    
C18   C30   S    
C8    C12   S    
Cu1   O6    S    
C17   C20   A    
C1    O3    A    
C17   C18   A    
C2    C19   S    
O17   H9    S    
C27   O13   D    
C8    O8    A    
C29   H7    S    
C26   H4    S    
C22   O18   S    
C24   O10   D    
C7    O7    A    
Cu2   O3    S    
C6    O22   S    
C10   C12   A    
C5    N1    A    
Cu2   O8    S    
C19   C21   A    
C9    C16   S    
C30   O16   D    
C21   O17   S    
C3    C31   S    
O21   H13   S    
C9    C11   A    
O18   H10   S    
C16   C28   S    
Cu2   O4    S    
C4    N2    A    
Cu1   O5    S    
C6    N1    A    
Cu1   O2    S    
C2    O4    A    
C20   C22   A    
C15   C16   S    
C8    O6    A    
C17   C29   S    
C12   C14   A    
C11   C13   A    
Cu1   N1    S    
C32   H12   S    
C30   H8    S    
C15   C25   S    
C4    C6    A    
C18   C19   A    
C25   H3    S    
C7    C11   S    
C23   O9    D    
C1    O1    A    
C28   H6    S    
C15   C27   S    
C1    C20   S    
C2    O2    A    
C26   O12   D    
C13   C14   A    
O22   H14   S    
C10   C15   S    
C21   C22   A    
C5    O21   S    
C7    O5    A    
C4    C32   S    
C27   H5    S    
Cu2   N2    S    
C31   H11   S    
C3    C5    A    
C23   H1    S    
C24   H2    S    
