data_mof_unit_41.cif
_audit_creation_date              2012-12-10T17:40:28-0500
_audit_creation_method            fapswitch 2.2
_symmetry_space_group_name_H-M    P1
_symmetry_Int_Tables_number       1
_space_group_crystal_system       triclinic
_cell_length_a                    13.688987
_cell_length_b                    15.083126
_cell_length_c                    15.85988
_cell_angle_alpha                 89.776773
_cell_angle_beta                  69.306574
_cell_angle_gamma                 90.029758
_cell_volume                      3063.33866725

loop_
_atom_site_label
_atom_site_type_symbol
_atom_type_description
_atom_site_fract_x
_atom_site_fract_y
_atom_site_fract_z
_atom_type_partial_charge
C1    C     C_R   0.500010 0.671541 0.499992 0.835911
C2    C     C_R   0.499965 0.328456 0.500058 0.830592
C3    C     C_R   0.381254 0.534398 0.095110 -0.209870
C4    C     C_R   0.618255 0.461261 0.905566 -0.208215
C5    C     C_R   0.311657 0.550654 0.051321 -0.179022
C6    C     C_R   0.687264 0.443877 0.949683 -0.173985
C7    C     C_R   0.409570 0.185201 0.504008 -0.239697
C8    C     C_R   0.590327 0.814793 0.496194 -0.238857
C9    C     C_R   0.499965 0.231621 0.500011 -0.068789
C10   C     C_R   0.499951 0.768371 0.500151 -0.064304
C11   C     C_R   0.590361 0.185326 0.496026 -0.203915
C12   C     C_R   0.409521 0.814657 0.504211 -0.212415
C13   C     C_R   0.590985 0.092960 0.496026 0.098528
C14   C     C_R   0.408875 0.907025 0.504265 0.102920
C15   C     C_R   0.499939 0.046469 0.500111 0.064632
C16   C     C_R   0.499918 0.953519 0.500184 0.065091
C17   C     C_R   0.408914 0.092828 0.504122 0.108424
C18   C     C_R   0.590953 0.907162 0.496150 0.108053
C19   C     C_R   0.681058 0.046346 0.492024 -0.191884
C20   C     C_R   0.318794 0.953639 0.508289 -0.195966
C21   C     C_R   0.681043 0.953909 0.492083 -0.198600
C22   C     C_R   0.318814 0.046079 0.508214 -0.198288
C23   C     C_R   0.436022 0.503850 0.672766 0.855918
C24   C     C_R   0.563889 0.495607 0.327338 0.851083
C25   C     C_R   0.227371 0.561352 0.449484 -0.006785
C26   C     C_R   0.772645 0.438615 0.550477 0.028520
C27   C     C_R   0.186057 0.438607 0.550340 0.084438
C28   C     C_R   0.813694 0.561876 0.450289 0.052516
C29   C     C_R   0.082407 0.437283 0.551775 -0.003835
C30   C     C_R   0.917349 0.563192 0.448846 -0.024898
C31   C     C_R   0.051755 0.500142 0.500169 0.090345
C32   C     C_R   0.948064 0.500211 0.500291 0.091296
C33   C     C_R   0.124767 0.562880 0.448374 -0.003803
C34   C     C_R   0.875124 0.437329 0.551899 -0.006962
C35   C     C_R   0.008993 0.374900 0.603377 -0.169306
C36   C     C_R   0.990758 0.625570 0.397237 -0.187423
C37   C     C_R   0.906279 0.374917 0.603434 -0.202309
C38   C     C_R   0.093570 0.625366 0.396937 -0.201905
C39   C     C_R   0.396564 0.513352 0.772106 -0.182975
C40   C     C_R   0.603078 0.484543 0.228260 -0.183372
C41   C     C_R   0.269856 0.557562 0.916359 -0.242596
C42   C     C_R   0.728145 0.435956 0.085038 -0.238233
C43   C     C_R   0.296822 0.548215 0.823194 0.438635
C44   C     C_R   0.700866 0.445721 0.178176 0.438163
C45   C     C_R   0.465909 0.491101 0.816121 -0.305387
C46   C     C_R   0.534933 0.508612 0.183654 -0.303479
C47   C     C_R   0.442029 0.506134 0.908737 0.099319
C48   C     C_R   0.557950 0.491280 0.091554 0.098347
C49   C     C_R   0.341148 0.538005 0.958851 0.079208
C50   C     C_R   0.657918 0.457315 0.042001 0.076807
C51   C     C_R   0.515257 0.490770 0.952855 0.083409
C52   C     C_R   0.484703 0.506331 0.047457 0.084296
Cu1   Cu    Cu3+1 0.402580 0.500010 0.499990 0.982741
Cu2   Cu    Cu3+1 0.597420 0.499990 0.500010 0.998616
H1    H     H_    0.233672 0.573363 0.090503 0.155265
H2    H     H_    0.764603 0.419493 0.910905 0.158808
H3    H     H_    0.284466 0.609054 0.409888 0.124953
H4    H     H_    0.715633 0.390753 0.589874 0.118354
H5    H     H_    0.210868 0.390740 0.589655 0.136195
H6    H     H_    0.788837 0.609868 0.411120 0.143835
H7    H     H_    0.031010 0.326069 0.643637 0.145573
H8    H     H_    0.968707 0.674452 0.357046 0.148469
H9    H     H_    0.851257 0.326092 0.643733 0.137276
H10   H     H_    0.148629 0.674111 0.356535 0.137891
H11   H     H_    0.463637 0.541142 0.223077 0.163985
H12   H     H_    0.538976 0.462040 0.775671 0.164720
H13   H     H_    0.193306 0.582515 0.956280 0.190653
H14   H     H_    0.803715 0.408751 0.045704 0.191711
H15   H     H_    0.350271 0.543802 0.166932 0.141393
H16   H     H_    0.649091 0.450359 0.834009 0.140913
H17   H     H_    0.339557 0.220816 0.507214 0.153415
H18   H     H_    0.660356 0.779182 0.492952 0.153567
H19   H     H_    0.660376 0.221037 0.492816 0.168453
H20   H     H_    0.339511 0.778942 0.507413 0.154845
H21   H     H_    0.751419 0.081373 0.488858 0.150662
H22   H     H_    0.248431 0.918611 0.511461 0.147515
H23   H     H_    0.751402 0.918987 0.488945 0.146653
H24   H     H_    0.248459 0.081002 0.511344 0.146243
N1    N     N_R   0.256170 0.500070 0.500040 -0.184989
N2    N     N_R   0.743830 0.499930 0.499960 -0.174443
O1    O     O_R   0.417730 0.629750 0.499970 -0.581904
O2    O     O_R   0.582270 0.370250 0.500030 -0.569895
O3    O     O_R   0.582270 0.629730 0.499980 -0.603345
O4    O     O_R   0.417730 0.370270 0.500020 -0.605142
O5    O     O_R   0.371590 0.500020 0.629830 -0.510695
O6    O     O_R   0.628410 0.499980 0.370170 -0.503512
O7    O     O_R   0.536130 0.499990 0.629840 -0.604107
O8    O     O_R   0.463870 0.500010 0.370160 -0.602123
S1    S     S_3+6 0.789823 0.404543 0.227519 0.010174
O9    O     O_2   0.733443 0.346548 0.307199 -0.288371
O10   O     O_2   0.874262 0.351069 0.160215 -0.293620
O11   O     O_3   0.845013 0.490574 0.260936 -0.541031
H25   H     H_    0.901168 0.464038 0.278608 0.369399
S2    S     S_3+6 0.204568 0.584408 0.775104 0.010955
O12   O     O_2   0.162187 0.505075 0.742252 -0.310679
O13   O     O_2   0.115539 0.632237 0.843758 -0.279812
O14   O     O_3   0.262410 0.653782 0.688442 -0.528556
H26   H     H_    0.212848 0.658671 0.655811 0.369617

loop_
_geom_bond_atom_site_label_1
_geom_bond_atom_site_label_2
_ccdc_geom_bond_type
C12   H20   S    
C27   C29   A    
C18   C21   A    
C2    O4    A    
C4    H16   S    
O14   H26   S    
C19   H21   S    
C41   H13   S    
Cu1   Cu2   S    
C40   C46   A    
C25   H3    S    
Cu1   O4    S    
C19   C21   A    
C27   N1    A    
C7    H17   S    
Cu2   O7    S    
C1    O1    A    
C15   C16   A    
C34   C37   A    
C43   S2    S    
C20   H22   S    
Cu1   O1    S    
C26   C34   A    
C7    C17   A    
C31   C33   A    
S1    O10   D    
C38   H10   S    
C39   C45   A    
C3    H15   S    
C48   C50   A    
C23   O7    A    
C42   H14   S    
C41   C43   A    
C5    C49   A    
C42   C44   A    
C36   H8    S    
C41   C49   A    
Cu2   O3    S    
C37   H9    S    
Cu2   N2    S    
C45   C47   A    
C46   C48   A    
C8    H18   S    
C13   C19   A    
C4    C51   A    
C51   C52   A    
C14   C20   A    
C22   H24   S    
C46   H11   S    
C4    C6    A    
C11   H19   S    
C6    H2    S    
Cu2   O6    S    
C47   C51   A    
S2    O14   S    
C8    C18   A    
C32   C34   A    
C9    C11   A    
C31   C32   A    
C40   C44   A    
C35   H7    S    
C24   O8    A    
C6    C50   A    
S1    O11   S    
S2    O13   D    
C26   H4    S    
C28   H6    S    
C10   C12   A    
C42   C50   A    
C16   C18   A    
C20   C22   A    
C13   C15   A    
C14   C16   A    
C2    O2    A    
Cu2   O2    S    
C15   C17   A    
C35   C37   A    
C25   N1    A    
C5    H1    S    
C1    C10   S    
C33   C38   A    
C12   C14   A    
C3    C5    A    
C39   C43   A    
C3    C52   A    
C1    O3    A    
C29   C35   A    
C17   C22   A    
C30   C36   A    
Cu1   N1    S    
C36   C38   A    
C29   C31   A    
C27   H5    S    
C47   C49   A    
C30   C32   A    
C11   C13   A    
C23   C39   S    
C28   C30   A    
O11   H25   S    
C24   C40   S    
Cu1   O8    S    
S2    O12   D    
C28   N2    A    
C26   N2    A    
C7    C9    A    
C48   C52   A    
C8    C10   A    
C23   O5    A    
C21   H23   S    
C45   H12   S    
Cu1   O5    S    
S1    O9    D    
C2    C9    S    
C24   O6    A    
C44   S1    S    
C25   C33   A    
