data_mof_unit_3972.cif
_audit_creation_date              2012-12-11T17:06:33-0500
_audit_creation_method            fapswitch 2.2
_symmetry_space_group_name_H-M    P1
_symmetry_Int_Tables_number       1
_space_group_crystal_system       triclinic
_cell_length_a                    6.958855
_cell_length_b                    14.482102
_cell_length_c                    15.989133
_cell_angle_alpha                 90.497402
_cell_angle_beta                  90.126948
_cell_angle_gamma                 90.056877
_cell_volume                      1611.30090281

loop_
_atom_site_label
_atom_site_type_symbol
_atom_type_description
_atom_site_fract_x
_atom_site_fract_y
_atom_site_fract_z
_atom_type_partial_charge
O1    O     O_R   0.494400 0.415450 0.412630 -0.538393
O2    O     O_R   0.823940 0.405730 0.586760 -0.539495
O3    O     O_R   0.994240 0.584550 0.587370 -0.528922
C1    C     C_R   0.655370 0.384145 0.615750 0.711160
O4    O     O_R   0.824110 0.404430 0.413240 -0.545571
O5    O     O_R   0.994420 0.583240 0.412620 -0.541790
C2    C     C_R   0.655231 0.382296 0.384200 0.687113
O6    O     O_R   0.494230 0.416760 0.587380 -0.537656
O7    O     O_3   0.660800 0.558670 0.500000 -0.369307
V1    V     V_3+5 0.935650 0.489120 0.500000 1.405868
O8    O     O_R   0.324140 0.594270 0.413240 -0.540634
C3    C     C_R   0.155076 0.615803 0.384009 0.686674
O9    O     O_R   0.323960 0.595570 0.586760 -0.544953
C4    C     C_R   0.155509 0.617937 0.615245 0.733851
V2    V     V_3+5 0.435660 0.510880 0.500000 1.403260
O10   O     O_3   0.160640 0.441330 0.500000 -0.374525
C5    C     C_3   0.069730 0.665891 0.772847 0.447894
C6    C     C_3   0.239901 0.717807 0.812301 0.141236
C7    C     C_3   0.120026 0.807290 0.811537 -0.063315
C8    C     C_3   0.946664 0.754698 0.772413 -0.248012
C9    C     C_3   0.025770 0.776833 0.683928 -0.185627
C10   C     C_3   0.197785 0.829985 0.723682 -0.152204
C11   C     C_3   0.318593 0.739691 0.724396 -0.176811
C12   C     C_3   0.146323 0.687438 0.685413 -0.080637
H1    H     H_    0.794591 0.761292 0.792366 0.116699
H2    H     H_    0.939048 0.800895 0.630011 0.120495
H3    H     H_    0.250359 0.898717 0.703672 0.109511
H4    H     H_    0.470797 0.733400 0.704475 0.125863
C13   C     C_R   0.273743 0.814649 0.238671 0.099404
C14   C     C_R   0.118781 0.814670 0.182551 -0.111540
C15   C     C_R   0.966918 0.752884 0.198356 -0.182404
H5    H     H_    0.844261 0.750291 0.156875 0.133108
C16   C     C_R   0.977883 0.689300 0.264458 -0.178191
H6    H     H_    0.862746 0.639921 0.272071 0.127801
C17   C     C_R   0.141412 0.685283 0.316560 -0.109297
C18   C     C_R   0.285069 0.751444 0.303828 0.100343
C19   C     C_3   0.495362 0.738106 0.291464 -0.409047
C20   C     C_3   0.483139 0.807303 0.220812 -0.398012
H7    H     H_    0.529818 0.666940 0.269714 0.166910
H8    H     H_    0.580843 0.763462 0.345812 0.174116
H9    H     H_    0.511237 0.776498 0.158098 0.171374
H10   H     H_    0.560846 0.872851 0.234443 0.167311
C21   C     C_R   0.497915 0.319433 0.744199 0.099862
C22   C     C_R   0.648481 0.318540 0.686124 -0.115681
C23   C     C_R   0.798471 0.254983 0.699271 -0.182515
H11   H     H_    0.919418 0.252506 0.657015 0.130088
C24   C     C_R   0.786990 0.189164 0.763349 -0.179635
H12   H     H_    0.899981 0.138304 0.768689 0.125838
C25   C     C_R   0.625038 0.184873 0.816006 -0.111102
C26   C     C_R   0.486328 0.254211 0.807434 0.103953
C27   C     C_3   0.273430 0.247013 0.799173 -0.410429
C28   C     C_3   0.286070 0.318708 0.730464 -0.394980
H13   H     H_    0.197532 0.272487 0.855948 0.173597
H14   H     H_    0.227833 0.177809 0.776074 0.167193
H15   H     H_    0.218474 0.385699 0.747834 0.193845
H16   H     H_    0.246863 0.291380 0.667552 0.169220
C29   C     C_R   0.493979 0.316427 0.255936 0.101417
C30   C     C_R   0.647367 0.316448 0.312863 -0.110793
C31   C     C_R   0.798814 0.254197 0.297373 -0.179937
H17   H     H_    0.920887 0.252008 0.339175 0.130970
C32   C     C_R   0.787876 0.189523 0.231243 -0.178011
H18   H     H_    0.902293 0.139650 0.223980 0.126809
C33   C     C_R   0.624918 0.185012 0.178814 -0.112110
C34   C     C_R   0.482758 0.252191 0.190702 0.102515
C35   C     C_3   0.271490 0.240696 0.201423 -0.406508
C36   C     C_3   0.283622 0.311087 0.272258 -0.399203
H19   H     H_    0.233530 0.170202 0.222799 0.165820
H20   H     H_    0.189146 0.265744 0.146470 0.176426
H21   H     H_    0.251963 0.281671 0.334712 0.169064
H22   H     H_    0.209001 0.376991 0.258117 0.168238
O11   O     O_R   0.771650 0.079500 0.908680 -0.538559
O12   O     O_R   0.441690 0.091800 0.082800 -0.539306
O13   O     O_R   0.271460 0.912980 0.083410 -0.536303
C37   C     C_R   0.610865 0.114063 0.111778 0.695284
O14   O     O_R   0.441930 0.090510 0.909280 -0.540193
O15   O     O_R   0.271690 0.911670 0.908660 -0.533597
C38   C     C_R   0.610981 0.113081 0.881064 0.699549
O16   O     O_R   0.771410 0.080810 0.083440 -0.539215
O17   O     O_3   0.605100 0.937580 0.996050 -0.370119
V3    V     V_3+5 0.330220 0.007110 0.996030 1.396749
O18   O     O_R   0.941980 0.900620 0.909250 -0.544882
C39   C     C_R   0.110550 0.877660 0.881178 0.705262
O19   O     O_R   0.941740 0.901920 0.082770 -0.544727
C40   C     C_R   0.110620 0.879891 0.111575 0.689123
V4    V     V_3+5 0.830220 0.985300 0.996000 1.386813
O20   O     O_3   0.105210 0.054870 0.996020 -0.368653
C41   C     C_3   0.360094 0.683782 0.885266 -0.814712
H23   H     H_    0.410574 0.612701 0.871539 0.214517
H24   H     H_    0.485648 0.730034 0.894780 0.210541
H25   H     H_    0.272430 0.683395 0.943124 0.194049
O21   O     O_3   0.015967 0.574618 0.792448 -0.583894
C42   C     C_3   0.894531 0.574098 0.862711 0.060211
H26   H     H_    0.752157 0.603119 0.845618 0.124608
H27   H     H_    0.957231 0.614734 0.915606 0.116586
C43   C     C_3   0.867590 0.474143 0.890449 -0.275382
H28   H     H_    0.806662 0.432724 0.837862 0.203870
H29   H     H_    0.009661 0.444428 0.907239 0.193139
C44   C     C_3   0.733748 0.467471 0.965616 -0.851551
H30   H     H_    0.792130 0.508069 0.019207 0.230335
H31   H     H_    0.720333 0.394155 0.984587 0.230182
H32   H     H_    0.588654 0.493651 0.949363 0.232675

loop_
_geom_bond_atom_site_label_1
_geom_bond_atom_site_label_2
_ccdc_geom_bond_type
C9    H2    S    
C43   H28   S    
C5    O21   S    
O11   C38   A    
C29   C36   S    
C1    O6    A    
O18   C39   A    
C43   C44   S    
C24   C25   A    
C23   H11   S    
C13   C18   A    
C19   C20   S    
O19   C40   A    
C18   C19   S    
C20   H10   S    
C19   H8    S    
O5    C3    A    
C14   C15   A    
C21   C28   S    
C36   H21   S    
C8    H1    S    
V2    O10   S    
C5    C8    S    
C6    C7    S    
C4    C12   S    
C32   C33   A    
V3    O20   S    
O11   V4    S    
O8    V2    S    
C7    C8    S    
C35   H19   S    
C13   C20   S    
C11   C12   S    
C15   C16   A    
O1    V2    S    
C7    C39   S    
O14   V3    S    
O13   C40   A    
C28   H15   S    
C31   H17   S    
O9    C4    A    
C16   H6    S    
C23   C24   A    
C31   C32   A    
C5    C12   S    
C27   C28   S    
C7    C10   S    
O17   V3    S    
C20   H9    S    
O12   C37   A    
O15   C39   A    
O21   C42   S    
O4    C2    A    
C1    C22   S    
C26   C27   S    
C30   C31   A    
V4    O20   S    
C42   C43   S    
C6    C11   S    
C27   H13   S    
C17   C18   A    
O2    C1    A    
C21   C22   A    
C13   C14   A    
C24   H12   S    
C35   H20   S    
C42   H27   S    
C5    C6    S    
C11   H4    S    
C3    C17   S    
O14   C38   A    
O3    C4    A    
O16   V4    S    
O19   V4    S    
C44   H30   S    
O6    V2    S    
C44   H31   S    
C10   H3    S    
C41   H24   S    
C9    C12   S    
O2    V1    S    
O17   V4    S    
C22   C23   A    
C29   C34   A    
O7    V1    S    
C2    C30   S    
O1    C2    A    
C15   H5    S    
O15   V3    S    
O5    V1    S    
O8    C3    A    
C43   H29   S    
C21   C26   A    
C33   C37   S    
C44   H32   S    
C6    C41   S    
C27   H14   S    
C34   C35   S    
O9    V2    S    
O7    V2    S    
O4    V1    S    
O12   V3    S    
O3    V1    S    
V1    O10   S    
C29   C30   A    
C36   H22   S    
C42   H26   S    
C16   C17   A    
O13   V3    S    
C25   C38   S    
C35   C36   S    
C14   C40   S    
C32   H18   S    
C33   C34   A    
C8    C9    S    
C41   H23   S    
C19   H7    S    
C25   C26   A    
C37   O16   A    
C41   H25   S    
C10   C11   S    
C9    C10   S    
O18   V4    S    
C28   H16   S    
