data_mof_unit_2646.cif
_audit_creation_date              2012-12-11T14:13:28-0500
_audit_creation_method            fapswitch 2.2
_symmetry_space_group_name_H-M    P1
_symmetry_Int_Tables_number       1
_space_group_crystal_system       triclinic
_cell_length_a                    11.815901
_cell_length_b                    18.429303
_cell_length_c                    10.035043
_cell_angle_alpha                 89.99999
_cell_angle_beta                  111.023738
_cell_angle_gamma                 90.0
_cell_volume                      2039.75317436

loop_
_atom_site_label
_atom_site_type_symbol
_atom_type_description
_atom_site_fract_x
_atom_site_fract_y
_atom_site_fract_z
_atom_type_partial_charge
C1    C     C_R   0.073615 0.645546 0.139083 0.644275
C2    C     C_2   0.631698 0.057521 0.989386 0.235418
C3    C     C_2   0.598993 0.430151 0.061405 0.251617
C4    C     C_2   0.368302 0.557521 0.010613 0.235417
C5    C     C_2   0.500797 0.947798 0.911523 0.199442
C6    C     C_2   0.526836 0.026199 0.902025 0.238155
C7    C     C_2   0.499203 0.447798 0.088477 0.199442
C8    C     C_2   0.473164 0.526199 0.097975 0.238155
C9    C     C_2   0.130037 0.938359 0.149570 0.237180
C10   C     C_2   0.983684 0.073906 0.891621 0.266682
C11   C     C_2   0.869963 0.438359 0.850430 0.237181
C12   C     C_R   0.861899 0.359939 0.839312 0.683861
C13   C     C_2   0.016316 0.573906 0.108379 0.266682
C14   C     C_2   0.028746 0.969482 0.056965 0.183467
C15   C     C_2   0.023310 0.048597 0.028494 0.195427
C16   C     C_2   0.971254 0.469482 0.943035 0.183468
C17   C     C_2   0.976690 0.548597 0.971506 0.195427
C18   C     C_R   0.471223 0.647804 0.444495 0.525353
C19   C     C_R   0.528481 0.352410 0.556129 0.553749
C20   C     C_R   0.528776 0.147804 0.555505 0.525353
C21   C     C_R   0.471519 0.852410 0.443871 0.553749
C22   C     C_R   0.352600 0.637713 0.012306 0.624425
C23   C     C_R   0.926385 0.145546 0.860917 0.644275
C24   C     C_R   0.624018 0.355109 0.035641 0.583384
C25   C     C_R   0.647399 0.137713 0.987694 0.624426
C26   C     C_R   0.375982 0.855109 0.964359 0.583384
C27   C     C_R   0.496755 0.424600 0.488114 -0.014770
C28   C     C_R   0.502705 0.576724 0.517306 -0.024017
C29   C     C_R   0.503245 0.924600 0.511886 -0.014770
C30   C     C_R   0.497295 0.076724 0.482694 -0.024017
C31   C     C_R   0.290769 0.425917 0.496797 -0.076800
C32   C     C_R   0.710795 0.575014 0.519197 -0.051873
C33   C     C_R   0.709231 0.925917 0.503203 -0.076800
C34   C     C_R   0.138101 0.859939 0.160688 0.683862
C35   C     C_R   0.289205 0.075014 0.480802 -0.051874
C36   C     C_R   0.204578 0.460481 0.538597 -0.066579
C37   C     C_R   0.799946 0.539737 0.484034 -0.116585
C38   C     C_R   0.795422 0.960481 0.461403 -0.066579
C39   C     C_R   0.200054 0.039737 0.515966 -0.116586
C40   C     C_R   0.218496 0.533069 0.581100 0.067698
C41   C     C_R   0.785235 0.467882 0.436355 0.020536
C42   C     C_R   0.781504 0.033069 0.418900 0.067698
C43   C     C_R   0.214765 0.967882 0.563645 0.020536
C44   C     C_R   0.323218 0.569819 0.586213 -0.029871
C45   C     C_R   0.397883 0.462068 0.504576 0.006289
C46   C     C_R   0.678680 0.431837 0.425024 -0.039549
C47   C     C_R   0.676782 0.069819 0.413787 -0.029871
C48   C     C_R   0.321320 0.931837 0.574976 -0.039549
C49   C     C_R   0.408624 0.536642 0.537289 0.005065
C50   C     C_R   0.591472 0.464857 0.470796 0.037779
C51   C     C_R   0.591376 0.036642 0.462711 0.005065
C52   C     C_R   0.408528 0.964856 0.529204 0.037779
C53   C     C_3   0.123140 0.570346 0.623514 -0.266277
C54   C     C_3   0.073422 0.639211 0.538061 -0.404086
C55   C     C_3   0.874277 0.433988 0.379382 -0.292039
C56   C     C_R   0.602189 0.539180 0.504782 0.063343
C57   C     C_3   0.918525 0.359041 0.441241 -0.399484
C58   C     C_3   0.876860 0.070346 0.376486 -0.266277
C59   C     C_3   0.926578 0.139211 0.461939 -0.404086
C60   C     C_3   0.125723 0.933988 0.620618 -0.292039
C61   C     C_3   0.081475 0.859041 0.558758 -0.399483
C62   C     C_R   0.602117 0.962068 0.495424 0.006289
C63   C     C_R   0.397811 0.039180 0.495218 0.063342
C64   C     C_2   0.401007 0.930151 0.938595 0.251618
Cr1   Cr    Cr6+3 0.187610 0.750000 0.979860 1.036514
Cr2   Cr    Cr6+3 0.812390 0.250000 0.020140 1.036514
Cr3   Cr    Cr6+3 0.245810 0.750000 0.341640 0.987575
Cr4   Cr    Cr6+3 0.754190 0.250000 0.658360 0.987575
Cr5   Cr    Cr6+3 0.485760 0.750000 0.219910 1.082583
Cr6   Cr    Cr6+3 0.514240 0.250000 0.780090 1.082583
H1    H     H_    0.129638 0.429249 0.543139 0.105714
H2    H     H_    0.661608 0.378763 0.375671 0.137486
H3    H     H_    0.661653 0.124276 0.370501 0.136040
H4    H     H_    0.338392 0.878763 0.624329 0.137486
H5    H     H_    0.147136 0.677699 0.543576 0.164895
H6    H     H_    0.020935 0.625069 0.425696 0.216133
H7    H     H_    0.011928 0.667216 0.583093 0.125876
H8    H     H_    0.049591 0.531951 0.617064 0.129889
H9    H     H_    0.160455 0.586322 0.734640 0.254343
H10   H     H_    0.970860 0.363398 0.557002 0.188115
H11   H     H_    0.842263 0.320521 0.422462 0.158537
H12   H     H_    0.873821 0.571338 0.480108 0.110526
H13   H     H_    0.979354 0.336634 0.388925 0.133140
H14   H     H_    0.831865 0.429459 0.262785 0.180974
H15   H     H_    0.952908 0.470207 0.400959 0.172125
H16   H     H_    0.852864 0.177699 0.456424 0.164894
H17   H     H_    0.979065 0.125069 0.574304 0.216133
H18   H     H_    0.988072 0.167216 0.416906 0.125876
H19   H     H_    0.950408 0.031951 0.382936 0.129889
H20   H     H_    0.839545 0.086322 0.265360 0.254342
H21   H     H_    0.029140 0.863398 0.442998 0.188115
H22   H     H_    0.157737 0.820521 0.577538 0.158537
H23   H     H_    0.870362 0.929249 0.456861 0.105714
H24   H     H_    0.020646 0.836634 0.611075 0.133140
H25   H     H_    0.168134 0.929459 0.737214 0.180974
H26   H     H_    0.047092 0.970207 0.599041 0.172125
H27   H     H_    0.362354 0.041065 0.768659 0.354751
H28   H     H_    0.635431 0.918070 0.858088 0.332943
H29   H     H_    0.637645 0.541065 0.231341 0.354751
H30   H     H_    0.364569 0.418070 0.141912 0.332942
H31   H     H_    0.699727 0.970211 0.100988 0.353805
H32   H     H_    0.259490 0.962290 0.977850 0.321733
H33   H     H_    0.300274 0.470211 0.899011 0.353805
H34   H     H_    0.126179 0.071338 0.519892 0.110527
H35   H     H_    0.740509 0.462290 0.022149 0.321733
H36   H     H_    0.059324 0.068654 0.229579 0.325464
H37   H     H_    0.860445 0.958166 0.931226 0.351680
H38   H     H_    0.940676 0.568654 0.770420 0.325465
H39   H     H_    0.139555 0.458166 0.068774 0.351680
H40   H     H_    0.018585 0.985020 0.809055 0.319235
H41   H     H_    0.234799 0.024548 0.182030 0.350917
H42   H     H_    0.981416 0.485020 0.190945 0.319236
H43   H     H_    0.765201 0.524548 0.817970 0.350917
H44   H     H_    0.274169 0.370168 0.460902 0.135204
H45   H     H_    0.725742 0.631020 0.553886 0.139120
H46   H     H_    0.725831 0.870168 0.539098 0.135204
H47   H     H_    0.274258 0.131020 0.446114 0.139121
H48   H     H_    0.338347 0.624276 0.629499 0.136040
O1    O     O_R   0.267710 0.668200 0.902110 -0.529483
O2    O     O_R   0.883280 0.330790 0.732340 -0.523966
O3    O     O_R   0.883280 0.169210 0.732340 -0.519169
O4    O     O_R   0.116720 0.830790 0.267660 -0.523966
O5    O     O_R   0.366710 0.675440 0.427590 -0.520200
O6    O     O_R   0.633290 0.324560 0.572410 -0.516533
O7    O     O_R   0.633290 0.175440 0.572410 -0.520200
O8    O     O_R   0.366710 0.824560 0.427590 -0.516533
O9    O     O_R   0.534870 0.669390 0.371760 -0.482443
O10   O     O_R   0.465130 0.330610 0.628240 -0.516580
O11   O     O_R   0.465130 0.169390 0.628240 -0.482444
O12   O     O_R   0.732290 0.331800 0.097890 -0.575683
O13   O     O_R   0.534870 0.830610 0.371760 -0.516580
O14   O     O_R   0.453080 0.674480 0.075160 -0.432620
O15   O     O_R   0.546920 0.325520 0.924840 -0.459061
O16   O     O_R   0.546920 0.174480 0.924840 -0.432620
O17   O     O_R   0.453080 0.825520 0.075160 -0.459061
O18   O     O_3   0.306390 0.750000 0.180470 -0.332882
O19   O     O_3   0.693610 0.250000 0.819530 -0.332882
O20   O     O_3   0.436575 0.069556 0.811525 -0.660696
O21   O     O_3   0.574233 0.894191 0.889812 -0.729462
O22   O     O_3   0.563424 0.569556 0.188476 -0.660697
O23   O     O_R   0.732290 0.168200 0.097890 -0.529482
O24   O     O_3   0.425767 0.394191 0.110187 -0.729461
O25   O     O_3   0.728442 0.016785 0.075712 -0.771160
O26   O     O_3   0.329937 0.984695 0.962722 -0.735592
O27   O     O_3   0.271558 0.516785 0.924287 -0.771159
O28   O     O_3   0.670063 0.484695 0.037278 -0.735593
O29   O     O_3   0.048409 0.096663 0.141698 -0.707395
O30   O     O_3   0.928153 0.926544 0.988872 -0.676656
O31   O     O_3   0.951590 0.596663 0.858302 -0.707395
O32   O     O_3   0.071847 0.426544 0.011128 -0.676656
O33   O     O_3   0.970886 0.029840 0.775722 -0.757466
O34   O     O_R   0.267710 0.831800 0.902110 -0.575683
O35   O     O_3   0.236024 0.975481 0.222182 -0.758543
O36   O     O_3   0.029115 0.529839 0.224278 -0.757466
O37   O     O_3   0.763976 0.475481 0.777818 -0.758544
O38   O     O_R   0.099480 0.674460 0.038850 -0.465494
O39   O     O_R   0.900520 0.325540 0.961150 -0.475447
O40   O     O_R   0.900520 0.174460 0.961150 -0.465494
O41   O     O_R   0.099480 0.825540 0.038850 -0.475446
O42   O     O_R   0.116720 0.669210 0.267660 -0.519169

loop_
_geom_bond_atom_site_label_1
_geom_bond_atom_site_label_2
_ccdc_geom_bond_type
C24   O15   A    
C44   C49   A    
C30   C51   A    
C55   H15   S    
C20   O11   A    
C4    C8    D    
C42   C58   S    
C28   C56   A    
C7    C8    S    
C23   O3    A    
Cr2   O23   S    
C20   C30   S    
C53   C54   S    
C53   H9    S    
C38   C42   A    
Cr1   O38   S    
C3    C7    D    
C10   C15   D    
C5    C6    S    
C10   O33   S    
H35   O28   S    
C23   O40   A    
C14   O30   S    
C19   O10   A    
C11   C16   D    
C26   C64   S    
C59   H18   S    
C41   C55   S    
C36   C40   A    
C26   O17   A    
C16   O32   S    
C12   O2    A    
C3    O28   S    
C21   O13   A    
C33   C62   A    
Cr6   O15   S    
C41   C46   A    
C57   H13   S    
Cr3   O42   S    
C44   H48   S    
C12   O39   A    
C19   C27   S    
C43   C48   A    
C31   H44   S    
C46   H2    S    
C61   H22   S    
Cr1   O41   S    
C18   O5    A    
C54   H7    S    
C34   O41   A    
C27   C45   A    
C9    O35   S    
C34   O4    A    
H42   O36   S    
C30   C63   A    
C2    O25   S    
C57   H10   S    
Cr4   O6    S    
Cr4   O19   S    
C2    C6    D    
C51   C62   A    
H32   O26   S    
H43   O37   S    
C5    O21   S    
C22   O1    A    
C25   O23   A    
C19   O6    A    
C48   H4    S    
C39   H34   S    
C18   C28   S    
C47   H3    S    
H40   O33   S    
Cr3   O8    S    
C61   H24   S    
C16   C17   S    
C39   C43   A    
C64   O26   S    
C58   C59   S    
C21   C29   S    
Cr6   O11   S    
C50   C56   A    
H36   O29   S    
H38   O31   S    
C5    C64   D    
C60   C61   S    
C6    O20   S    
C1    O38   A    
C35   C39   A    
C9    C14   D    
C18   O9    A    
C4    C22   S    
C28   C49   A    
C45   C49   A    
Cr5   O13   S    
Cr1   O1    S    
C32   C37   A    
C25   O16   A    
H41   O35   S    
C43   C60   S    
C58   H20   S    
C54   H6    S    
C60   H26   S    
Cr5   O18   S    
C55   C57   S    
C9    C34   S    
C57   H11   S    
C37   H12   S    
C35   H47   S    
C1    C13   S    
Cr3   O4    S    
H27   O20   S    
Cr2   O40   S    
H33   O27   S    
C27   C50   A    
Cr6   O10   S    
C29   C62   A    
C33   H46   S    
C22   O14   A    
C31   C36   A    
C1    O42   A    
C17   O31   S    
C3    C24   S    
C52   C63   A    
Cr3   O5    S    
Cr4   O3    S    
C47   C51   A    
C11   C12   S    
C36   H1    S    
C11   O37   S    
C10   C23   S    
C46   C50   A    
Cr3   O18   S    
C33   C38   A    
C13   C17   D    
H28   O21   S    
C8    O22   S    
Cr1   O34   S    
C26   O34   A    
C53   H8    S    
C55   H14   S    
C59   H16   S    
C20   O7    A    
H30   O24   S    
Cr4   O2    S    
C15   O29   S    
H37   O30   S    
H31   O25   S    
Cr2   O19   S    
Cr5   O14   S    
C4    O27   S    
C38   H23   S    
H39   O32   S    
C2    C25   S    
C42   C47   A    
Cr2   O39   S    
C32   H45   S    
C37   C41   A    
H29   O22   S    
C58   H19   S    
C59   H17   S    
C13   O36   S    
Cr1   O18   S    
C54   H5    S    
C60   H25   S    
C24   O12   A    
C40   C44   A    
Cr5   O9    S    
Cr6   O19   S    
Cr5   O17   S    
C40   C53   S    
C31   C45   A    
Cr6   O16   S    
C14   C15   S    
C35   C63   A    
C21   O8    A    
C48   C52   A    
Cr4   O7    S    
C32   C56   A    
C7    O24   S    
C61   H21   S    
Cr2   O12   S    
C29   C52   A    
