data_mof_unit_2842.cif
_audit_creation_date              2012-12-10T20:36:40-0500
_audit_creation_method            fapswitch 2.2
_symmetry_space_group_name_H-M    P1
_symmetry_Int_Tables_number       1
_space_group_crystal_system       triclinic
_cell_length_a                    10.552755
_cell_length_b                    10.664104
_cell_length_c                    9.877412
_cell_angle_alpha                 89.943249
_cell_angle_beta                  90.424016
_cell_angle_gamma                 90.505771
_cell_volume                      1111.48702414

loop_
_atom_site_label
_atom_site_type_symbol
_atom_type_description
_atom_site_fract_x
_atom_site_fract_y
_atom_site_fract_z
_atom_type_partial_charge
C1    C     C_R   0.504670 0.260112 0.500127 0.877746
C2    C     C_R   0.513695 0.936203 0.623168 0.139935
C3    C     C_3   0.413305 0.929593 0.729213 -0.483952
C4    C     C_R   0.257346 0.500429 0.499609 0.886111
C5    C     C_3   0.415763 0.071659 0.729496 -0.508071
C6    C     C_R   0.440785 0.405899 0.071126 0.196526
C7    C     C_R   0.572058 0.583214 0.072802 -0.196363
C8    C     C_R   0.573191 0.582811 0.928423 0.148624
C9    C     C_R   0.438883 0.407034 0.928467 0.135787
C10   C     C_3   0.300803 0.375677 0.922183 -0.560033
C11   C     C_3   0.303378 0.373965 0.076447 -0.000074
C12   C     C_3   0.958492 0.489269 0.372858 0.286534
C13   C     C_R   0.503751 0.740040 0.500002 0.872847
C14   C     C_R   0.742495 0.499605 0.500152 0.864007
C15   C     C_3   0.041826 0.511275 0.627596 -0.146348
C16   C     C_3   0.957817 0.401596 0.574300 -0.266982
C17   C     C_3   0.877130 0.499091 0.499550 -0.054874
C18   C     C_3   0.958418 0.608482 0.552804 -0.202709
C19   C     C_3   0.041232 0.599039 0.423899 -0.224102
C20   C     C_3   0.346702 0.142199 0.099503 -0.768782
C21   C     C_3   0.985507 0.492089 0.124967 -0.828393
C22   C     C_3   0.039520 0.393957 0.446689 0.079314
C23   C     C_3   0.122427 0.501262 0.498957 -0.023247
C24   C     C_R   0.514965 0.063961 0.623108 0.134575
C25   C     C_R   0.525601 0.128981 0.501700 -0.098524
C26   C     C_R   0.559974 0.065594 0.383431 -0.235430
C27   C     C_R   0.558365 0.935727 0.383066 -0.239952
C28   C     C_R   0.523410 0.871686 0.501404 -0.101307
H1    H     H_    0.920338 0.321382 0.634018 0.146091
H2    H     H_    0.920087 0.695735 0.597322 0.142638
H3    H     H_    0.079174 0.678610 0.363547 0.135659
H4    H     H_    0.579637 0.115316 0.290214 0.169080
H5    H     H_    0.576424 0.886580 0.289314 0.166246
H6    H     H_    0.322556 0.889034 0.690566 0.199283
H7    H     H_    0.745529 0.653992 0.885658 0.163074
H8    H     H_    0.628359 0.760418 0.888999 0.151317
H9    H     H_    0.180067 0.233936 0.145158 0.237842
H10   H     H_    0.336481 0.069828 0.179616 0.242245
H11   H     H_    0.449114 0.163547 0.088300 0.231811
H12   H     H_    0.448315 0.888425 0.825656 0.202668
H13   H     H_    0.307862 0.102445 0.004014 0.223753
H14   H     H_    0.845265 0.396693 0.229700 0.231451
H15   H     H_    0.927538 0.511354 0.033159 0.239038
H16   H     H_    0.038752 0.404782 0.107337 0.236076
H17   H     H_    0.051253 0.572624 0.141083 0.241665
H18   H     H_    0.009810 0.221351 0.365974 0.169372
H19   H     H_    0.140187 0.233328 0.463708 0.178258
H20   H     H_    0.326189 0.114066 0.691966 0.197168
H21   H     H_    0.454985 0.112604 0.824395 0.208180
H22   H     H_    0.628206 0.651705 0.128105 0.158213
H23   H     H_    0.243974 0.454097 0.880629 0.191748
H24   H     H_    0.281640 0.283795 0.873358 0.210981
H25   H     H_    0.249251 0.450871 0.123750 0.151959
H26   H     H_    0.078528 0.521994 0.732458 0.142936
N1    N     N_R   0.499140 0.499140 0.142800 -0.134013
N2    N     N_R   0.499140 0.499180 0.857150 -0.102083
N3    N     N_3   0.651491 0.670144 0.857068 -0.393387
N4    N     N_2   0.275748 0.252308 0.137897 -0.252409
N5    N     N_2   0.902690 0.474997 0.239006 -0.286384
N6    N     N_3   0.087857 0.278838 0.388362 -0.465373
O1    O     O_R   0.500020 0.316790 0.614690 -0.618868
O2    O     O_R   0.500000 0.316760 0.385350 -0.605585
O3    O     O_R   0.313960 0.499990 0.614650 -0.630347
O4    O     O_R   0.313940 0.499950 0.385310 -0.612100
O5    O     O_R   0.500000 0.683240 0.614650 -0.597252
O6    O     O_R   0.499980 0.683210 0.385310 -0.629329
O7    O     O_R   0.686060 0.500050 0.614690 -0.600685
O8    O     O_R   0.686040 0.500010 0.385350 -0.627292
Zn1   Zn    Zn3+2 0.500010 0.500020 0.653130 0.956118
Zn2   Zn    Zn3+2 0.499990 0.499980 0.346870 0.947373

loop_
_geom_bond_atom_site_label_1
_geom_bond_atom_site_label_2
_ccdc_geom_bond_type
H14   N5    S    
C12   C17   S    
C15   C18   S    
C19   C23   S    
C14   O7    A    
C13   C28   S    
C26   H4    S    
C18   H2    S    
O4    Zn2   S    
C8    N3    S    
C11   N4    S    
C20   H10   S    
C9    C10   S    
C4    O4    A    
H9    N4    S    
C11   H25   S    
C17   C18   S    
C7    N1    A    
C6    N1    A    
H7    N3    S    
C22   N6    S    
C19   H3    S    
C1    O2    A    
C8    N2    A    
C6    C9    A    
C15   C23   S    
C2    C3    S    
C16   H1    S    
C3    C5    S    
C10   H24   S    
C7    C8    A    
C9    N2    A    
C13   O5    A    
C27   H5    S    
C1    C25   S    
C14   C17   S    
C5    H21   S    
C26   C27   A    
O6    Zn2   S    
C5    C24   S    
O5    Zn1   S    
C10   H23   S    
C12   C19   S    
C4    O3    A    
C3    H12   S    
C21   N5    S    
C21   H17   S    
C13   O6    A    
C2    C24   A    
C5    H20   S    
C20   H11   S    
N1    Zn2   S    
C2    C28   A    
C10   C11   S    
C20   N4    S    
C15   C16   S    
C21   H16   S    
C15   H26   S    
C12   C22   S    
C6    C11   S    
C20   H13   S    
C24   C25   A    
O2    Zn2   S    
O8    Zn2   S    
H8    N3    S    
O1    Zn1   S    
C27   C28   A    
N2    Zn1   S    
C4    C23   S    
C14   O8    A    
C22   C23   S    
C18   C19   S    
C16   C22   S    
C3    H6    S    
H18   N6    S    
C25   C26   A    
C21   H15   S    
C12   N5    S    
O3    Zn1   S    
C7    H22   S    
H19   N6    S    
C16   C17   S    
O7    Zn1   S    
C1    O1    A    
