data_mof_unit_1380.cif
_audit_creation_date              2012-12-11T18:40:07-0500
_audit_creation_method            fapswitch 2.2
_symmetry_space_group_name_H-M    P1
_symmetry_Int_Tables_number       1
_space_group_crystal_system       triclinic
_cell_length_a                    8.347582
_cell_length_b                    14.26127
_cell_length_c                    18.928511
_cell_angle_alpha                 96.410546
_cell_angle_beta                  90.62433
_cell_angle_gamma                 91.439254
_cell_volume                      2238.37582615

loop_
_atom_site_label
_atom_site_type_symbol
_atom_type_description
_atom_site_fract_x
_atom_site_fract_y
_atom_site_fract_z
_atom_type_partial_charge
Ba1   Ba    Ba6+2 0.843770 0.541130 0.463760 1.792412
Ba2   Ba    Ba6+2 0.346040 0.458940 0.536250 1.713462
C1    C     C_3   0.601641 0.882086 0.268421 1.105855
C2    C     C_R   0.013229 0.528066 0.723896 0.092922
C3    C     C_R   0.891336 0.395037 0.806967 -0.125439
C4    C     C_3   0.055601 0.818685 0.265771 0.863910
C5    C     C_R   0.820779 0.404056 0.740202 -0.007033
C6    C     C_R   0.354394 0.558644 0.175387 -0.167125
C7    C     C_R   0.407254 0.562643 0.246293 0.013067
C8    C     C_R   0.160877 0.437558 0.198811 -0.157032
C9    C     C_R   0.184289 0.462275 0.272852 0.049349
C10   C     C_R   0.998528 0.465327 0.841003 0.042882
C11   C     C_R   0.889717 0.466405 0.697584 -0.157481
C12   C     C_3   0.540473 0.780103 0.266660 0.666569
C13   C     C_R   0.233139 0.492293 0.147735 -0.007050
C14   C     C_R   0.312719 0.522469 0.295579 -0.233824
C15   C     C_R   0.813188 0.386851 0.965420 -0.107184
C16   C     C_3   0.074556 0.919284 0.244415 0.272166
C17   C     C_R   0.731448 0.352268 0.021581 0.432111
C18   C     C_R   0.765766 0.395431 0.090154 -0.132397
C19   C     C_R   0.898376 0.455240 0.101118 -0.158521
C20   C     C_R   0.015109 0.458600 0.048563 0.001971
C21   C     C_R   0.963143 0.436579 0.975929 -0.016678
C22   C     C_R   0.177316 0.483251 0.068167 -0.007103
C23   C     C_3   0.505845 0.321493 0.323445 0.328241
C24   C     C_R   0.283125 0.495747 0.010639 0.030171
C25   C     C_R   0.224957 0.490433 0.937960 0.030345
C26   C     C_R   0.061472 0.463533 0.918815 0.044138
C27   C     C_R   0.449591 0.511014 0.022912 -0.076375
C28   C     C_3   0.181210 0.760502 0.622474 0.337027
C29   C     C_R   0.550462 0.538042 0.970669 -0.085014
C30   C     C_R   0.496111 0.532520 0.901325 -0.060461
C31   C     C_R   0.339012 0.503735 0.884723 -0.057867
C32   C     C_R   0.705447 0.935976 0.524972 0.010288
C33   C     C_R   0.515820 0.799751 0.493498 0.020815
C34   C     C_3   0.471556 0.295248 0.244746 -0.394741
C35   C     C_R   0.375599 0.764611 0.457519 0.328752
C36   C     C_R   0.276439 0.823961 0.424133 -0.049233
C37   C     C_R   0.319688 0.918827 0.423546 0.517084
C38   C     C_R   0.466324 0.954200 0.453759 0.033239
C39   C     C_R   0.564913 0.895588 0.490597 -0.143931
C40   C     C_3   0.161160 0.865579 0.643887 0.857042
C41   C     C_R   0.648570 0.089049 0.486592 -0.038154
C42   C     C_R   0.750846 0.030611 0.520909 -0.003143
C43   C     C_R   0.687493 0.186208 0.489858 0.034352
C44   C     C_R   0.825726 0.223622 0.525524 -0.298022
C45   C     C_3   0.188270 0.246776 0.728197 0.503823
C46   C     C_R   0.934622 0.164857 0.552347 -0.010203
C47   C     C_R   0.896318 0.068518 0.551756 -0.079913
C48   C     C_R   0.509223 0.049472 0.451824 0.098433
C49   C     C_3   0.996594 0.244155 0.381489 0.251625
C50   C     C_3   0.971460 0.138381 0.358612 0.248181
C51   C     C_3   0.686263 0.680261 0.674768 0.299316
C52   C     C_3   0.701245 0.716043 0.753417 0.365851
C53   C     C_3   0.355853 0.978697 0.627922 0.096972
C54   C     C_3   0.845964 0.139549 0.247950 0.279580
C55   C     C_3   0.375643 0.266679 0.891668 0.210023
C56   C     C_3   0.191412 0.211147 0.801327 1.151456
C57   C     C_3   0.028972 0.150851 0.885958 0.258922
C58   C     C_3   0.041786 0.687998 0.180596 0.258776
C59   C     C_3   0.599253 0.026957 0.828270 0.270568
C60   C     C_3   0.563272 0.235864 0.061914 0.096611
C61   C     C_3   0.231596 0.926633 0.144256 0.154585
C62   C     C_3   0.720278 0.183615 0.734414 0.288563
C63   C     C_3   0.703730 0.075832 0.723181 0.906007
C64   C     C_R   0.050132 0.536450 0.797686 -0.046759
F1    F     F_    0.999567 0.884227 0.645943 -0.686313
F2    F     F_    0.693908 0.906979 0.328860 -0.660926
F3    F     F_    0.752208 0.645166 0.791488 -0.778888
F4    F     F_    0.474571 0.942101 0.269562 -0.765333
F5    F     F_    0.291776 0.134110 0.796921 -0.742994
F6    F     F_    0.844137 0.035049 0.743244 -0.685429
F7    F     F_    0.327541 0.673526 0.459840 -0.712427
F8    F     F_    0.213568 0.978138 0.398723 -0.760559
H1    H     H_    0.483430 0.772029 0.318374 -0.752831
H2    H     H_    0.583111 0.740026 0.773818 0.025186
H3    H     H_    0.449902 0.765161 0.223255 -0.151679
H4    H     H_    0.396345 0.351106 0.348848 -0.000309
H5    H     H_    0.604243 0.375583 0.329489 0.056321
H6    H     H_    0.359267 0.251682 0.236989 0.126430
H7    H     H_    0.459535 0.359951 0.218028 0.047025
H8    H     H_    0.571675 0.254734 0.219916 0.100155
H9    H     H_    0.674389 0.890632 0.220672 -0.050657
H10   H     H_    0.968965 0.959226 0.264121 0.110141
H11   H     H_    0.311397 0.263894 0.713044 0.070813
H12   H     H_    0.208706 0.882147 0.699549 0.010762
H13   H     H_    0.116227 0.311072 0.730282 -0.147088
H14   H     H_    0.712504 0.207197 0.791978 -0.005976
H15   H     H_    0.838747 0.204083 0.714307 -0.001956
H16   H     H_    0.687548 0.054670 0.665470 -0.028426
H17   H     H_    0.127392 0.594815 0.819503 0.047212
H18   H     H_    0.868965 0.330434 0.829251 0.074844
H19   H     H_    0.410028 0.607558 0.142938 0.064802
H20   H     H_    0.080227 0.378592 0.182076 0.068332
H21   H     H_    0.845758 0.467173 0.643684 0.036716
H22   H     H_    0.346512 0.532406 0.351270 0.125814
H23   H     H_    0.879888 0.276056 0.394595 0.010464
H24   H     H_    0.749334 0.374906 0.916290 0.081275
H25   H     H_    0.690009 0.385155 0.134745 0.076644
H26   H     H_    0.178546 0.790764 0.271768 -0.220293
H27   H     H_    0.914996 0.493493 0.152540 0.136976
H28   H     H_    0.507056 0.498931 0.071849 0.078299
H29   H     H_    0.674778 0.556632 0.983196 0.090893
H30   H     H_    0.578741 0.544351 0.859516 0.167942
H31   H     H_    0.312679 0.487565 0.829086 0.119019
H32   H     H_    0.978457 0.024053 0.576166 0.195773
H33   H     H_    0.853950 0.298511 0.528918 0.052334
H34   H     H_    0.078596 0.254360 0.428510 0.001555
H35   H     H_    0.779067 0.895942 0.556858 0.174935
H36   H     H_    0.430948 0.092679 0.424097 0.141102
H37   H     H_    0.180294 0.956750 0.271444 0.103199
H38   H     H_    0.310115 0.745893 0.615381 -0.092822
H39   H     H_    0.113214 0.738492 0.572294 0.069914
H40   H     H_    0.454906 0.936283 0.646274 0.043720
H41   H     H_    0.307048 0.026008 0.672746 0.194489
H42   H     H_    0.405786 0.024580 0.589990 0.096728
H43   H     H_    0.839964 0.216726 0.245359 0.035117
H44   H     H_    0.744911 0.105305 0.215399 0.067942
H45   H     H_    0.962327 0.101359 0.406837 0.084044
H46   H     H_    0.958696 0.112521 0.223438 0.004300
H47   H     H_    0.403163 0.329034 0.930029 0.123086
H48   H     H_    0.482539 0.253078 0.858152 0.107496
H49   H     H_    0.348729 0.206239 0.922293 0.049593
H50   H     H_    0.047332 0.211112 0.928081 0.015204
H51   H     H_    0.116257 0.094613 0.892160 0.076797
H52   H     H_    0.908259 0.120191 0.893681 0.044008
H53   H     H_    0.060494 0.637031 0.219964 0.027218
H54   H     H_    0.156891 0.710001 0.157583 0.005321
H55   H     H_    0.966576 0.653359 0.136151 0.063232
H56   H     H_    0.078558 0.109357 0.330211 0.082508
H57   H     H_    0.640077 0.092809 0.860899 0.005768
H58   H     H_    0.686611 0.969891 0.831118 0.072598
H59   H     H_    0.486445 0.003055 0.851908 0.075735
H60   H     H_    0.480308 0.279222 0.096414 0.058149
H61   H     H_    0.668020 0.213632 0.092332 0.024299
H62   H     H_    0.495885 0.170695 0.040423 0.059765
H63   H     H_    0.289370 0.995617 0.164712 0.084514
H64   H     H_    0.226375 0.922920 0.085433 0.058964
H65   H     H_    0.304332 0.867057 0.158078 0.059928
H66   H     H_    0.805608 0.659095 0.654729 0.000936
H67   H     H_    0.601783 0.618388 0.668197 0.047261
H68   H     H_    0.789099 0.776240 0.761212 0.104429
O1    O     O_2   0.890230 0.433890 0.328780 -0.482067
O2    O     O_2   0.267720 0.170637 0.558558 -0.479925
O3    O     O_3   0.124212 0.176190 0.678442 -0.618281
O4    O     O_3   0.136580 0.442380 0.417110 -0.462440
O5    O     O_3   0.551510 0.615640 0.531790 -0.416901
O6    O     O_2   0.394780 0.268760 0.474430 -0.462999
O7    O     O_3   0.550746 0.240400 0.353206 -0.600057
O8    O     O_2   0.500415 0.380163 0.766795 -0.532497
O9    O     O_3   0.599764 0.224092 0.696517 -0.640589
O10   O     O_3   0.636390 0.607640 0.365630 -0.411034
O11   O     O_2   0.737607 0.539744 0.242456 -0.511334
O12   O     O_3   0.628753 0.753699 0.639141 -0.675964
O13   O     O_3   0.066535 0.284479 0.325387 -0.671245
O14   O     O_3   0.668865 0.718998 0.253677 -0.564364
O15   O     O_2   0.794910 0.731270 0.525620 -0.454363
O16   O     O_3   0.045950 0.658760 0.399470 -0.416022
O17   O     O_2   0.976917 0.824694 0.463645 -0.433018
O18   O     O_3   0.235113 0.918664 0.593905 -0.722656
O19   O     O_3   0.827784 0.118486 0.318664 -0.604031
O20   O     O_3   0.243169 0.288330 0.850765 -0.743016
O21   O     O_3   0.034315 0.181612 0.817631 -0.650310
O22   O     O_3   0.960313 0.766066 0.212351 -0.610117
O23   O     O_3   0.968055 0.823436 0.329412 -0.541452
O24   O     O_3   0.566505 0.042608 0.757285 -0.657532
O25   O     O_3   0.609897 0.284874 0.004537 -0.687381
O26   O     O_3   0.074197 0.919533 0.169514 -0.651083
O27   O     O_2   0.299470 0.566150 0.671260 -0.501655
O28   O     O_3   0.053110 0.557700 0.582890 -0.481308
O29   O     O_3   0.553300 0.392440 0.634370 -0.442211
O30   O     O_3   0.121623 0.714959 0.678519 -0.665761
O31   O     O_3   0.638180 0.384440 0.468210 -0.493317
O32   O     O_3   0.143740 0.341320 0.600540 -0.500004
P1    P     P_3+3 0.064140 0.407250 0.340900 0.981137
P2    P     P_3+3 0.622060 0.719380 0.547490 1.061322
P3    P     P_3+3 0.072444 0.781308 0.399737 1.143594
P4    P     P_3+3 0.125560 0.592830 0.659110 0.995402
P5    P     P_3+3 0.119621 0.216622 0.594648 0.959607
P6    P     P_3+3 0.609697 0.607258 0.274725 1.030261
P7    P     P_3+3 0.569701 0.268043 0.445160 0.972120
P8    P     P_3+3 0.625453 0.347361 0.710409 0.911591

loop_
_geom_bond_atom_site_label_1
_geom_bond_atom_site_label_2
_ccdc_geom_bond_type
C42   C47   A    
C49   H23   S    
C45   O3    S    
Ba1   P2    S    
Ba2   O4    S    
O13   P1    S    
Ba2   O27   S    
C51   H66   S    
O23   P3    S    
C54   H43   S    
O29   P8    S    
C1    F2    S    
O1    P1    D    
C59   H59   S    
O8    P8    D    
C51   C52   S    
C25   C31   A    
C57   H52   S    
C18   H25   S    
C49   O13   S    
C24   C25   A    
C15   C21   A    
O28   P4    S    
C33   P2    S    
C45   H11   S    
Ba1   O16   S    
C33   C35   A    
O16   P3    S    
C22   C24   A    
C59   O24   S    
C8    C13   A    
Ba2   O31   S    
C36   C37   A    
C38   C48   A    
C56   F5    S    
C37   F8    S    
C53   H42   S    
C8    H20   S    
Ba2   O6    S    
Ba1   O28   S    
C48   H36   S    
Ba1   O10   S    
C23   O7    S    
Ba1   Ba2   S    
C12   H3    S    
C60   H62   S    
C2    C11   A    
C59   H58   S    
C58   O22   S    
C55   H48   S    
C55   O20   S    
C17   C18   A    
C34   H8    S    
O6    P7    D    
C16   H10   S    
C30   H30   S    
C40   H12   S    
C15   H24   S    
Ba2   O29   S    
C19   H27   S    
C29   H29   S    
C60   O25   S    
C4    O23   S    
O31   P7    S    
C51   O12   S    
C36   P3    S    
C19   C20   A    
C44   H33   S    
O7    P7    S    
C61   H63   S    
Ba1   O4    S    
C32   C39   A    
C17   O25   S    
C62   H15   S    
O17   P3    D    
C56   O21   S    
C54   H46   S    
O12   P2    S    
C63   H16   S    
C4    C16   S    
C44   C46   A    
C14   H22   S    
C62   O9    S    
C43   P7    S    
C23   H4    S    
C58   H54   S    
C1    F4    S    
C32   C42   A    
C16   H37   S    
C3    C10   A    
C34   H6    S    
C37   C38   A    
C3    C5    A    
C16   O26   S    
O5    P2    S    
C6    C7    A    
C23   C34   S    
Ba2   O5    S    
C43   C44   A    
C10   C64   A    
C63   O24   S    
C49   C50   S    
C28   H38   S    
C45   H13   S    
C60   H61   S    
O10   P6    S    
C41   C42   A    
C35   C36   A    
Ba1   O1    S    
C55   H49   S    
C9    C14   A    
C29   C30   A    
O2    P5    D    
C34   H7    S    
Ba1   O31   S    
O4    P1    S    
O3    P5    S    
C31   H31   S    
C13   C22   S    
C21   C26   A    
C41   C43   A    
C28   O30   S    
C64   H17   S    
C7    P6    S    
Ba2   O28   S    
C52   H2    S    
C38   C39   A    
C52   H68   S    
C4    O22   S    
C49   H34   S    
C6    C13   A    
C1    H9    S    
C40   F1    S    
C61   H64   S    
C20   C22   A    
Ba1   O5    S    
C1    C12   S    
C56   O20   S    
O27   P4    D    
O9    P8    S    
O30   P4    S    
C57   H50   S    
C35   F7    S    
Ba1   P1    S    
C5    P8    S    
C12   O14   S    
C23   H5    S    
C54   H44   S    
C7    C14   A    
C58   H53   S    
C40   O18   S    
C6    H19   S    
C2    P4    S    
C58   H55   S    
C61   O26   S    
C41   C48   A    
C47   H32   S    
C53   H40   S    
C61   H65   S    
C57   H51   S    
C63   F6    S    
C50   O19   S    
C9    P1    S    
C53   O18   S    
C50   H56   S    
C30   C31   A    
C60   H60   S    
Ba1   O15   S    
C27   C29   A    
C62   C63   S    
C45   C56   S    
C2    C64   A    
O14   P6    S    
C52   F3    S    
C53   H41   S    
C46   C47   A    
C54   O19   S    
C15   C17   A    
C27   H28   S    
C51   H67   S    
C33   C39   A    
O11   P6    D    
C3    H18   S    
C57   O21   S    
C8    C9    A    
C59   H57   S    
O15   P2    D    
C55   H47   S    
C50   H45   S    
C5    C11   A    
C18   C19   A    
C11   H21   S    
C24   C27   A    
C25   C26   A    
C32   H35   S    
C20   C21   A    
C28   C40   S    
Ba2   P4    S    
C10   C26   S    
O32   P5    S    
C62   H14   S    
C46   P5    S    
Ba2   O32   S    
C12   H1    S    
C4    H26   S    
C28   H39   S    
