data_mof_unit_1050.cif
_audit_creation_date              2012-12-11T15:55:41-0500
_audit_creation_method            fapswitch 2.2
_symmetry_space_group_name_H-M    P1
_symmetry_Int_Tables_number       1
_space_group_crystal_system       triclinic
_cell_length_a                    11.36174
_cell_length_b                    11.417369
_cell_length_c                    18.74748
_cell_angle_alpha                 89.057186
_cell_angle_beta                  88.776022
_cell_angle_gamma                 57.935574
_cell_volume                      2060.44828523

loop_
_atom_site_label
_atom_site_type_symbol
_atom_type_description
_atom_site_fract_x
_atom_site_fract_y
_atom_site_fract_z
_atom_type_partial_charge
C1    C     C_R   0.357384 0.775360 0.399453 0.635128
C2    C     C_R   0.577071 0.066203 0.190173 0.051604
C3    C     C_R   0.352648 0.313154 0.171667 0.097941
C4    C     C_R   0.419673 0.208087 0.290834 0.314360
C5    C     C_R   0.454721 0.201955 0.217707 0.025108
C6    C     C_R   0.103019 0.687852 0.335326 0.187246
C7    C     C_R   0.008603 0.770598 0.389956 0.480186
C8    C     C_R   0.543412 0.978684 0.162885 0.192752
C9    C     C_R   0.642791 0.861578 0.122239 0.479905
C10   C     C_R   0.246559 0.437832 0.203509 0.284073
C11   C     C_R   0.231736 0.449276 0.278882 -0.009774
C12   C     C_R   0.378997 0.353374 0.391255 0.605839
C13   C     C_R   0.902119 0.750728 0.410820 0.309035
C14   C     C_R   0.878220 0.665965 0.369355 -0.085457
C15   C     C_R   0.976188 0.582113 0.317108 0.345752
C16   C     C_R   0.105007 0.570614 0.313270 -0.050597
C17   C     C_R   0.332057 0.335871 0.321413 0.081677
C18   C     C_R   0.946631 0.298185 0.192811 0.013432
C19   C     C_R   0.823624 0.311950 0.212792 -0.045377
C20   C     C_R   0.788929 0.319014 0.284345 0.008557
C21   C     C_R   0.995251 0.303039 0.320298 0.492943
C22   C     C_R   0.038674 0.282441 0.247155 0.416668
C23   C     C_R   0.788051 0.372472 0.407403 0.633898
C24   C     C_3   0.786444 0.207995 0.198795 0.585318
C25   C     C_3   0.761061 0.209696 0.278079 0.527083
C26   C     C_R   0.863777 0.326868 0.338476 0.083217
C27   C     C_R   0.320397 0.858085 0.179574 0.019957
C28   C     C_R   0.447762 0.768602 0.208705 -0.017419
C29   C     C_R   0.463615 0.763037 0.282030 -0.034773
C30   C     C_R   0.226078 0.938920 0.301034 0.434631
C31   C     C_R   0.210252 0.948386 0.226872 -0.038116
C32   C     C_3   0.541872 0.617573 0.198300 0.153236
C33   C     C_3   0.565874 0.613770 0.277907 0.598116
C34   C     C_R   0.339471 0.772744 0.602453 0.589238
C35   C     C_R   0.350882 0.835411 0.329226 0.026852
C36   C     C_R   0.281721 0.285362 0.804440 -0.071897
C37   C     C_R   0.409178 0.196526 0.771445 0.056518
C38   C     C_R   0.430434 0.210793 0.701171 -0.045887
C39   C     C_R   0.188496 0.384129 0.686874 0.406756
C40   C     C_R   0.167610 0.379430 0.760979 0.228514
C41   C     C_3   0.552784 0.161129 0.790707 0.497461
C42   C     C_3   0.574160 0.180980 0.712615 0.314438
C43   C     C_R   0.324343 0.310962 0.658706 -0.000078
C44   C     C_R   0.843204 0.317360 0.831014 -0.014449
C45   C     C_R   0.368041 0.347542 0.593306 0.621320
C46   C     C_R   0.816515 0.435051 0.795698 -0.018894
C47   C     C_R   0.805395 0.447419 0.723184 0.012805
C48   C     C_R   0.861754 0.213218 0.714310 0.431134
C49   C     C_R   0.869083 0.202159 0.789353 0.232187
C50   C     C_3   0.705299 0.579048 0.811851 0.324482
C51   C     C_3   0.685412 0.594419 0.732059 0.483920
C52   C     C_R   0.819281 0.340390 0.681132 -0.002667
C53   C     C_R   0.294900 0.869726 0.819871 -0.047254
C54   C     C_R   0.195794 0.855472 0.786668 -0.035821
C55   C     C_R   0.190864 0.849331 0.713529 0.011231
C56   C     C_R   0.763010 0.376520 0.609353 0.616444
C57   C     C_R   0.368975 0.902079 0.700237 0.286976
C58   C     C_R   0.379787 0.899266 0.775088 0.280018
C59   C     C_3   0.147861 0.758343 0.801611 0.692215
C60   C     C_3   0.131534 0.758794 0.721458 0.637421
C61   C     C_R   0.292038 0.851707 0.669467 -0.028976
C62   C     C_R   0.978300 0.285769 0.116485 0.574752
C63   C     C_R   0.326351 0.287985 0.096012 0.647807
C64   C     C_R   0.305110 0.896231 0.103841 0.624676
C65   C     C_R   0.889172 0.306765 0.904074 0.577361
C66   C     C_R   0.272492 0.259114 0.879885 0.557780
C67   C     C_R   0.779860 0.827889 0.119770 0.231907
C68   C     C_R   0.274272 0.900885 0.896375 0.584524
C69   C     C_R   0.818167 0.890431 0.169798 -0.119762
C70   C     C_R   0.714030 0.993291 0.214459 0.275691
Cr1   Cr    Cr6+3 0.601740 0.606840 0.505840 1.139772
Cr2   Cr    Cr6+3 0.291500 0.601560 0.495070 1.156728
Cr3   Cr    Cr6+3 0.606780 0.291630 0.499130 1.226756
Cr4   Cr    Cr6+3 0.062440 0.063060 0.008240 1.111701
Cr5   Cr    Cr6+3 0.062950 0.375000 0.998920 1.164745
Cr6   Cr    Cr6+3 0.374550 0.061770 0.992470 1.150986
H1    H     H_    0.778405 0.677045 0.373870 0.246001
H2    H     H_    0.112667 0.027409 0.206068 0.202752
H3    H     H_    0.635607 0.586896 0.164700 0.219909
H4    H     H_    0.656169 0.086820 0.684503 0.226892
H5    H     H_    0.746322 0.638889 0.835411 0.188077
H6    H     H_    0.926410 0.846712 0.181499 0.167039
O1    O     O_R   0.748670 0.497520 0.427970 -0.459950
O2    O     O_R   0.300170 0.471020 0.567120 -0.474540
O3    O     O_R   0.491630 0.259030 0.574940 -0.477156
O4    O     O_R   0.718640 0.304340 0.577850 -0.409087
O5    O     O_3   0.500010 0.500010 0.500020 -0.316664
O6    O     O_R   0.186620 0.923750 0.087000 -0.513346
O7    O     O_R   0.957350 0.194160 0.084660 -0.474934
O8    O     O_R   0.935120 0.407280 0.085350 -0.416162
O9    O     O_R   0.203800 0.365060 0.067090 -0.424108
O10   O     O_R   0.417470 0.174910 0.067830 -0.510241
O11   O     O_R   0.375160 0.946380 0.070880 -0.379101
O12   O     O_R   0.476470 0.723930 0.429450 -0.489508
O13   O     O_R   0.160500 0.919670 0.926690 -0.436244
O14   O     O_R   0.933140 0.190380 0.936050 -0.505061
O15   O     O_R   0.909010 0.403210 0.925030 -0.486405
O16   O     O_R   0.179590 0.361290 0.918480 -0.493873
O17   O     O_R   0.391360 0.170840 0.907510 -0.425436
O18   O     O_R   0.350950 0.942600 0.922260 -0.510247
O19   O     O_3   0.166650 0.166610 0.999880 -0.375074
O20   O     O_R   0.264730 0.744140 0.416740 -0.396051
O21   O     O_R   0.309440 0.472410 0.418220 -0.555077
O22   O     O_R   0.501630 0.260530 0.414310 -0.380956
O23   O     O_R   0.727920 0.305730 0.428950 -0.485328
O24   O     O_R   0.738670 0.496020 0.588600 -0.503013
O25   O     O_R   0.467190 0.722540 0.578350 -0.471098
O26   O     O_R   0.254720 0.742640 0.577370 -0.467798
O27   O     O_3   0.477672 0.094618 0.336658 -0.591717
H7    H     H_    0.517838 0.006986 0.310643 0.337476
F1    F     F_    0.806338 0.834303 0.460339 -0.556075
F2    F     F_    0.932423 0.546989 0.259730 -0.593439
F3    F     F_    0.080912 0.296181 0.371727 -0.597310
F4    F     F_    0.168589 0.245741 0.229476 -0.672432
F5    F     F_    0.894372 0.081027 0.175428 -0.636685
O28   O     O_3   0.668080 0.262761 0.156421 -0.703582
H8    H     H_    0.699928 0.258854 0.106380 0.360905
O29   O     O_3   0.626819 0.253501 0.300020 -0.628841
H9    H     H_    0.561732 0.333466 0.270153 0.341923
O30   O     O_3   0.863692 0.090579 0.313512 -0.560502
H10   H     H_    0.829234 0.093726 0.362848 0.419732
F6    F     F_    0.116591 0.017003 0.345018 -0.548754
F7    F     F_    0.614337 0.775505 0.088829 -0.599917
O31   O     O_3   0.469526 0.554576 0.179417 -0.742650
H11   H     H_    0.461151 0.562962 0.126760 0.358861
O32   O     O_3   0.530459 0.534517 0.320746 -0.668644
H12   H     H_    0.435971 0.558127 0.308512 0.321992
F8    F     F_    0.693979 0.591085 0.292006 -0.626757
F9    F     F_    0.079782 0.471199 0.644924 -0.575632
O33   O     O_3   0.039460 0.475094 0.788779 -0.637585
H13   H     H_    0.054119 0.520477 0.829096 0.384213
O34   O     O_3   0.636369 0.024004 0.814334 -0.574449
H14   H     H_    0.734018 0.994845 0.804051 0.396753
O35   O     O_3   0.556786 0.254785 0.837224 -0.625316
H15   H     H_    0.484475 0.350191 0.822813 0.356934
F10   F     F_    0.579767 0.297734 0.700464 -0.661501
F11   F     F_    0.007794 0.880406 0.416753 -0.510040
F12   F     F_    0.882269 0.104882 0.675147 -0.542206
O36   O     O_3   0.895434 0.080560 0.819554 -0.590372
H16   H     H_    0.836472 0.103370 0.863042 0.379056
F13   F     F_    0.595482 0.586518 0.849901 -0.654107
O37   O     O_3   0.558062 0.614986 0.710332 -0.674181
H17   H     H_    0.548591 0.538732 0.729454 0.357156
O38   O     O_3   0.712750 0.692367 0.703728 -0.547944
H18   H     H_    0.694530 0.699797 0.651958 0.404129
O39   O     O_3   0.448620 0.937091 0.659578 -0.625988
H19   H     H_    0.411742 0.958995 0.610493 0.325005
O40   O     O_3   0.479952 0.918360 0.801628 -0.580248
H20   H     H_    0.527937 0.849931 0.840162 0.373904
F14   F     F_    0.023904 0.815966 0.839492 -0.519878
O41   O     O_3   0.875073 0.723001 0.075946 -0.588123
H21   H     H_    0.962327 0.722957 0.075900 0.346962
O42   O     O_3   0.250303 0.630182 0.830843 -0.643955
H22   H     H_    0.340890 0.600434 0.807181 0.327988
O43   O     O_3   0.214709 0.628489 0.691525 -0.701368
H23   H     H_    0.158140 0.627587 0.652645 0.418295
F15   F     F_    0.993070 0.826823 0.701438 -0.498619
O44   O     O_3   0.733642 0.982095 0.286509 -0.612798
H24   H     H_    0.827933 0.902604 0.295364 0.338223
O45   O     O_3   0.175847 0.733757 0.297997 -0.675609
H25   H     H_    0.220418 0.676854 0.255063 0.327135
O46   O     O_3   0.409983 0.017226 0.175804 -0.690036
H26   H     H_    0.391026 0.025933 0.227572 0.324968
O47   O     O_3   0.158399 0.545279 0.158736 -0.659505
H27   H     H_    0.086471 0.624152 0.186501 0.335367

loop_
_geom_bond_atom_site_label_1
_geom_bond_atom_site_label_2
_ccdc_geom_bond_type
C44   C49   A    
C7    C13   A    
C21   C26   A    
C42   H4    S    
O32   H12   S    
Cr1   O25   S    
C41   C42   S    
C32   O31   S    
C19   C20   A    
C4    O27   S    
C25   O29   S    
C9    C67   A    
C59   O42   S    
Cr1   O12   S    
C53   C54   A    
Cr6   O17   S    
O46   H26   S    
C23   O1    A    
C30   C35   A    
C34   O25   A    
Cr4   O7    S    
O47   H27   S    
C64   O11   A    
C38   C42   S    
C30   C31   A    
C58   O40   S    
C23   C26   S    
C20   C25   S    
C15   C16   A    
C23   O23   A    
C62   O7    A    
C29   C33   S    
Cr5   O15   S    
O28   H8    S    
C42   F10   S    
C18   C19   A    
C14   H1    S    
C53   C68   S    
C57   O39   S    
O29   H9    S    
Cr3   O5    S    
C69   H6    S    
Cr5   O8    S    
C54   C55   A    
Cr3   O23   S    
Cr3   O22   S    
C11   C17   A    
Cr2   O26   S    
C20   C26   A    
C8    C9    A    
C63   O10   A    
O41   H21   S    
C50   F13   S    
Cr5   O9    S    
C55   C60   S    
C59   C60   S    
C6    O45   S    
C21   C22   A    
C59   F14   S    
C44   C65   S    
C15   F2    S    
C41   O35   S    
C44   C46   A    
C46   C50   S    
Cr1   O1    S    
C54   C59   S    
C65   O14   A    
C68   O13   A    
C27   C31   A    
Cr4   O14   S    
C28   C32   S    
C60   F15   S    
C12   O21   A    
C21   F3    S    
C10   C11   A    
C39   C40   A    
C7    F11   S    
O34   H14   S    
C39   C43   A    
C39   F9    S    
C51   O38   S    
C67   O41   S    
Cr5   O16   S    
C67   C69   A    
C66   O17   A    
C12   C17   S    
C47   C52   A    
C45   O3    A    
C68   O18   A    
C37   C38   A    
Cr6   O11   S    
C11   C16   S    
C56   O4    A    
C14   C15   A    
C36   C40   A    
O36   H16   S    
C56   O24   A    
C50   C51   S    
C24   C25   S    
C57   C61   A    
C43   C45   S    
Cr3   O3    S    
Cr2   O2    S    
Cr6   O10   S    
Cr4   O19   S    
Cr1   O5    S    
C4    C17   A    
C48   C49   A    
C24   O28   S    
C49   O36   S    
O44   H24   S    
C45   O2    A    
C25   O30   S    
O43   H23   S    
Cr2   O5    S    
O30   H10   S    
C1    C35   S    
C31   H2    S    
O39   H19   S    
C51   O37   S    
Cr6   O19   S    
C40   O33   S    
C46   C47   A    
C28   C29   A    
C10   O47   S    
C18   C22   A    
Cr4   O13   S    
C2    C8    A    
O38   H18   S    
C3    C5    A    
C1    O12   A    
C41   O34   S    
C47   C51   S    
C53   C58   A    
C12   O22   A    
C6    C7    A    
Cr2   O21   S    
C3    C63   S    
Cr6   O18   S    
C29   C35   A    
C22   F4    S    
C48   F12   S    
C34   O26   A    
O45   H25   S    
C66   O16   A    
C19   C24   S    
C62   O8    A    
C60   O43   S    
C65   O15   A    
C38   C43   A    
C13   F1    S    
C3    C10   A    
C2    C70   A    
O27   H7    S    
C32   C33   S    
C32   H3    S    
C57   C58   A    
Cr2   O20   S    
C30   F6    S    
C4    C5    A    
C55   C61   A    
C33   O32   S    
C9    F7    S    
O33   H13   S    
C36   C66   S    
O40   H20   S    
C33   F8    S    
C37   C41   S    
C69   C70   A    
O35   H15   S    
Cr3   O4    S    
C27   C64   S    
C6    C16   A    
C2    C5    S    
C48   C52   A    
Cr4   O6    S    
C24   F5    S    
C36   C37   A    
C34   C61   S    
Cr1   O24   S    
C63   O9    A    
C27   C28   A    
Cr5   O19   S    
O37   H17   S    
C18   C62   S    
C8    O46   S    
C70   O44   S    
O42   H22   S    
C13   C14   A    
C1    O20   A    
C64   O6    A    
C52   C56   S    
C50   H5    S    
O31   H11   S    
