data_mof_unit_3408.cif
_audit_creation_date              2013-03-05T16:00:57-0500
_audit_creation_method            fapswitch 2.2
_symmetry_space_group_name_H-M    P1
_symmetry_Int_Tables_number       1
_space_group_crystal_system       triclinic
_cell_length_a                    10.628059
_cell_length_b                    14.727009
_cell_length_c                    14.623931
_cell_angle_alpha                 65.340077
_cell_angle_beta                  103.685091
_cell_angle_gamma                 102.916532
_cell_volume                      2000.83039969

loop_
_atom_site_label
_atom_site_type_symbol
_atom_site_description
_atom_site_fract_x
_atom_site_fract_y
_atom_site_fract_z
_atom_type_partial_charge
O1    O     O_R   0.454850 0.022100 0.338110 -0.582275
O2    O     O_R   0.545150 0.977900 0.661890 -0.582377
O3    O     O_R   0.512700 0.160150 0.379180 -0.580456
O4    O     O_R   0.487300 0.839850 0.620820 -0.580382
C1    C     C_R   0.480063 0.119253 0.311401 0.858466
C2    C     C_R   0.519896 0.880747 0.688593 0.858422
O5    O     O_R   0.287930 0.931000 0.479440 -0.600036
O6    O     O_R   0.712070 0.069000 0.520560 -0.600010
O7    O     O_R   0.345780 0.069050 0.520520 -0.550774
O8    O     O_R   0.654220 0.930950 0.479480 -0.550675
C3    C     C_R   0.259482 0.000711 0.499166 0.866707
C4    C     C_R   0.740520 0.999283 0.500845 0.866404
Cu1   Cu    Cu3+1 0.465750 0.918270 0.475680 0.998469
Cu2   Cu    Cu3+1 0.534250 0.081730 0.524320 0.998321
C5    C     C_3   0.010581 0.922248 0.477608 -0.189370
C6    C     C_3   0.989428 0.077741 0.522415 -0.189393
C7    C     C_3   0.929187 0.008965 0.407731 -0.212272
C8    C     C_3   0.070820 0.991028 0.592288 -0.212222
H1    H     H_    0.868989 0.016698 0.332286 0.188438
H2    H     H_    0.131024 0.983298 0.667731 0.188855
H3    H     H_    0.020977 0.858348 0.459643 0.174462
H4    H     H_    0.979031 0.141639 0.540381 0.174686
C9    C     C_3   0.877167 0.998807 0.501532 -0.063863
C10   C     C_3   0.122838 0.001182 0.498488 -0.063846
C11   C     C_3   0.957030 0.913300 0.570580 0.022344
C12   C     C_3   0.042978 0.086690 0.429441 0.022441
C13   C     C_R   0.471597 0.185574 0.201607 -0.168610
C14   C     C_R   0.528225 0.814420 0.798374 -0.168678
C15   C     C_R   0.444644 0.218217 0.020370 0.283322
C16   C     C_R   0.554229 0.781743 0.979530 0.283682
C17   C     C_R   0.448984 0.149172 0.122451 -0.145139
C18   C     C_R   0.550014 0.850792 0.877472 -0.145379
C19   C     C_R   0.486713 0.289444 0.176620 -0.229968
C20   C     C_R   0.513686 0.710577 0.823392 -0.229660
C21   C     C_R   0.480994 0.359698 0.075627 0.052741
C22   C     C_R   0.519002 0.640290 0.924361 0.052831
C23   C     C_R   0.465305 0.323104 0.997458 0.028974
C24   C     C_R   0.534169 0.676862 0.002491 0.028844
C25   C     C_R   0.495498 0.465672 0.051021 0.102438
C26   C     C_R   0.504549 0.534310 0.948969 0.102435
C27   C     C_R   0.500040 0.494714 0.875038 -0.226510
C28   C     C_R   0.499825 0.505230 0.124941 -0.226538
C29   C     C_R   0.477553 0.391908 0.898281 -0.144320
C30   C     C_R   0.521985 0.608036 0.101672 -0.144494
H5    H     H_    0.474627 0.366981 0.837754 0.195725
H6    H     H_    0.524707 0.632939 0.162179 0.195745
H7    H     H_    0.493624 0.685885 0.761325 0.166084
H8    H     H_    0.507618 0.314210 0.238693 0.166269
H9    H     H_    0.515700 0.540672 0.797968 0.136422
H10   H     H_    0.484055 0.459205 0.201980 0.136463
N1    N     N_R   0.585750 0.204560 0.560800 -0.181193
N2    N     N_R   0.414250 0.795440 0.439200 -0.181206
C31   C     C_R   0.715206 0.283834 0.671511 -0.277568
C32   C     C_R   0.284743 0.716144 0.328523 -0.276781
C33   C     C_R   0.682567 0.202907 0.640532 0.109472
C34   C     C_R   0.317378 0.797067 0.359508 0.109899
C35   C     C_R   0.519055 0.285455 0.508249 0.029732
C36   C     C_R   0.480973 0.714559 0.491729 0.029664
C37   C     C_R   0.548527 0.371237 0.535232 -0.017989
C38   C     C_R   0.451487 0.628771 0.464754 -0.018110
C39   C     C_R   0.648317 0.367860 0.619663 0.162276
C40   C     C_R   0.351670 0.632136 0.380341 0.162317
C41   C     C_R   0.482663 0.458966 0.482837 0.084055
C42   C     C_R   0.517356 0.541045 0.517144 0.084121
C43   C     C_R   0.616247 0.532386 0.602788 -0.227431
C44   C     C_R   0.383763 0.467621 0.397199 -0.227427
C45   C     C_R   0.680359 0.447840 0.652396 -0.173690
C46   C     C_R   0.319632 0.552159 0.347604 -0.173453
H11   H     H_    0.755910 0.444938 0.717636 0.159730
H12   H     H_    0.244065 0.555054 0.282375 0.159796
H13   H     H_    0.557682 0.719754 0.552957 0.144115
H14   H     H_    0.442375 0.280273 0.446998 0.143835
H15   H     H_    0.266392 0.862159 0.319029 0.138033
H16   H     H_    0.733504 0.137790 0.681052 0.138263
H17   H     H_    0.791907 0.280466 0.736137 0.155815
H18   H     H_    0.208008 0.719496 0.263921 0.155583
H19   H     H_    0.646618 0.589928 0.633908 0.139092
H20   H     H_    0.353388 0.410078 0.366080 0.139093
C47   C     C_2   0.911850 0.814908 0.651077 0.835169
O9    O     O_2   0.987002 0.752549 0.697697 -0.580197
O10   O     O_R   0.785096 0.794919 0.672901 -0.786435
H21   H     H_    0.766502 0.725945 0.728429 0.323864
C48   C     C_2   0.088206 0.185094 0.348978 0.834935
O11   O     O_2   0.013327 0.247753 0.302784 -0.580306
O12   O     O_R   0.214713 0.204770 0.326732 -0.786273
H22   H     H_    0.233402 0.273812 0.271317 0.324009
C49   C     C_2   0.568566 0.959826 0.856659 0.980310
O13   O     O_2   0.478144 0.008783 0.810505 -0.524644
O14   O     O_R   0.688484 0.005393 0.893079 -0.713124
H23   H     H_    0.689886 0.080031 0.874386 0.348928
C50   C     C_2   0.429609 0.040112 0.143221 0.980265
O15   O     O_2   0.519817 0.990845 0.188982 -0.524044
O16   O     O_R   0.309177 0.994891 0.107125 -0.713304
H24   H     H_    0.307301 0.920235 0.125613 0.348865
N3    N     N_R   0.422075 0.181489 0.940129 0.124603
O17   O     O_R   0.500961 0.125633 0.939929 -0.309311
O18   O     O_R   0.320251 0.201197 0.868997 -0.325845
N4    N     N_R   0.575727 0.818460 0.059671 0.124806
O19   O     O_R   0.495337 0.873102 0.060044 -0.309815
O20   O     O_R   0.677805 0.799730 0.130682 -0.325240

loop_
_geom_bond_atom_site_label_1
_geom_bond_atom_site_label_2
_geom_bond_distance
_ccdc_geom_bond_type
C44   C46   1.390160 A    
C49   O13   1.222988 D    
O16   H24   1.013420 S    
N3    O17   1.300415 A    
O10   H21   1.013980 S    
C31   H17   1.083788 S    
O12   H22   1.014057 S    
C13   C19   1.396690 A    
O5    C3    1.286764 A    
C4    C9    1.451517 S    
C7    C9    1.536348 S    
C12   C48   1.499686 S    
C8    C10   1.536350 S    
C7    C12   1.541534 S    
C21   C23   1.417299 A    
C10   C12   1.528713 S    
C36   H13   1.075241 S    
C35   C37   1.424910 A    
C36   C38   1.424910 A    
C3    C10   1.451498 S    
C16   C24   1.413429 A    
C38   C40   1.415820 A    
O4    Cu1   1.932366 S    
C7    H1    1.110539 S    
C1    C13   1.484046 S    
C33   H16   1.081644 S    
C31   C39   1.402447 A    
C2    C14   1.483979 S    
C48   O11   1.222677 D    
C43   C45   1.390154 A    
O6    Cu2   1.956014 S    
N2    C36   1.366787 A    
N1    C35   1.366790 A    
C8    H2    1.110540 S    
C41   C44   1.411849 A    
C14   C20   1.396674 A    
Cu1   Cu2   2.689105 S    
C27   C29   1.382813 A    
O2    C2    1.297422 A    
C8    C11   1.541546 S    
C28   C30   1.382801 A    
C27   H9    1.076056 S    
C30   H6    1.082702 S    
C25   C28   1.414250 A    
C31   C33   1.391888 A    
C6    C12   1.540458 S    
C44   H20   1.076780 S    
C32   C34   1.391896 A    
C37   C39   1.415822 A    
C43   H19   1.076775 S    
C13   C17   1.419060 A    
C14   C18   1.418937 A    
O4    C2    1.306695 A    
C50   O15   1.222980 D    
C15   N3    1.437187 S    
C32   C40   1.402449 A    
C18   C49   1.479519 S    
C41   C42   1.438083 A    
C45   H11   1.084273 S    
C23   C29   1.396861 A    
C21   C25   1.427943 A    
O7    Cu2   1.959341 S    
C24   C30   1.396882 A    
C50   O16   1.397501 S    
Cu1   N2    2.020112 S    
O7    C3    1.290623 A    
C39   C45   1.395171 A    
Cu2   N1    2.020112 S    
C22   C26   1.428065 A    
O6    C4    1.286765 A    
C29   H5    1.082686 S    
O3    Cu2   1.932367 S    
O8    C4    1.290631 A    
C28   H10   1.076149 S    
C32   H18   1.083789 S    
C46   H12   1.084275 S    
C5    C10   1.540056 S    
C48   O12   1.397027 S    
C6    C9    1.540089 S    
N4    O20   1.301212 A    
C49   O14   1.397506 S    
O1    C1    1.297411 A    
O1    Cu1   1.949579 S    
C25   C26   1.422637 A    
C47   O10   1.396813 S    
C5    C7    1.552454 S    
C26   C27   1.414349 A    
C6    H4    1.110551 S    
C34   H15   1.081632 S    
C11   C47   1.499670 S    
C37   C41   1.439023 A    
O3    C1    1.306753 A    
O8    Cu1   1.959341 S    
N3    O18   1.301258 A    
C16   N4    1.437009 S    
C17   C50   1.479510 S    
C40   C46   1.395175 A    
C38   C42   1.439019 A    
C42   C43   1.411842 A    
C22   C24   1.417432 A    
C15   C17   1.409361 A    
C16   C18   1.409205 A    
C5    H3    1.110550 S    
C19   C21   1.402122 A    
C20   C22   1.402201 A    
N1    C33   1.356005 A    
C9    C11   1.528728 S    
C35   H14   1.075245 S    
O2    Cu2   1.949579 S    
C5    C11   1.540451 S    
C47   O9    1.222262 D    
O5    Cu1   1.956014 S    
C6    C8    1.552389 S    
N4    O19   1.300322 A    
C15   C23   1.413436 A    
C19   H8    1.072865 S    
C20   H7    1.072718 S    
O14   H23   1.013427 S    
N2    C34   1.355998 A    
