data_mof_unit_3752.cif
_audit_creation_date              2012-12-11T14:08:33-0500
_audit_creation_method            fapswitch 2.2
_symmetry_space_group_name_H-M    P1
_symmetry_Int_Tables_number       1
_space_group_crystal_system       triclinic
_cell_length_a                    10.895391
_cell_length_b                    10.903136
_cell_length_c                    18.656581
_cell_angle_alpha                 90.403043
_cell_angle_beta                  90.23881
_cell_angle_gamma                 60.77547
_cell_volume                      1934.1356015

loop_
_atom_site_label
_atom_site_type_symbol
_atom_type_description
_atom_site_fract_x
_atom_site_fract_y
_atom_site_fract_z
_atom_type_partial_charge
C1    C     C_R   0.238355 0.644621 0.609337 0.575710
C2    C     C_2   0.782357 0.155467 0.707381 -0.159130
C3    C     C_2   0.187125 0.660335 0.682653 -0.087292
C4    C     C_R   0.652803 0.620927 0.601922 0.580051
C5    C     C_2   0.197586 0.661555 0.840479 -0.119804
C6    C     C_2   0.197098 0.558682 0.800926 -0.176088
C7    C     C_2   0.226551 0.546347 0.723883 -0.173564
C8    C     C_2   0.667467 0.682437 0.330805 -0.093265
C9    C     C_2   0.673296 0.681580 0.173447 -0.094268
C10   C     C_2   0.787284 0.624970 0.216641 -0.154904
C11   C     C_2   0.781938 0.603436 0.292474 -0.163727
C12   C     C_3   0.682770 0.543635 0.800685 -0.259265
C13   C     C_2   0.599932 0.264502 0.313021 -0.094325
C14   C     C_2   0.632530 0.212342 0.161046 -0.108845
C15   C     C_2   0.509493 0.256731 0.194610 -0.148314
C16   C     C_R   0.628004 0.227976 0.602127 0.573016
C17   C     C_2   0.489805 0.307464 0.268661 -0.165490
C18   C     C_2   0.114525 0.686197 0.346227 -0.098694
C19   C     C_2   0.050607 0.722759 0.194782 -0.107914
C20   C     C_2   0.004480 0.831110 0.240788 -0.156728
C21   C     C_2   0.057955 0.811591 0.314245 -0.138099
C22   C     C_R   0.703192 0.102753 0.897675 0.551350
C23   C     C_3   0.698716 0.674870 0.812817 0.039323
C24   C     C_R   0.723289 0.688264 0.888598 0.547229
C25   C     C_R   0.119978 0.705972 0.907769 0.560997
C26   C     C_R   0.673009 0.114607 0.101503 0.548222
C27   C     C_R   0.699050 0.692091 0.098355 0.548643
C28   C     C_R   0.215146 0.651561 0.404081 0.557640
C29   C     C_R   0.023790 0.748420 0.119210 0.567213
C30   C     C_R   0.644842 0.627128 0.396291 0.560386
C31   C     C_R   0.578502 0.297500 0.388194 0.573689
C32   C     C_3   0.564714 0.806430 0.784568 -0.237164
C33   C     C_3   0.545438 0.788902 0.704573 -0.231092
C34   C     C_3   0.668755 0.647195 0.677081 0.066291
C35   C     C_3   0.827749 0.661388 0.770202 -0.201785
C36   C     C_3   0.811036 0.643018 0.689758 -0.054555
C37   C     C_3   0.666382 0.526374 0.720420 -0.244100
C38   C     C_2   0.673995 0.158588 0.671343 -0.083627
C39   C     C_2   0.689161 0.168059 0.828094 -0.121878
C40   C     C_2   0.800862 0.123670 0.784400 -0.168243
Cr1   Cr    Cr6+3 0.393010 0.398050 0.501480 1.029003
Cr2   Cr    Cr6+3 0.398820 0.707980 0.501630 1.028863
Cr3   Cr    Cr6+3 0.708140 0.393940 0.496850 1.026137
Cr4   Cr    Cr6+3 0.937950 0.938450 0.008940 1.018404
Cr5   Cr    Cr6+3 0.626180 0.937030 0.994750 1.016046
Cr6   Cr    Cr6+3 0.937790 0.625760 0.001410 1.011286
H1    H     H_    0.574229 0.902823 0.792450 0.151685
H2    H     H_    0.279650 0.441277 0.700826 0.153297
H3    H     H_    0.235507 0.728526 0.817883 0.098538
H4    H     H_    0.470196 0.821265 0.814542 0.121320
H5    H     H_    0.131577 0.765519 0.705493 0.122382
H6    H     H_    0.892863 0.581059 0.195006 0.153743
H7    H     H_    0.871586 0.512021 0.315364 0.153685
H8    H     H_    0.566434 0.726468 0.193314 0.098738
H9    H     H_    0.581306 0.778443 0.309331 0.112800
H10   H     H_    0.427075 0.240449 0.171191 0.158398
H11   H     H_    0.383130 0.366898 0.289178 0.135118
H12   H     H_    0.754077 0.423136 0.703072 0.135790
H13   H     H_    0.711616 0.236497 0.181771 0.101324
H14   H     H_    0.707637 0.200092 0.295074 0.104644
H15   H     H_    0.942993 0.938143 0.221374 0.137630
H16   H     H_    0.443135 0.790707 0.696863 0.137165
H17   H     H_    0.067002 0.897949 0.338204 0.158100
H18   H     H_    0.116169 0.614590 0.211266 0.095809
H19   H     H_    0.097269 0.602416 0.325720 0.092554
H20   H     H_    0.539811 0.878962 0.674269 0.155599
H21   H     H_    0.839960 0.755677 0.779976 0.151442
H22   H     H_    0.776554 0.448006 0.821237 0.140307
H23   H     H_    0.925871 0.568535 0.788971 0.126599
H24   H     H_    0.589049 0.554545 0.829940 0.120325
H25   H     H_    0.566363 0.524470 0.710580 0.120592
H26   H     H_    0.898505 0.538895 0.672596 0.147643
H27   H     H_    0.907038 0.058517 0.804434 0.155223
H28   H     H_    0.856695 0.179240 0.680849 0.145570
H29   H     H_    0.583413 0.234441 0.807738 0.101727
H30   H     H_    0.606012 0.125374 0.697342 0.116337
H31   H     H_    0.166852 0.486297 0.824133 0.148502
I1    I     I_    0.834285 0.794910 0.626142 -0.452870
O1    O     O_R   0.507110 0.256280 0.580300 -0.513937
O2    O     O_R   0.837080 0.593860 0.915300 -0.526031
O3    O     O_R   0.064770 0.636080 0.932550 -0.494550
O4    O     O_R   0.280830 0.527190 0.577940 -0.494449
O5    O     O_R   0.068250 0.829200 0.092940 -0.498322
O6    O     O_R   0.799650 0.057040 0.080330 -0.522131
O7    O     O_R   0.586130 0.079760 0.077080 -0.509332
O8    O     O_R   0.627700 0.809630 0.066580 -0.491602
O9    O     O_R   0.816140 0.597180 0.075920 -0.522124
O10   O     O_R   0.045360 0.639170 0.081440 -0.505297
O11   O     O_3   0.833980 0.833750 0.001700 -0.271875
O12   O     O_R   0.524640 0.695370 0.425100 -0.495524
O13   O     O_R   0.261360 0.738990 0.584270 -0.515142
O14   O     O_R   0.532590 0.694780 0.574370 -0.504638
O15   O     O_R   0.744470 0.503750 0.577000 -0.523583
O16   O     O_R   0.698520 0.277230 0.571620 -0.495001
O17   O     O_R   0.498530 0.256920 0.419280 -0.495420
O18   O     O_R   0.272880 0.527780 0.428680 -0.519925
O19   O     O_R   0.252780 0.739630 0.423250 -0.506502
O20   O     O_R   0.735890 0.504390 0.415980 -0.517806
O21   O     O_R   0.690560 0.277820 0.422350 -0.493641
O22   O     O_3   0.499990 0.499990 0.499980 -0.283669
O23   O     O_R   0.089190 0.825870 0.932320 -0.515201
O24   O     O_R   0.819070 0.053960 0.931440 -0.495970
O25   O     O_R   0.607070 0.076440 0.916460 -0.519039
O26   O     O_R   0.647110 0.806550 0.917690 -0.506344

loop_
_geom_bond_atom_site_label_1
_geom_bond_atom_site_label_2
_ccdc_geom_bond_type
C28   O19   A    
C18   C21   D    
C35   C36   S    
Cr3   O20   S    
C30   O12   A    
Cr4   O5    S    
C10   H6    S    
Cr6   O11   S    
C38   H30   S    
C18   H19   S    
C14   H13   S    
C12   H22   S    
C12   C23   S    
Cr3   O21   S    
C29   O5    A    
C3    C7    D    
C26   O7    A    
C5    C6    D    
Cr1   O18   S    
Cr1   O4    S    
C34   C37   S    
C12   C37   S    
Cr3   O16   S    
C40   H27   S    
Cr2   O13   S    
C20   H15   S    
C29   O10   A    
Cr5   O25   S    
C24   O2    A    
C19   C20   D    
C33   H16   S    
C1    C3    S    
C26   O6    A    
C23   C24   S    
C31   O21   A    
Cr5   O11   S    
C9    C10   D    
Cr2   O14   S    
C37   H12   S    
C11   H7    S    
C1    O13   A    
C25   O3    A    
C5    H3    S    
C8    H9    S    
C33   H20   S    
Cr6   O10   S    
C4    C34   S    
C18   C28   S    
Cr3   O22   S    
Cr2   O19   S    
C39   C40   D    
C13   H14   S    
C3    H5    S    
C6    H31   S    
C1    O4    A    
C22   O25   A    
C24   O26   A    
C27   O8    A    
Cr5   O7    S    
Cr5   O26   S    
Cr2   O22   S    
Cr6   O3    S    
C2    C38   D    
C35   H21   S    
C19   H18   S    
C33   C34   S    
Cr1   O22   S    
C14   C26   S    
C27   O9    A    
C32   H4    S    
C5    C25   S    
C39   H29   S    
C37   H25   S    
C32   H1    S    
C19   C29   S    
C9    C27   S    
Cr6   O9    S    
C15   C17   S    
C12   H24   S    
Cr4   O24   S    
C16   O16   A    
C13   C31   S    
C23   C32   S    
Cr4   O6    S    
C2    H28   S    
Cr1   O1    S    
Cr4   O23   S    
C6    C7    S    
C30   O20   A    
C23   C35   S    
C22   O24   A    
C13   C17   D    
C28   O18   A    
C16   O1    A    
C8    C30   S    
C7    H2    S    
Cr5   O8    S    
C36   I1    S    
C32   C33   S    
Cr6   O2    S    
C25   O23   A    
Cr1   O17   S    
C8    C11   D    
C31   O17   A    
C22   C39   S    
Cr3   O15   S    
C34   C36   S    
C15   H10   S    
C21   H17   S    
C10   C11   S    
C4    O15   A    
C2    C40   S    
C20   C21   S    
C35   H23   S    
C17   H11   S    
C14   C15   D    
C9    H8    S    
Cr2   O12   S    
Cr4   O11   S    
C36   H26   S    
C16   C38   S    
C4    O14   A    
