data_mof_unit_4880.cif
_audit_creation_date              2012-12-11T17:06:38-0500
_audit_creation_method            fapswitch 2.2
_symmetry_space_group_name_H-M    P1
_symmetry_Int_Tables_number       1
_space_group_crystal_system       triclinic
_cell_length_a                    7.000109
_cell_length_b                    14.601633
_cell_length_c                    15.998804
_cell_angle_alpha                 90.736538
_cell_angle_beta                  90.700618
_cell_angle_gamma                 89.391524
_cell_volume                      1634.93923288

loop_
_atom_site_label
_atom_site_type_symbol
_atom_type_description
_atom_site_fract_x
_atom_site_fract_y
_atom_site_fract_z
_atom_type_partial_charge
O1    O     O_R   0.494400 0.415450 0.412630 -0.545948
O2    O     O_R   0.823940 0.405730 0.586760 -0.517967
O3    O     O_R   0.994240 0.584550 0.587370 -0.543171
C1    C     C_R   0.655463 0.382032 0.614913 0.701080
O4    O     O_R   0.824110 0.404430 0.413240 -0.524769
O5    O     O_R   0.994420 0.583240 0.412620 -0.542202
C2    C     C_R   0.655620 0.384005 0.382746 0.696368
O6    O     O_R   0.494230 0.416760 0.587380 -0.551494
O7    O     O_3   0.660800 0.558670 0.500000 -0.375225
V1    V     V_3+5 0.935650 0.489120 0.500000 1.438840
O8    O     O_R   0.324140 0.594270 0.413240 -0.520485
C3    C     C_R   0.154370 0.615645 0.384018 0.703186
O9    O     O_R   0.323960 0.595570 0.586760 -0.552276
C4    C     C_R   0.155128 0.619730 0.614195 0.648400
V2    V     V_3+5 0.435660 0.510880 0.500000 1.406756
O10   O     O_3   0.160640 0.441330 0.500000 -0.368293
C5    C     C_3   0.118805 0.670037 0.776140 -0.178492
C6    C     C_3   0.276625 0.738900 0.800189 -0.124970
H1    H     H_    0.393491 0.726792 0.846398 0.099547
H2    H     H_    0.097218 0.601240 0.802651 0.093515
C7    C     C_3   0.123624 0.814866 0.806664 -0.000129
C8    C     C_3   0.966304 0.747150 0.783012 -0.119999
C9    C     C_3   0.992540 0.769368 0.689369 -0.120528
C10   C     C_3   0.150274 0.838701 0.714003 -0.150205
C11   C     C_3   0.303036 0.761474 0.706490 -0.114410
C12   C     C_3   0.145138 0.692522 0.682991 -0.004850
H3    H     H_    0.829305 0.743152 0.816827 0.113989
H4    H     H_    0.874366 0.781191 0.643789 0.103951
H5    H     H_    0.164659 0.908907 0.689344 0.108360
H6    H     H_    0.440221 0.769574 0.673484 0.101163
C13   C     C_R   0.277599 0.811746 0.237965 0.029607
C14   C     C_R   0.120598 0.815227 0.182784 -0.093888
C15   C     C_R   0.968397 0.755452 0.198560 -0.188832
H7    H     H_    0.845269 0.754521 0.157250 0.135492
C16   C     C_R   0.979245 0.691587 0.264096 -0.200002
C17   C     C_R   0.141264 0.685192 0.316479 -0.093590
C18   C     C_R   0.288583 0.747109 0.301985 0.026307
C19   C     C_3   0.494447 0.727869 0.284869 0.292885
C20   C     C_3   0.484090 0.801710 0.217488 -0.489394
H8    H     H_    0.564185 0.864338 0.235747 0.152786
C21   C     C_R   0.471328 0.292979 0.724383 0.014489
C22   C     C_R   0.643510 0.309841 0.681412 -0.205403
C23   C     C_R   0.794306 0.246037 0.698031 0.426437
C24   C     C_R   0.784885 0.187995 0.767492 -0.266332
H9    H     H_    0.909938 0.148524 0.785127 0.140106
C25   C     C_R   0.613882 0.173913 0.808966 -0.138966
C26   C     C_R   0.451810 0.219858 0.778854 0.029875
C27   C     C_3   0.299127 0.265040 0.828004 -0.356423
C28   C     C_3   0.336989 0.350028 0.778139 0.294650
H10   H     H_    0.334132 0.270820 0.895955 0.182515
H11   H     H_    0.158034 0.235157 0.814308 0.137679
H12   H     H_    0.205634 0.376759 0.746239 0.071277
C29   C     C_R   0.490934 0.258075 0.301192 0.007841
C30   C     C_R   0.647876 0.315401 0.313074 -0.156656
C31   C     C_R   0.799261 0.304349 0.256389 -0.092191
H13   H     H_    0.921216 0.348798 0.261070 0.132959
C32   C     C_R   0.788733 0.239790 0.189851 -0.174794
H14   H     H_    0.905120 0.234641 0.146207 0.125616
C33   C     C_R   0.624080 0.186291 0.176944 -0.095712
C34   C     C_R   0.477888 0.196750 0.234475 0.029834
C35   C     C_3   0.271678 0.217810 0.219900 -0.426749
C36   C     C_3   0.282493 0.282425 0.295205 0.293441
H15   H     H_    0.181361 0.156686 0.229344 0.187932
H16   H     H_    0.246175 0.253933 0.159954 0.131071
H17   H     H_    0.255649 0.355143 0.279606 0.062973
O11   O     O_R   0.771650 0.079500 0.908680 -0.543341
O12   O     O_R   0.441690 0.091800 0.082800 -0.538841
O13   O     O_R   0.271460 0.912980 0.083410 -0.534877
C37   C     C_R   0.611272 0.116503 0.109276 0.704515
O14   O     O_R   0.441930 0.090510 0.909280 -0.544479
O15   O     O_R   0.271690 0.911670 0.908660 -0.539144
C38   C     C_R   0.608734 0.111110 0.880268 0.720477
O16   O     O_R   0.771410 0.080810 0.083440 -0.539468
O17   O     O_3   0.605100 0.937580 0.996050 -0.373724
V3    V     V_3+5 0.330220 0.007110 0.996030 1.395205
O18   O     O_R   0.941980 0.900620 0.909250 -0.544913
C39   C     C_R   0.110689 0.881469 0.878697 0.670423
O19   O     O_R   0.941740 0.901920 0.082770 -0.543040
C40   C     C_R   0.111526 0.880317 0.111710 0.698633
V4    V     V_3+5 0.830220 0.985300 0.996000 1.388660
O20   O     O_3   0.105210 0.054870 0.996020 -0.372495
H18   H     H_    0.585967 0.748459 0.339036 0.086731
H19   H     H_    0.506894 0.780661 0.151560 0.160214
O21   O     O_3   0.955713 0.239999 0.650090 -0.580519
C41   C     C_3   0.944202 0.165233 0.592043 0.040777
H20   H     H_    0.092466 0.149819 0.575338 0.163980
H21   H     H_    0.864243 0.187368 0.535257 0.123990
C42   C     C_3   0.868936 0.072017 0.622385 -0.363387
H22   H     H_    0.948454 0.050335 0.679286 0.190701
H23   H     H_    0.714057 0.077350 0.636008 0.201296
C43   C     C_3   0.897170 0.996426 0.556601 -0.848053
H24   H     H_    0.838388 0.017388 0.494984 0.235851
H25   H     H_    0.822828 0.933649 0.576270 0.228996
H26   H     H_    0.051540 0.979934 0.550060 0.233934
O22   O     O_3   0.432398 0.410615 0.833546 -0.566350
C44   C     C_3   0.443708 0.498877 0.801218 0.102787
H27   H     H_    0.382249 0.547028 0.848017 0.120196
H28   H     H_    0.363118 0.508302 0.741262 0.106597
C45   C     C_3   0.653366 0.521810 0.792133 -0.338917
H29   H     H_    0.710439 0.551514 0.851620 0.174873
H30   H     H_    0.738764 0.459138 0.777818 0.206496
C46   C     C_3   0.678009 0.588756 0.722369 -0.806079
H31   H     H_    0.615607 0.563089 0.663283 0.265952
H32   H     H_    0.829962 0.594826 0.712439 0.240217
H33   H     H_    0.615534 0.655988 0.739123 0.214577
O23   O     O_3   0.160178 0.251976 0.359257 -0.564437
C47   C     C_3   0.255931 0.225919 0.433509 0.164927
H34   H     H_    0.164432 0.247830 0.485501 0.129454
H35   H     H_    0.389997 0.263023 0.446849 0.113780
C48   C     C_3   0.289889 0.121848 0.432606 -0.358830
H36   H     H_    0.153608 0.086401 0.443827 0.190918
H37   H     H_    0.339868 0.098545 0.370243 0.212385
C49   C     C_3   0.440718 0.093615 0.497003 -0.869056
H38   H     H_    0.580372 0.121871 0.478924 0.236989
H39   H     H_    0.452563 0.017770 0.498620 0.241085
H40   H     H_    0.405344 0.119724 0.560401 0.226951
H41   H     H_    0.866613 0.642886 0.270876 0.185070
O24   O     O_3   0.528664 0.634328 0.261629 -0.566550
C50   C     C_3   0.476736 0.609939 0.178595 0.081824
H42   H     H_    0.589193 0.632657 0.135240 0.110933
H43   H     H_    0.335511 0.639311 0.160017 0.138542
C51   C     C_3   0.463788 0.505882 0.172167 -0.306302
H44   H     H_    0.601826 0.474535 0.192425 0.194768
H45   H     H_    0.350082 0.482940 0.214463 0.180875
C52   C     C_3   0.416895 0.473822 0.083153 -0.825398
H46   H     H_    0.277155 0.502776 0.062267 0.226836
H47   H     H_    0.408557 0.397903 0.081209 0.232345
H48   H     H_    0.529934 0.495439 0.039662 0.237856

loop_
_geom_bond_atom_site_label_1
_geom_bond_atom_site_label_2
_ccdc_geom_bond_type
C31   H13   S    
C6    C7    S    
C21   C22   A    
C30   C31   A    
C16   C17   A    
C1    O6    A    
C29   C30   A    
O13   V3    S    
C5    C12   S    
C17   C18   A    
O5    C3    A    
C19   C20   S    
O19   V4    S    
C32   C33   A    
O23   C47   S    
V2    O10   S    
C44   C45   S    
C5    H2    S    
C46   H33   S    
C6    H1    S    
C9    C12   S    
C35   H15   S    
C10   H5    S    
C15   C16   A    
O24   C50   S    
O8    V2    S    
O21   C41   S    
C27   H11   S    
O11   C38   A    
O22   C44   S    
C44   H28   S    
C52   H48   S    
C47   H34   S    
C37   O16   A    
O1    V2    S    
C3    C17   S    
O7    V1    S    
C25   C38   S    
C43   H24   S    
C49   H40   S    
O13   C40   A    
C41   H21   S    
C33   C34   A    
O17   V4    S    
C7    C8    S    
C19   H18   S    
C23   O21   S    
C47   H35   S    
C35   C36   S    
C6    C11   S    
C21   C28   S    
C29   C34   A    
C24   C25   A    
C15   H7    S    
C50   H43   S    
O17   V3    S    
C26   C27   S    
C10   C11   S    
C20   H8    S    
O4    C2    A    
O19   C40   A    
V3    O20   S    
C11   C12   S    
C41   H20   S    
C4    C12   S    
C13   C18   A    
C34   C35   S    
O12   C37   A    
C35   H16   S    
O2    C1    A    
C23   C24   A    
C18   C19   S    
C43   H25   S    
C29   C36   S    
C45   H29   S    
C42   C43   S    
C9    C10   S    
C28   H12   S    
C44   H27   S    
C5    C6    S    
C21   C26   A    
C48   H36   S    
C9    H4    S    
O18   C39   A    
C46   H32   S    
C48   C49   S    
O3    C4    A    
C33   C37   S    
C27   C28   S    
C45   H30   S    
C42   H23   S    
O6    V2    S    
C8    H3    S    
O9    V2    S    
C52   H46   S    
C47   C48   S    
C16   H41   S    
O12   V3    S    
C22   C23   A    
C51   H45   S    
O2    V1    S    
O15   C39   A    
C24   H9    S    
C49   H38   S    
C41   C42   S    
C11   H6    S    
C25   C26   A    
C36   H17   S    
O1    C2    A    
C13   C14   A    
O18   V4    S    
V4    O20   S    
O5    V1    S    
C50   H42   S    
C36   O23   S    
O11   V4    S    
C5    C8    S    
C14   C15   A    
C51   C52   S    
C31   C32   A    
O7    V2    S    
C20   H19   S    
O4    V1    S    
O3    V1    S    
V1    O10   S    
C14   C40   S    
O15   V3    S    
C32   H14   S    
C1    C22   S    
C27   H10   S    
C50   C51   S    
O16   V4    S    
C13   C20   S    
C46   H31   S    
C48   H37   S    
C19   O24   S    
C45   C46   S    
C42   H22   S    
C28   O22   S    
C7    C10   S    
C7    C39   S    
O14   V3    S    
C52   H47   S    
C8    C9    S    
O14   C38   A    
C2    C30   S    
C49   H39   S    
C51   H44   S    
O9    C4    A    
O8    C3    A    
C43   H26   S    
