data_mof_unit_4517.cif
_audit_creation_date              2012-12-11T17:39:34-0500
_audit_creation_method            fapswitch 2.2
_symmetry_space_group_name_H-M    P1
_symmetry_Int_Tables_number       1
_space_group_crystal_system       triclinic
_cell_length_a                    15.179687
_cell_length_b                    15.173916
_cell_length_c                    14.977055
_cell_angle_alpha                 108.374797
_cell_angle_beta                  111.190981
_cell_angle_gamma                 109.748458
_cell_volume                      2624.49901258

loop_
_atom_site_label
_atom_site_type_symbol
_atom_type_description
_atom_site_fract_x
_atom_site_fract_y
_atom_site_fract_z
_atom_type_partial_charge
Br1   Br    Br    0.037818 0.283417 0.235220 -0.601097
Br2   Br    Br    0.978733 0.653133 0.694754 -0.593254
Br3   Br    Br    0.777677 0.575649 0.082084 -0.578867
Br4   Br    Br    0.550765 0.384265 0.202319 -0.691770
C1    C     C_R   0.912078 0.910392 0.712378 -0.111191
C2    C     C_R   0.909351 0.686094 0.447578 -0.034945
C3    C     C_R   0.711436 0.783578 0.188923 -0.136067
C4    C     C_R   0.092049 0.303228 0.507467 -0.093208
C5    C     C_R   0.303204 0.005368 0.598062 -0.154125
C6    C     C_R   0.661973 0.683033 0.176873 0.164140
C7    C     C_R   0.364231 0.063566 0.566583 0.075411
C8    C     C_R   0.002790 0.679291 0.467877 0.068091
C9    C     C_R   0.995253 0.959632 0.172315 0.066232
C10   C     C_R   0.470514 0.666720 0.325842 -0.108426
C11   C     C_R   0.487916 0.771463 0.365925 -0.131669
C12   C     C_R   0.000290 0.307686 0.453777 0.088615
C13   C     C_R   0.497392 0.824668 0.467631 0.119829
C14   C     C_R   0.485818 0.769922 0.526625 -0.179183
C15   C     C_R   0.468133 0.665089 0.486091 -0.100702
C16   C     C_R   0.296861 0.204882 0.803947 -0.131296
C17   C     C_R   0.460916 0.613686 0.386000 -0.057600
C18   C     C_R   0.447529 0.958108 0.537241 -0.236351
C19   C     C_R   0.456598 0.059392 0.566402 0.065024
C20   C     C_R   0.541504 0.143931 0.574999 0.014919
C21   C     C_R   0.617551 0.125110 0.556144 -0.220656
C22   C     C_R   0.606727 0.023573 0.525617 0.054814
C23   C     C_R   0.363743 0.295209 0.809716 0.125944
C24   C     C_R   0.519671 0.937572 0.512748 0.018084
C25   C     C_R   0.524776 0.278412 0.518681 -0.169719
C26   C     C_R   0.549821 0.384218 0.545293 -0.073549
C27   C     C_R   0.608859 0.464998 0.655831 -0.094611
C28   C     C_R   0.728702 0.042046 0.449917 -0.148959
C29   C     C_R   0.642235 0.439763 0.739614 -0.092074
C30   C     C_R   0.613975 0.333272 0.713302 -0.103052
C31   C     C_R   0.554912 0.251861 0.602528 0.090309
C32   C     C_R   0.806928 0.138489 0.085086 -0.162410
C33   C     C_R   0.885746 0.233998 0.185982 0.356210
C34   C     C_R   0.689808 0.010671 0.511560 0.058106
C35   C     C_R   0.851743 0.292582 0.245537 0.000229
C36   C     C_R   0.738953 0.254641 0.201475 -0.181250
C37   C     C_R   0.661150 0.159585 0.100319 -0.091444
C38   C     C_R   0.695106 0.101509 0.042436 -0.147484
C39   C     C_R   0.934635 0.489100 0.359837 -0.185156
C40   C     C_R   0.305363 0.297362 0.714357 -0.121729
C41   C     C_R   0.009979 0.586135 0.459476 0.064637
C42   C     C_R   0.086120 0.591502 0.552852 0.078962
C43   C     C_R   0.083125 0.498263 0.544753 -0.209717
C44   C     C_R   0.005035 0.400500 0.447184 0.092865
C45   C     C_R   0.712359 0.690234 0.278294 -0.065544
C46   C     C_R   0.931915 0.394655 0.352100 0.070335
C47   C     C_R   0.275667 0.745718 0.697584 -0.244844
C48   C     C_R   0.350316 0.840338 0.799807 -0.114892
C49   C     C_R   0.315002 0.878070 0.869675 -0.148208
C50   C     C_R   0.204801 0.821340 0.837347 -0.182760
C51   C     C_R   0.128768 0.727747 0.734201 0.359985
C52   C     C_R   0.733057 0.952907 0.545862 -0.113018
C53   C     C_R   0.164037 0.690001 0.662996 0.023075
C54   C     C_2   0.546382 0.449749 0.904811 -0.240449
C55   C     C_2   0.478556 0.361730 0.896722 -0.172942
C56   C     C_R   0.302355 0.093245 0.503953 -0.131741
C57   C     C_2   0.626630 0.539363 0.016341 0.394958
C58   C     C_2   0.587735 0.586238 0.071374 -0.294132
C59   C     C_R   0.413246 0.162911 0.135682 -0.190773
C60   C     C_R   0.313480 0.068921 0.088077 -0.246001
C61   C     C_R   0.213732 0.066665 0.039968 0.112032
C62   C     C_R   0.215971 0.161496 0.044530 -0.158909
C63   C     C_R   0.315753 0.254918 0.090872 -0.183852
C64   C     C_R   0.907969 0.213097 0.415734 -0.129096
C65   C     C_R   0.414433 0.255669 0.136354 0.381947
C66   C     C_R   0.097442 0.950734 0.079597 -0.184856
C67   C     C_R   0.092700 0.781264 0.529599 -0.115222
C68   C     C_R   0.994128 0.913573 0.069152 0.075646
C69   C     C_R   0.898942 0.851642 0.960799 0.006726
C70   C     C_R   0.914655 0.838807 0.872960 -0.146893
C71   C     C_R   0.013220 0.914564 0.892885 0.060608
C72   C     C_R   0.108690 0.970713 0.999289 0.005116
C73   C     C_R   0.717895 0.733207 0.933347 -0.173902
C74   C     C_R   0.607099 0.701121 0.894508 -0.139632
C75   C     C_R   0.561523 0.753494 0.849153 -0.095154
C76   C     C_R   0.094547 0.998390 0.800194 -0.122491
C77   C     C_R   0.626680 0.839167 0.843375 -0.126454
C78   C     C_R   0.906434 0.944929 0.185336 -0.094641
C79   C     C_R   0.737883 0.873935 0.885250 -0.161477
C80   C     C_R   0.784951 0.821952 0.931752 0.102309
C81   C     C_R   0.007316 0.943304 0.807531 0.064134
C82   C     C_R   0.089855 0.033253 0.277487 -0.064740
H1    H     H_    0.828144 0.854530 0.682959 0.092313
H2    H     H_    0.464644 0.626721 0.248200 0.123509
H3    H     H_    0.495100 0.811506 0.318354 0.114216
H4    H     H_    0.176440 0.359232 0.537563 0.106364
H5    H     H_    0.492004 0.809007 0.604623 0.107109
H6    H     H_    0.460438 0.623870 0.532526 0.115802
H7    H     H_    0.378365 0.891353 0.524399 0.136381
H8    H     H_    0.685654 0.189901 0.565343 0.148497
H9    H     H_    0.482611 0.217242 0.432898 0.121811
H10   H     H_    0.525444 0.403989 0.480341 0.130590
H11   H     H_    0.630092 0.547359 0.676643 0.121209
H12   H     H_    0.327151 0.144670 0.471481 0.101580
H13   H     H_    0.690841 0.503021 0.825091 0.150653
H14   H     H_    0.641498 0.315060 0.779071 0.142039
H15   H     H_    0.634515 0.028460 0.963994 0.118651
H16   H     H_    0.321185 0.171513 0.856186 0.106561
H17   H     H_    0.832728 0.093851 0.039081 0.145682
H18   H     H_    0.711458 0.298609 0.245951 0.176072
H19   H     H_    0.574465 0.130988 0.066365 0.118522
H20   H     H_    0.877532 0.487136 0.288890 0.176139
H21   H     H_    0.138066 0.501335 0.617955 0.130460
H22   H     H_    0.304157 0.717195 0.644112 0.133782
H23   H     H_    0.177612 0.804607 0.559863 0.112114
H24   H     H_    0.435583 0.884411 0.824958 0.106491
H25   H     H_    0.373344 0.950912 0.949136 0.122622
H26   H     H_    0.178308 0.849778 0.892531 0.149837
H27   H     H_    0.705910 0.083135 0.406576 0.104092
H28   H     H_    0.522646 0.466180 0.837259 0.125546
H29   H     H_    0.502825 0.348478 0.967000 0.191105
H30   H     H_    0.500934 0.560703 0.031722 0.129778
H31   H     H_    0.489574 0.164008 0.173459 0.136956
H32   H     H_    0.314015 0.998437 0.090243 0.134241
H33   H     H_    0.140387 0.162968 0.012390 0.149982
H34   H     H_    0.821558 0.901896 0.123276 0.115945
H35   H     H_    0.316422 0.327065 0.092795 0.153582
H36   H     H_    0.338981 0.350022 0.686186 0.094592
H37   H     H_    0.171709 0.987093 0.157662 0.121096
H38   H     H_    0.843051 0.786676 0.790201 0.135096
H39   H     H_    0.751698 0.690057 0.964890 0.165326
H40   H     H_    0.555434 0.635593 0.898689 0.111355
H41   H     H_    0.475450 0.726809 0.817584 0.114344
H42   H     H_    0.591044 0.878280 0.805809 0.094349
H43   H     H_    0.786922 0.939478 0.878366 0.113011
H44   H     H_    0.716871 0.914577 0.592400 0.106719
H45   H     H_    0.174744 0.068375 0.301224 0.087073
H46   H     H_    0.823025 0.187069 0.362689 0.103331
H47   H     H_    0.178183 0.017759 0.847068 0.114972
H48   H     H_    0.687004 0.627643 0.298615 0.145663
H49   H     H_    0.826709 0.620440 0.408264 0.132336
H50   H     H_    0.683230 0.806605 0.127806 0.107345
H51   H     H_    0.330857 0.977545 0.655074 0.102946
H52   H     H_    0.447635 0.532681 0.354923 0.132362
N1    N     N_R   0.941940 0.944580 0.650780 -0.043118
N2    N     N_R   0.204460 0.150250 0.707090 -0.045059
N3    N     N_R   0.794270 0.003240 0.446420 -0.044001
N4    N     N_R   0.204920 0.207570 0.650770 -0.046838
N5    N     N_R   0.793810 0.945920 0.502740 -0.046664
N6    N     N_R   0.943620 0.152590 0.446420 -0.043375
N7    N     N_R   0.055110 0.000900 0.707100 -0.044568
N8    N     N_R   0.795080 0.792430 0.349230 -0.054228
N9    N     N_R   0.206190 0.054080 0.497260 -0.041316
N10   N     N_R   0.056380 0.847410 0.553580 -0.043869
N11   N     N_R   0.944890 0.999100 0.292900 -0.043936
N12   N     N_R   0.058060 0.055420 0.349220 -0.041208
N13   N     N_R   0.943200 0.791100 0.497260 -0.046581
N14   N     N_R   0.795540 0.849750 0.292910 -0.044274
N15   N     N_R   0.205730 0.996760 0.553580 -0.038219
N16   N     N_R   0.056800 0.208900 0.502740 -0.045365
Ni1   Ni    Ni4+2 0.869690 0.869690 0.500000 0.232284
Ni2   Ni    Ni4+2 0.130310 0.130310 0.500000 0.229854
Ni3   Ni    Ni4+2 0.129250 0.998840 0.629170 0.221633
Ni4   Ni    Ni4+2 0.870750 0.001160 0.370830 0.221591

loop_
_geom_bond_atom_site_label_1
_geom_bond_atom_site_label_2
_ccdc_geom_bond_type
C3    C6    A    
C70   H38   S    
C45   H48   S    
C37   C38   A    
C32   C38   A    
N10   N13   A    
C78   H34   S    
C12   C44   S    
C73   C74   A    
C76   C81   A    
C61   C72   S    
C37   H19   S    
C32   H17   S    
C14   H5    S    
C10   C17   A    
C32   C33   A    
C15   C17   A    
N2    N4    A    
C30   C31   A    
C56   H12   S    
Br2   C51   S    
N3    N5    A    
C2    C8    A    
C26   C27   A    
C59   H31   S    
C82   H45   S    
C11   H3    S    
C60   H32   S    
C13   C14   A    
C14   C15   A    
C69   C70   A    
C40   H36   S    
C64   H46   S    
C26   H10   S    
C15   H6    S    
C42   C43   A    
C52   N5    A    
C5    H51   S    
C23   C40   A    
C71   C81   S    
C76   N7    A    
N8    Ni1   S    
C59   C65   A    
C47   H22   S    
C9    C82   A    
C30   H14   S    
C19   C20   A    
C27   C29   A    
C64   N6    A    
C47   C53   A    
C56   N9    A    
C28   C34   A    
C28   H27   S    
C4    N16   A    
N11   Ni4   S    
C69   C80   S    
N16   Ni2   S    
Br1   C33   S    
C68   C69   A    
C1    C81   A    
C49   H25   S    
C54   C57   S    
C44   C46   A    
C62   C63   A    
C5    N15   A    
C21   H8    S    
C4    C12   A    
N12   Ni2   S    
N15   Ni3   S    
C6    C58   S    
C17   H52   S    
C63   H35   S    
C16   H16   S    
Br4   C65   S    
C77   C79   A    
C1    N1    A    
Br3   C57   S    
N14   Ni4   S    
C20   C31   S    
C70   C71   A    
C47   C48   A    
C43   C44   A    
C20   C21   A    
C35   C36   A    
C25   H9    S    
C74   C75   A    
C22   C34   S    
C73   C80   A    
C21   C22   A    
C49   C50   A    
C9    C78   A    
C76   H47   S    
C3    N14   A    
C29   H13   S    
C39   H20   S    
C71   C72   A    
C58   H30   S    
C25   C26   A    
N2    Ni3   S    
C36   H18   S    
N7    Ni3   S    
N5    Ni1   S    
C79   C80   A    
C48   H24   S    
C29   C30   A    
C50   H26   S    
N9    Ni2   S    
C5    C7    A    
C28   N3    A    
N8    N14   A    
C2    N13   A    
C40   N4    A    
C36   C37   A    
C9    C68   S    
C8    C67   A    
C43   H21   S    
C62   H33   S    
C51   C53   A    
C42   C53   S    
C66   C72   A    
C18   H7    S    
C2    H49   S    
C4    H4    S    
N6    Ni4   S    
C7    C56   A    
C74   H40   S    
C38   H15   S    
C73   H39   S    
C48   C49   A    
C75   C77   A    
C11   C13   A    
C75   H41   S    
C50   C51   A    
N1    N7    A    
C10   C11   A    
C13   C24   S    
C8    C41   S    
C66   C68   A    
C39   C46   A    
C79   H43   S    
C16   C23   A    
N1    Ni1   S    
C25   C31   A    
C22   C24   A    
N13   Ni1   S    
C77   H42   S    
C12   C64   A    
N4    Ni2   S    
C60   C61   A    
C16   N2    A    
C82   N12   A    
C54   C55   D    
C10   H2    S    
C3    H50   S    
C33   C35   A    
C23   C55   S    
N11   N12   A    
C67   H23   S    
C7    C19   S    
C45   N8    A    
C67   N10   A    
N10   Ni3   S    
C27   H11   S    
N6    N16   A    
C57   C58   D    
N9    N15   A    
C78   N11   A    
C66   H37   S    
C59   C60   A    
C1    H1    S    
C41   C42   A    
N3    Ni4   S    
C35   C46   S    
C34   C52   A    
C55   H29   S    
C61   C62   A    
C54   H28   S    
C18   C19   A    
C18   C24   A    
C63   C65   A    
C6    C45   A    
C39   C41   A    
C52   H44   S    
