data_mof_unit_804.cif
_audit_creation_date              2012-12-11T15:52:34-0500
_audit_creation_method            fapswitch 2.2
_symmetry_space_group_name_H-M    P1
_symmetry_Int_Tables_number       1
_space_group_crystal_system       triclinic
_cell_length_a                    6.926221
_cell_length_b                    14.562364
_cell_length_c                    16.009733
_cell_angle_alpha                 90.263945
_cell_angle_beta                  90.017225
_cell_angle_gamma                 90.005367
_cell_volume                      1614.75889842

loop_
_atom_site_label
_atom_site_type_symbol
_atom_type_description
_atom_site_fract_x
_atom_site_fract_y
_atom_site_fract_z
_atom_type_partial_charge
O1    O     O_R   0.494400 0.415640 0.412830 -0.539726
O2    O     O_R   0.823920 0.405510 0.586560 -0.543843
O3    O     O_R   0.994250 0.584360 0.587170 -0.540120
C1    C     C_R   0.654881 0.383228 0.615415 0.686556
O4    O     O_R   0.824110 0.404610 0.413450 -0.542760
O5    O     O_R   0.994440 0.583460 0.412820 -0.539869
C2    C     C_R   0.655028 0.382195 0.384321 0.690591
O6    O     O_R   0.494210 0.416540 0.587180 -0.540412
O7    O     O_3   0.660810 0.558680 0.500000 -0.370284
V1    V     V_3+5 0.935650 0.489110 0.500000 1.394569
O8    O     O_R   0.324150 0.594490 0.413440 -0.543330
C3    C     C_R   0.155092 0.616551 0.384258 0.688624
O9    O     O_R   0.323970 0.595390 0.586550 -0.544968
C4    C     C_R   0.155176 0.617549 0.615681 0.662880
V2    V     V_3+5 0.435660 0.510890 0.500000 1.392425
O10   O     O_3   0.160630 0.441320 0.500000 -0.368315
C5    C     C_3   0.049195 0.643419 0.765033 -0.364544
H1    H     H_    0.903065 0.617078 0.748621 0.131465
H2    H     H_    0.135613 0.582828 0.784784 0.150953
C6    C     C_3   0.029813 0.715283 0.837288 -0.105549
H3    H     H_    0.872449 0.727903 0.846791 0.113467
H4    H     H_    0.874521 0.750392 0.643495 0.143474
H5    H     H_    0.858028 0.856586 0.749058 0.138569
C7    C     C_3   0.023311 0.772130 0.660897 -0.319896
C8    C     C_3   0.348911 0.721040 0.712655 -0.308748
C9    C     C_3   0.144557 0.687050 0.686780 0.096699
H6    H     H_    0.423459 0.751966 0.657983 0.131648
H7    H     H_    0.438252 0.662039 0.733914 0.154881
C10   C     C_3   0.123042 0.808946 0.811427 0.035696
C11   C     C_3   0.012138 0.843590 0.733200 -0.355060
C12   C     C_3   0.336459 0.793039 0.783513 -0.295970
H8    H     H_    0.427640 0.771009 0.836849 0.182575
H9    H     H_    0.399151 0.858851 0.760993 0.126139
H10   H     H_    0.088742 0.804697 0.604897 0.126092
H11   H     H_    0.074111 0.910049 0.712018 0.134199
C13   C     C_R   0.953305 0.773223 0.215423 -0.123335
H12   H     H_    0.812468 0.791422 0.191253 0.118629
C14   C     C_R   0.964315 0.710133 0.281060 -0.151549
H13   H     H_    0.831416 0.681531 0.305244 0.118695
C15   C     C_R   0.143989 0.684317 0.314875 -0.050724
C16   C     C_R   0.312360 0.723222 0.280974 -0.155185
H14   H     H_    0.453210 0.704985 0.305105 0.116865
C17   C     C_R   0.301346 0.786316 0.215340 -0.150317
H15   H     H_    0.434247 0.814885 0.191127 0.119725
C18   C     C_R   0.121644 0.812328 0.181694 -0.034783
C19   C     C_R   0.812300 0.274359 0.716319 -0.157154
H16   H     H_    0.953090 0.292929 0.692356 0.116306
C20   C     C_R   0.801350 0.209647 0.780500 -0.152543
H17   H     H_    0.934223 0.180263 0.803955 0.117220
C21   C     C_R   0.621672 0.183243 0.813784 -0.045092
C22   C     C_R   0.453242 0.223288 0.781098 -0.156141
H18   H     H_    0.312453 0.204725 0.805067 0.116676
C23   C     C_R   0.464191 0.287996 0.716914 -0.150159
H19   H     H_    0.331317 0.317380 0.693460 0.118411
C24   C     C_R   0.643863 0.314363 0.683600 -0.045932
C25   C     C_R   0.812203 0.274202 0.281281 -0.153225
H20   H     H_    0.953070 0.292751 0.305360 0.116583
C26   C     C_R   0.801152 0.210332 0.215742 -0.149519
H21   H     H_    0.934051 0.181509 0.191545 0.117493
C27   C     C_R   0.621438 0.183973 0.182087 -0.045923
C28   C     C_R   0.453088 0.223312 0.215904 -0.153990
H22   H     H_    0.312227 0.204762 0.191820 0.116697
C29   C     C_R   0.464141 0.287186 0.281447 -0.148657
H23   H     H_    0.331249 0.316014 0.305645 0.119453
C30   C     C_R   0.643857 0.313526 0.315112 -0.047722
O11   O     O_R   0.771300 0.080930 0.910090 -0.542633
O12   O     O_R   0.441270 0.092800 0.083770 -0.544616
O13   O     O_R   0.271080 0.913920 0.084380 -0.542549
C31   C     C_R   0.610320 0.115267 0.112907 0.683239
O14   O     O_R   0.441580 0.091910 0.910670 -0.544991
O15   O     O_R   0.271390 0.913020 0.910040 -0.540715
C32   C     C_R   0.610635 0.114276 0.881884 0.680854
O16   O     O_R   0.770990 0.081830 0.084440 -0.542900
O17   O     O_3   0.604750 0.938760 0.997250 -0.364010
V3    V     V_3+5 0.329850 0.008280 0.997210 1.406367
O18   O     O_R   0.941680 0.901940 0.910610 -0.539720
C33   C     C_R   0.110911 0.879825 0.881522 0.671189
O19   O     O_R   0.941370 0.902830 0.083720 -0.537740
C34   C     C_R   0.110472 0.880526 0.112688 0.713177
V4    V     V_3+5 0.829860 0.986420 0.997150 1.424279
O20   O     O_3   0.104830 0.056030 0.997180 -0.372448
C35   C     C_2   0.108144 0.678239 0.918885 0.726464
O21   O     O_2   0.004501 0.677023 0.980721 -0.562790
O22   O     O_R   0.296950 0.644679 0.923653 -0.670654
H24   H     H_    0.331295 0.622237 0.981647 0.301285

loop_
_geom_bond_atom_site_label_1
_geom_bond_atom_site_label_2
_ccdc_geom_bond_type
C8    C12   S    
C14   C15   A    
C29   C30   A    
C6    C35   S    
C16   H14   S    
C1    O6    A    
C23   H19   S    
O13   V3    S    
C11   H11   S    
C5    C9    S    
C13   H12   S    
C7    C9    S    
O5    C3    A    
C14   H13   S    
O19   V4    S    
C26   C27   A    
C25   C30   A    
C5    C6    S    
C25   H20   S    
C28   C29   A    
C21   C32   S    
O8    V2    S    
O11   C32   A    
C19   C24   A    
C12   H9    S    
C31   O16   A    
O1    V2    S    
O7    V1    S    
C6    C10   S    
O13   C34   A    
C20   C21   A    
O17   V4    S    
O9    C4    A    
C16   C17   A    
C8    C9    S    
C21   C22   A    
O18   C33   A    
C23   C24   A    
C19   C20   A    
O17   V3    S    
C22   H18   S    
H5    C11   S    
O22   H24   S    
O4    C2    A    
O19   C34   A    
V3    O20   S    
C26   H21   S    
C7    H10   S    
C27   C28   A    
C8    H7    S    
C3    C15   S    
O2    C1    A    
C17   H15   S    
C10   C11   S    
C2    C30   S    
C12   H8    S    
C5    H1    S    
C13   C18   A    
C18   C34   S    
C4    C9    S    
C17   C18   A    
O3    C4    A    
C20   H17   S    
O6    V2    S    
C35   O22   S    
O9    V2    S    
C1    C24   S    
H4    C7    S    
O12   V3    S    
O2    V1    S    
O15   C33   A    
O12   C31   A    
C19   H16   S    
C15   C16   A    
O1    C2    A    
O18   V4    S    
V4    O20   S    
O5    V1    S    
O8    C3    A    
C8    H6    S    
O11   V4    S    
C13   C14   A    
O7    V2    S    
O4    V1    S    
C10   C12   S    
O3    V1    S    
V1    O10   S    
O15   V3    S    
C27   C31   S    
C5    H2    S    
O16   V4    S    
C25   C26   A    
C28   H22   S    
C7    C11   S    
C29   H23   S    
C10   C33   S    
C6    H3    S    
C35   O21   D    
O14   V3    S    
O14   C32   A    
C22   C23   A    
V2    O10   S    
