data_mof_unit_3031.cif
_audit_creation_date              2012-12-10T17:22:07-0500
_audit_creation_method            fapswitch 2.2
_symmetry_space_group_name_H-M    P1
_symmetry_Int_Tables_number       1
_space_group_crystal_system       triclinic
_cell_length_a                    15.894763
_cell_length_b                    10.774452
_cell_length_c                    9.604727
_cell_angle_alpha                 91.068872
_cell_angle_beta                  89.851655
_cell_angle_gamma                 94.162335
_cell_volume                      1640.25495262

loop_
_atom_site_label
_atom_site_type_symbol
_atom_type_description
_atom_site_fract_x
_atom_site_fract_y
_atom_site_fract_z
_atom_type_partial_charge
C1    C     C_R   0.497539 0.262414 0.498561 0.956177
C2    C     C_3   0.940936 0.391342 0.545231 -0.516778
C3    C     C_3   0.916775 0.521840 0.498835 -0.161091
C4    C     C_3   0.956939 0.616896 0.616403 0.782623
C5    C     C_3   0.056088 0.616446 0.602090 0.146999
C6    C     C_1   0.824522 0.516685 0.499100 0.034062
C7    C     C_1   0.175525 0.508168 0.498299 0.061074
C8    C     C_1   0.250934 0.505438 0.500664 -0.204205
C9    C     C_R   0.348562 0.110686 0.599852 0.487857
C10   C     C_R   0.288224 0.042315 0.679139 -0.282322
C11   C     C_R   0.297710 0.918215 0.708553 0.464959
C12   C     C_R   0.340466 0.502439 0.500353 0.871723
C13   C     C_R   0.364877 0.859306 0.647032 -0.292859
C14   C     C_R   0.428940 0.928079 0.572519 -0.032454
C15   C     C_R   0.424078 0.057498 0.558536 -0.085046
C16   C     C_R   0.492065 0.127661 0.494450 -0.205651
C17   C     C_R   0.558699 0.068919 0.431561 0.453616
C18   C     C_R   0.557919 0.940251 0.432187 -0.284663
C19   C     C_R   0.495395 0.870535 0.504730 -0.091987
C20   C     C_R   0.612854 0.668461 0.146718 -0.080836
C21   C     C_R   0.668150 0.750669 0.075760 -0.197018
C22   C     C_R   0.667757 0.750974 0.932167 -0.226427
C23   C     C_R   0.499101 0.737176 0.501381 0.764614
C24   C     C_R   0.612334 0.668679 0.858625 -0.089697
C25   C     C_R   0.555011 0.583198 0.926667 0.084299
C26   C     C_R   0.554746 0.583641 0.076096 0.091565
C27   C     C_R   0.450796 0.415236 0.072871 0.448298
C28   C     C_R   0.446731 0.420773 0.923569 0.454823
C29   C     C_R   0.659519 0.502221 0.499814 0.789968
C30   C     C_3   0.037926 0.384081 0.541047 0.319478
C31   C     C_3   0.051967 0.556391 0.341210 0.786308
C32   C     C_3   0.951823 0.537323 0.340322 0.797772
C33   C     C_1   0.748963 0.509745 0.499445 -0.233281
C34   C     C_3   0.083436 0.512819 0.493247 -0.236504
Cu1   Cu    Cu3+1 0.499990 0.499990 0.640660 0.972469
Cu2   Cu    Cu3+1 0.500010 0.500010 0.359340 0.979402
H1    H     H_    0.908839 0.315627 0.480190 0.241702
H2    H     H_    0.057916 0.367489 0.648246 0.108884
H3    H     H_    0.231884 0.084905 0.713308 0.150705
H4    H     H_    0.711074 0.814995 0.877037 0.139597
H5    H     H_    0.074836 0.705858 0.554136 0.183366
N1    N     N_R   0.500800 0.501210 0.147910 -0.252966
N2    N     N_R   0.500820 0.501290 0.852040 -0.259509
O1    O     O_R   0.499990 0.319640 0.618810 -0.535920
O2    O     O_R   0.500000 0.319660 0.381240 -0.516364
O3    O     O_R   0.379430 0.499990 0.618840 -0.532718
O4    O     O_R   0.379440 0.500020 0.381260 -0.558751
O5    O     O_R   0.500000 0.680340 0.618760 -0.612653
O6    O     O_R   0.500010 0.680360 0.381190 -0.601901
O7    O     O_R   0.620560 0.499980 0.618740 -0.606369
O8    O     O_R   0.620570 0.500010 0.381160 -0.587991
H6    H     H_    0.917379 0.369825 0.651884 0.180171
O9    O     O_3   0.930276 0.739030 0.596744 -0.664112
C35   C     C_3   0.964400 0.828844 0.695040 -0.306283
H7    H     H_    0.980859 0.790042 0.797027 0.244437
H8    H     H_    0.916870 0.897443 0.715396 0.156700
H9    H     H_    0.020958 0.880307 0.650630 0.174399
O10   O     O_3   0.622130 0.137325 0.361793 -0.579582
C36   C     C_3   0.693398 0.153266 0.449181 -0.350799
H10   H     H_    0.719897 0.062663 0.470137 0.158022
H11   H     H_    0.678411 0.201534 0.548779 0.151408
H12   H     H_    0.742882 0.212729 0.395567 0.193126
O11   O     O_3   0.328080 0.222756 0.547161 -0.580114
C37   C     C_3   0.281920 0.197444 0.422909 -0.337124
H13   H     H_    0.214885 0.171937 0.447398 0.189359
H14   H     H_    0.307103 0.122482 0.356858 0.144520
H15   H     H_    0.285214 0.281915 0.359063 0.216224
O12   O     O_3   0.234618 0.853287 0.783034 -0.546391
C38   C     C_3   0.269782 0.792012 0.895308 -0.256815
H16   H     H_    0.319183 0.852190 0.951477 0.132641
H17   H     H_    0.295373 0.703730 0.859284 0.156482
H18   H     H_    0.218961 0.767726 0.971481 0.186910
H19   H     H_    0.365027 0.759815 0.656483 0.175040
H20   H     H_    0.607870 0.894792 0.379025 0.142100
O13   O     O_3   0.404635 0.322763 0.143802 -0.573853
C39   C     C_3   0.437311 0.206748 0.112383 -0.266313
H21   H     H_    0.412977 0.168195 0.011139 0.181218
H22   H     H_    0.415796 0.139548 0.193093 0.169314
H23   H     H_    0.507652 0.211943 0.113138 0.177837
O14   O     O_3   0.059531 0.281567 0.457474 -0.574368
C40   C     C_3   0.048243 0.168448 0.530212 -0.387029
H24   H     H_    0.983009 0.151976 0.571201 0.164549
H25   H     H_    0.094511 0.166426 0.616611 0.159653
H26   H     H_    0.059569 0.090474 0.457100 0.193526
H27   H     H_    0.619223 0.674469 0.256716 0.181306
H28   H     H_    0.711879 0.814287 0.132916 0.140629
H29   H     H_    0.617307 0.675694 0.748697 0.189627
O15   O     O_3   0.391799 0.340025 0.848200 -0.533189
C41   C     C_3   0.307859 0.367113 0.877006 -0.272141
H30   H     H_    0.266717 0.323815 0.793756 0.195090
H31   H     H_    0.299636 0.468957 0.877861 0.127615
H32   H     H_    0.285593 0.325965 0.976723 0.166724
O16   O     O_3   0.071913 0.687034 0.326064 -0.623228
C42   C     C_3   0.158717 0.722001 0.304014 -0.296623
H33   H     H_    0.194922 0.649816 0.252142 0.190961
H34   H     H_    0.189482 0.750547 0.404315 0.158924
H35   H     H_    0.163555 0.804615 0.236510 0.179644
O17   O     O_3   0.083046 0.502325 0.214083 -0.564417
C43   C     C_3   0.110583 0.381337 0.212193 -0.213546
H36   H     H_    0.057021 0.309902 0.215502 0.247939
H37   H     H_    0.160250 0.368523 0.288932 0.179250
H38   H     H_    0.140941 0.366575 0.109712 0.119398
O18   O     O_3   0.933186 0.419263 0.270972 -0.597404
C44   C     C_3   0.860830 0.411130 0.184690 -0.214709
H39   H     H_    0.876183 0.454615 0.082942 0.203113
H40   H     H_    0.806229 0.453788 0.233157 0.177472
H41   H     H_    0.841772 0.311415 0.164214 0.150085
O19   O     O_3   0.918357 0.630788 0.254215 -0.575974
C45   C     C_3   0.896171 0.742935 0.316808 -0.261447
H42   H     H_    0.950804 0.797296 0.363991 0.235310
H43   H     H_    0.841602 0.729066 0.387760 0.178309
H44   H     H_    0.874335 0.802069 0.232828 0.159753
O20   O     O_3   0.101719 0.636785 0.730003 -0.527961
C46   C     C_3   0.110715 0.532542 0.813688 -0.180828
H45   H     H_    0.157804 0.472460 0.768981 0.112665
H46   H     H_    0.050382 0.479560 0.837471 0.189912
H47   H     H_    0.136480 0.566501 0.915702 0.189062
O21   O     O_3   0.934241 0.574905 0.753194 -0.591552
C47   C     C_3   0.850176 0.592133 0.794955 -0.271410
H48   H     H_    0.812558 0.501281 0.790684 0.159801
H49   H     H_    0.817498 0.660778 0.734094 0.190922
H50   H     H_    0.851027 0.625314 0.904998 0.189685

loop_
_geom_bond_atom_site_label_1
_geom_bond_atom_site_label_2
_ccdc_geom_bond_type
O16   C42   S    
C4    O9    S    
Cu2   N1    S    
Cu1   Cu2   S    
C2    H1    S    
C39   H23   S    
C3    C6    S    
C25   N2    A    
C44   H40   S    
C46   H45   S    
C7    C8    T    
O9    C35   S    
C39   H22   S    
C45   H43   S    
C23   O6    A    
C15   C16   A    
C29   C33   S    
O19   C45   S    
C30   H2    S    
Cu2   O4    S    
C18   C19   A    
C31   O17   S    
C38   H17   S    
O21   C47   S    
C21   H28   S    
C43   H36   S    
O12   C38   S    
C28   O15   S    
C3    C32   S    
C41   H31   S    
Cu1   N2    S    
C9    C10   A    
C17   O10   S    
C30   O14   S    
C36   H10   S    
C18   H20   S    
C21   C22   A    
C5    C34   S    
C4    O21   S    
C38   H16   S    
C12   O4    A    
C27   O13   S    
Cu1   O5    S    
C44   H39   S    
C40   H25   S    
C40   H24   S    
C29   O7    A    
C47   H49   S    
C35   H8    S    
C32   O18   S    
C36   H11   S    
C30   C34   S    
C37   H15   S    
C24   C25   A    
C12   O3    A    
C45   H44   S    
C16   C17   A    
C42   H35   S    
O10   C36   S    
C31   O16   S    
C10   H3    S    
C37   H14   S    
C38   H18   S    
C19   C23   S    
O13   C39   S    
C1    O1    A    
C31   C32   S    
C8    C12   S    
C22   H4    S    
C20   H27   S    
C20   C21   A    
Cu1   O7    S    
C17   C18   A    
C31   C34   S    
Cu2   O2    S    
C1    C16   S    
C39   H21   S    
C41   H32   S    
C42   H34   S    
Cu1   O1    S    
Cu2   O8    S    
C2    H6    S    
C43   H37   S    
C13   H19   S    
C7    C34   S    
C22   C24   A    
C3    C4    S    
C27   C28   A    
C40   H26   S    
C11   O12   S    
C26   N1    A    
O20   C46   S    
C29   O8    A    
C47   H50   S    
C5    H5    S    
C35   H7    S    
C36   H12   S    
C23   O5    A    
C5    O20   S    
C9    O11   S    
C14   C19   A    
O14   C40   S    
C46   H46   S    
C47   H48   S    
C28   N2    A    
C6    C33   T    
C2    C30   S    
C37   H13   S    
C2    C3    S    
C25   C26   A    
C45   H42   S    
C11   C13   A    
C27   N1    A    
C1    O2    A    
C20   C26   A    
C9    C15   A    
C42   H33   S    
C24   H29   S    
C46   H47   S    
C10   C11   A    
O11   C37   S    
C4    C5    S    
C43   H38   S    
O15   C41   S    
O17   C43   S    
C32   O19   S    
O18   C44   S    
C14   C15   A    
C41   H30   S    
C13   C14   A    
Cu1   O3    S    
C44   H41   S    
Cu2   O6    S    
C35   H9    S    
