data_mof_unit_1978.cif
_audit_creation_date              2012-12-10T17:28:38-0500
_audit_creation_method            fapswitch 2.2
_symmetry_space_group_name_H-M    P1
_symmetry_Int_Tables_number       1
_space_group_crystal_system       triclinic
_cell_length_a                    10.620393
_cell_length_b                    11.939644
_cell_length_c                    12.833117
_cell_angle_alpha                 94.994882
_cell_angle_beta                  89.326889
_cell_angle_gamma                 85.624449
_cell_volume                      1616.1052709

loop_
_atom_site_label
_atom_site_type_symbol
_atom_type_description
_atom_site_fract_x
_atom_site_fract_y
_atom_site_fract_z
_atom_type_partial_charge
C1    C     C_R   0.497328 0.524220 0.700518 0.899839
C2    C     C_R   0.419780 0.519924 0.130683 -0.068101
C3    C     C_R   0.555347 0.471274 0.975686 0.070278
C4    C     C_R   0.444658 0.528730 0.024314 0.070280
C5    C     C_R   0.365915 0.954490 0.416824 -0.130425
C6    C     C_R   0.634084 0.045510 0.583177 -0.130425
C7    C     C_R   0.380251 0.838040 0.426216 -0.022460
C8    C     C_R   0.619748 0.161960 0.573785 -0.022462
C9    C     C_R   0.561442 0.856813 0.530258 0.010193
C10   C     C_R   0.438558 0.143187 0.469742 0.010200
C11   C     C_R   0.549476 0.975245 0.529346 -0.013048
C12   C     C_R   0.502672 0.475780 0.299481 0.899836
C13   C     C_R   0.450524 0.024755 0.470654 -0.013051
C14   C     C_R   0.740087 0.497106 0.484214 0.908124
C15   C     C_R   0.259914 0.502894 0.515787 0.908127
C16   C     C_R   0.909305 0.285004 0.456294 -0.117696
C17   C     C_R   0.090697 0.714996 0.543710 -0.117696
C18   C     C_R   0.974859 0.188894 0.488669 -0.087863
C19   C     C_R   0.025143 0.811106 0.511336 -0.087865
C20   C     C_R   0.080634 0.199584 0.550366 -0.115665
C21   C     C_R   0.919368 0.800417 0.449640 -0.115662
C22   C     C_R   0.126435 0.305320 0.572101 -0.136339
C23   C     C_R   0.507402 0.456584 0.187383 -0.173758
C24   C     C_R   0.873566 0.694681 0.427905 -0.136348
C25   C     C_R   0.067484 0.402013 0.530706 0.098807
C26   C     C_R   0.932517 0.597988 0.469299 0.098806
C27   C     C_R   0.950033 0.393683 0.484044 0.111243
C28   C     C_R   0.049969 0.606317 0.515961 0.111244
C29   C     C_R   0.123495 0.505898 0.532556 -0.207823
C30   C     C_R   0.876506 0.494103 0.467449 -0.207834
C31   C     C_2   0.264939 0.997491 0.348141 0.898425
C32   C     C_2   0.735058 0.002509 0.651861 0.898423
C33   C     C_2   0.303795 0.576814 0.184707 0.908278
C34   C     C_R   0.492601 0.543416 0.812617 -0.173780
C35   C     C_2   0.696204 0.423182 0.815292 0.908281
C36   C     C_2   0.699727 0.317546 0.193730 0.905613
C37   C     C_2   0.300279 0.682453 0.806269 0.905706
C38   C     C_R   0.362428 0.595248 0.966099 -0.181730
C39   C     C_R   0.637578 0.404758 0.033902 -0.181720
C40   C     C_R   0.387518 0.606205 0.861731 -0.053276
C41   C     C_R   0.612488 0.393798 0.138269 -0.053293
C42   C     C_R   0.580223 0.480077 0.869316 -0.068095
H1    H     H_    0.871192 0.874265 0.420494 0.148694
H2    H     H_    0.722500 0.360334 0.999402 0.201379
H3    H     H_    0.362302 0.185713 0.430264 0.184042
H4    H     H_    0.637698 0.814288 0.569736 0.184039
H5    H     H_    0.684291 0.217329 0.612108 0.183912
H6    H     H_    0.315708 0.782671 0.387893 0.183917
H7    H     H_    0.212534 0.100579 0.237177 0.368466
H8    H     H_    0.787459 0.899422 0.762828 0.368463
H9    H     H_    0.197987 0.721858 0.225526 0.360849
H10   H     H_    0.802005 0.278136 0.774478 0.360852
H11   H     H_    0.721748 0.177645 0.271557 0.331150
H12   H     H_    0.128810 0.125736 0.579512 0.148693
H13   H     H_    0.278240 0.822364 0.728461 0.331160
H14   H     H_    0.827792 0.273498 0.408258 0.162817
H15   H     H_    0.172212 0.726501 0.591745 0.162827
H16   H     H_    0.941826 0.106481 0.467820 0.168119
H17   H     H_    0.058177 0.893520 0.532185 0.168119
H18   H     H_    0.207864 0.310841 0.621675 0.161014
H19   H     H_    0.792137 0.689161 0.378331 0.161015
H20   H     H_    0.277508 0.639673 0.000599 0.201368
N1    N     N_R   0.523130 0.207800 0.519340 -0.122015
N2    N     N_R   0.476870 0.792200 0.480660 -0.122018
O1    O     O_R   0.506170 0.421700 0.658830 -0.622381
O2    O     O_R   0.288653 0.079238 0.280274 -0.764348
O3    O     O_2   0.837691 0.042519 0.652589 -0.658522
O4    O     O_R   0.711341 0.920763 0.719730 -0.764347
O5    O     O_2   0.232564 0.521264 0.230772 -0.603647
O6    O     O_R   0.279328 0.693713 0.186339 -0.797708
O7    O     O_2   0.767434 0.478727 0.769221 -0.603653
O8    O     O_R   0.720669 0.306285 0.813667 -0.797711
O9    O     O_2   0.813132 0.329141 0.192502 -0.627021
O10   O     O_R   0.652757 0.228237 0.241806 -0.746701
O11   O     O_2   0.186892 0.670840 0.807477 -0.627073
O12   O     O_R   0.493830 0.578300 0.341170 -0.622384
O13   O     O_R   0.347231 0.771775 0.758214 -0.746721
O14   O     O_R   0.491330 0.609310 0.646410 -0.567231
O15   O     O_R   0.508670 0.390690 0.353590 -0.567209
O16   O     O_R   0.690650 0.406190 0.506220 -0.624457
O17   O     O_R   0.309350 0.593810 0.493780 -0.624462
O18   O     O_R   0.675800 0.593810 0.493800 -0.627586
O19   O     O_R   0.324200 0.406190 0.506200 -0.627585
O20   O     O_2   0.162307 0.957479 0.347413 -0.658522
Zn1   Zn    Zn3+2 0.509910 0.374730 0.508290 0.988563
Zn2   Zn    Zn3+2 0.490090 0.625270 0.491710 0.988557

loop_
_geom_bond_atom_site_label_1
_geom_bond_atom_site_label_2
_ccdc_geom_bond_type
C31   O2    S    
C6    C32   S    
C3    C42   A    
C24   H19   S    
C9    N2    A    
C10   N1    A    
C34   C42   A    
C15   O17   A    
C12   C23   S    
C34   C40   A    
C28   C29   A    
C19   C21   A    
C24   C26   A    
C37   C40   S    
C22   H18   S    
H13   O13   S    
C12   O15   A    
C35   C42   S    
C21   H1    S    
C18   H16   S    
H11   O10   S    
C22   C25   A    
C1    O1    A    
H9    O6    S    
C14   O16   A    
C5    C13   A    
O17   Zn2   S    
C33   O5    D    
C32   O4    S    
O14   Zn2   S    
C16   C27   A    
C37   O11   D    
C3    C39   A    
C9    H4    S    
N1    Zn1   S    
C27   C30   A    
C1    O14   A    
C36   C41   S    
C14   C30   S    
N2    Zn2   S    
C1    C34   S    
C15   C29   S    
C25   C29   A    
H7    O2    S    
C20   H12   S    
C6    C11   A    
C5    C7    A    
C15   O19   A    
C19   H17   S    
O18   Zn2   S    
C37   O13   S    
C31   O20   D    
C2    C4    A    
C16   H14   S    
O16   Zn1   S    
H10   O8    S    
C10   H3    S    
C9    C11   A    
C36   O10   S    
C33   O6    S    
C32   O3    D    
C2    C33   S    
O19   Zn1   S    
C20   C22   A    
C35   O8    S    
C26   C30   A    
C12   O12   A    
C14   O18   A    
C3    C4    A    
O12   Zn2   S    
O15   Zn1   S    
C17   C28   A    
C4    C38   A    
C10   C13   A    
C6    C8    A    
O1    Zn1   S    
C39   H2    S    
C25   C27   A    
C26   C28   A    
C23   C41   A    
C7    H6    S    
C8    H5    S    
C38   C40   A    
C11   C13   A    
C17   C19   A    
C18   C20   A    
C7    N2    A    
C36   O9    D    
C8    N1    A    
C35   O7    D    
C39   C41   A    
C16   C18   A    
C21   C24   A    
C2    C23   A    
C38   H20   S    
H8    O4    S    
C17   H15   S    
C5    C31   S    
