data_mof_unit_4897.cif
_audit_creation_date              2013-03-05T16:10:29-0500
_audit_creation_method            fapswitch 2.2
_symmetry_space_group_name_H-M    P1
_symmetry_Int_Tables_number       1
_space_group_crystal_system       triclinic
_cell_length_a                    10.717854
_cell_length_b                    9.824453
_cell_length_c                    14.999405
_cell_angle_alpha                 89.803568
_cell_angle_beta                  90.083074
_cell_angle_gamma                 89.94196
_cell_volume                      1579.38138111

loop_
_atom_site_label
_atom_site_type_symbol
_atom_site_description
_atom_site_fract_x
_atom_site_fract_y
_atom_site_fract_z
_atom_type_partial_charge
O1    O     O_R   0.316770 0.614620 0.499990 -0.626366
O2    O     O_R   0.683230 0.385380 0.500010 -0.626370
O3    O     O_R   0.683230 0.614620 0.500010 -0.628128
O4    O     O_R   0.316770 0.385380 0.499990 -0.628124
C1    C     C_R   0.259824 0.500045 0.499910 0.877748
C2    C     C_R   0.740176 0.499955 0.500090 0.877742
O5    O     O_R   0.499980 0.614680 0.367850 -0.622202
O6    O     O_R   0.500020 0.385320 0.632150 -0.622188
O7    O     O_R   0.500020 0.614680 0.632150 -0.624765
O8    O     O_R   0.499980 0.385320 0.367850 -0.624772
C3    C     C_R   0.499385 0.500221 0.326589 0.895889
C4    C     C_R   0.500603 0.499780 0.673410 0.895866
Zn1   Zn    Zn3+2 0.500000 0.653120 0.500000 0.963070
Zn2   Zn    Zn3+2 0.500000 0.346880 0.500000 0.963075
C5    C     C_R   0.540537 0.616098 0.814445 -0.180046
C6    C     C_R   0.459332 0.383926 0.185557 -0.179968
C7    C     C_R   0.502772 0.499254 0.769186 -0.095107
C8    C     C_R   0.497133 0.500761 0.230814 -0.095121
C9    C     C_R   0.466607 0.382218 0.815039 -0.189573
C10   C     C_R   0.533206 0.617826 0.184959 -0.189628
C11   C     C_R   0.464497 0.382182 0.907154 0.070550
C12   C     C_R   0.535235 0.617887 0.092844 0.070606
C13   C     C_R   0.502142 0.499918 0.953607 0.028281
C14   C     C_R   0.497584 0.500148 0.046393 0.028289
C15   C     C_R   0.543879 0.617303 0.907098 -0.004648
C16   C     C_R   0.455865 0.382756 0.092904 -0.004590
C17   C     C_R   0.422598 0.266860 0.952864 -0.213279
C18   C     C_R   0.577056 0.733237 0.047132 -0.213440
C19   C     C_R   0.415565 0.266421 0.045608 0.314946
C20   C     C_R   0.584080 0.733667 0.954392 0.315188
H1    H     H_    0.565946 0.705871 0.776709 0.199475
H2    H     H_    0.434011 0.294130 0.223297 0.199478
H3    H     H_    0.436802 0.292300 0.778986 0.165917
H4    H     H_    0.563020 0.707746 0.221008 0.165887
H5    H     H_    0.391743 0.178069 0.916149 0.198160
H6    H     H_    0.607857 0.822058 0.083837 0.197950
C21   C     C_R   0.063990 0.378903 0.482290 -0.172082
C22   C     C_R   0.936010 0.621097 0.517710 -0.172118
C23   C     C_R   0.936172 0.378822 0.482450 -0.176446
C24   C     C_R   0.063828 0.621177 0.517550 -0.176448
H7    H     H_    0.112750 0.284829 0.467925 0.161495
H8    H     H_    0.887250 0.715171 0.532076 0.161482
H9    H     H_    0.887540 0.284706 0.468205 0.163598
H10   H     H_    0.112461 0.715293 0.531796 0.163602
C25   C     C_R   0.872590 0.499926 0.500128 -0.020875
C26   C     C_R   0.127410 0.500073 0.499872 -0.020874
C27   C     C_R   0.574733 0.071622 0.557442 -0.061155
C28   C     C_R   0.425267 0.928378 0.442558 -0.061202
C29   C     C_R   0.425267 0.072396 0.442553 -0.060144
C30   C     C_R   0.574733 0.927604 0.557447 -0.060095
H11   H     H_    0.634438 0.126010 0.603313 0.145528
H12   H     H_    0.365562 0.873990 0.396686 0.145523
H13   H     H_    0.365566 0.127398 0.396669 0.145089
H14   H     H_    0.634433 0.872601 0.603331 0.145060
N1    N     N_R   0.500000 0.857200 0.500000 -0.091220
N2    N     N_R   0.500000 0.142800 0.500000 -0.091224
N3    N     N_R   0.363914 0.149286 0.089908 0.201489
O9    O     O_R   0.389073 0.027628 0.060785 -0.362009
O10   O     O_R   0.273700 0.164342 0.147044 -0.403031
N4    N     N_R   0.635568 0.850856 0.910084 0.201457
O11   O     O_R   0.609861 0.972466 0.938992 -0.362239
O12   O     O_R   0.726017 0.835991 0.853128 -0.402960

loop_
_geom_bond_atom_site_label_1
_geom_bond_atom_site_label_2
_geom_bond_distance
_ccdc_geom_bond_type
C4    C7    1.436729 S    
Zn1   N1    2.004974 S    
C28   N1    1.365888 A    
Zn2   N2    2.004974 S    
C13   C14   1.392680 A    
C3    C8    1.436739 S    
C5    H1    1.081634 S    
C2    C25   1.419200 S    
C17   C19   1.393236 A    
C29   N2    1.365898 A    
C17   H5    1.084865 S    
C1    C26   1.419199 S    
O5    C3    1.285426 A    
C30   N1    1.365896 A    
O3    Zn1   1.999548 S    
C23   C25   1.396894 A    
C27   C30   1.414903 A    
O6    C4    1.285434 A    
O3    C2    1.280685 A    
C10   H4    1.085466 S    
C18   C20   1.393179 A    
C11   C17   1.397131 A    
C21   C23   1.369947 A    
O4    Zn2   1.999551 S    
C12   C18   1.397102 A    
C22   C24   1.369948 A    
C14   C16   1.418872 A    
N3    O9    1.302061 A    
C30   H14   1.081921 S    
N4    O11   1.301755 A    
C29   H13   1.081921 S    
C12   C14   1.411360 A    
N4    O12   1.301508 A    
C28   C29   1.414903 A    
C9    C11   1.381890 A    
C19   N3    1.438549 S    
C22   H8    1.083721 S    
C28   H12   1.081817 S    
C8    C10   1.393380 A    
C13   C15   1.418854 A    
C11   C13   1.411337 A    
C21   H7    1.083721 S    
O2    Zn2   2.000301 S    
O7    C4    1.285494 A    
O1    C1    1.281004 A    
C5    C15   1.390235 A    
N3    O10   1.301612 A    
O8    C3    1.285505 A    
C24   C26   1.396894 A    
C24   H10   1.083653 S    
O1    Zn1   2.000303 S    
C18   H6    1.084851 S    
C16   C19   1.414848 A    
C6    C8    1.395703 A    
O8    Zn2   2.016554 S    
C15   C20   1.414742 A    
C5    C7    1.395677 A    
O7    Zn1   2.016553 S    
C6    H2    1.081602 S    
C27   N2    1.365886 A    
C22   C25   1.397127 A    
C27   H11   1.081817 S    
O5    Zn1   2.019098 S    
O6    Zn2   2.019096 S    
C7    C9    1.393401 A    
C21   C26   1.397128 A    
C23   H9    1.083653 S    
O2    C2    1.281004 A    
C9    H3    1.085459 S    
O4    C1    1.280684 A    
C10   C12   1.381863 A    
C6    C16   1.390271 A    
C20   N4    1.438344 S    
