data_mof_unit_2585.cif
_audit_creation_date              2012-12-11T14:10:57-0500
_audit_creation_method            fapswitch 2.2
_symmetry_space_group_name_H-M    P1
_symmetry_Int_Tables_number       1
_space_group_crystal_system       triclinic
_cell_length_a                    19.790974
_cell_length_b                    17.284683
_cell_length_c                    15.44176
_cell_angle_alpha                 90.008341
_cell_angle_beta                  52.514295
_cell_angle_gamma                 89.722805
_cell_volume                      4191.47409855

loop_
_atom_site_label
_atom_site_type_symbol
_atom_type_description
_atom_site_fract_x
_atom_site_fract_y
_atom_site_fract_z
_atom_type_partial_charge
C1    C     C_R   0.373532 0.196532 0.995859 -0.119734
C2    C     C_3   0.669846 0.729083 0.460074 0.042780
C3    C     C_3   0.739874 0.233295 0.453208 0.038070
C4    C     C_3   0.334425 0.720392 0.530165 0.044874
C5    C     C_3   0.744020 0.720424 0.556537 0.038011
C6    C     C_3   0.167705 0.226782 0.461908 0.043152
C7    C     C_3   0.245275 0.731824 0.453784 0.045221
C8    C     C_3   0.828565 0.223418 0.530459 0.048795
C9    C     C_2   0.195312 0.740949 0.088215 -0.182791
C10   C     C_2   0.798906 0.261345 0.922756 -0.172674
C11   C     C_2   0.806300 0.740766 0.908802 -0.198884
C12   C     C_R   0.659492 0.823641 0.952791 -0.122761
C13   C     C_2   0.284896 0.311324 0.956171 -0.190154
C14   C     C_2   0.768270 0.198580 0.985184 -0.180179
C15   C     C_2   0.218279 0.809628 0.038317 -0.181991
C16   C     C_2   0.307576 0.242054 0.907371 -0.198813
C17   C     C_2   0.783038 0.809444 0.958763 -0.190866
C18   C     C_R   0.388632 0.803994 0.214842 -0.046103
C19   C     C_R   0.647535 0.174736 0.776576 -0.094507
C20   C     C_R   0.610284 0.803333 0.785466 -0.162639
C21   C     C_R   0.348235 0.171205 0.221020 -0.134350
C22   C     C_R   0.884195 0.305378 0.215762 -0.037222
C23   C     C_R   0.650600 0.183567 0.970577 -0.080760
C24   C     C_R   0.150694 0.671626 0.778699 -0.099534
C25   C     C_R   0.109596 0.303134 0.785776 -0.165024
C26   C     C_R   0.848371 0.671332 0.220929 -0.135045
C27   C     C_R   0.331353 0.911941 0.948453 -0.151224
C28   C     C_R   0.661678 0.093909 0.064556 -0.156564
C29   C     C_R   0.667741 0.909654 0.053252 -0.119009
C30   C     C_R   0.364651 0.109666 0.897972 -0.155525
C31   C     C_R   0.861926 0.391468 0.901683 -0.145115
C32   C     C_R   0.136147 0.609316 0.100963 -0.152998
C33   C     C_R   0.169637 0.412614 0.049412 -0.116850
C34   C     C_R   0.340997 0.823792 0.045963 -0.074716
C35   C     C_R   0.863930 0.608979 0.898762 -0.146096
C36   C     C_R   0.356871 0.079529 0.316682 -0.094185
C37   C     C_R   0.603652 0.895502 0.689214 -0.124235
C38   C     C_R   0.640485 0.080631 0.682342 -0.163490
C39   C     C_R   0.394894 0.896181 0.311474 -0.144837
C40   C     C_R   0.856988 0.579757 0.316711 -0.095238
C41   C     C_R   0.102931 0.395278 0.689577 -0.127698
C42   C     C_R   0.142147 0.579824 0.682874 -0.162576
C43   C     C_R   0.892094 0.396952 0.312468 -0.148976
C44   C     C_R   0.345571 0.184971 0.934344 0.153630
C45   C     C_R   0.873309 0.696274 0.996008 -0.120927
C46   C     C_R   0.709910 0.849023 0.980712 0.151777
C47   C     C_R   0.699316 0.158201 0.000907 0.170118
C48   C     C_R   0.290135 0.850051 0.018672 0.154494
C49   C     C_R   0.844888 0.684194 0.935056 0.152070
C50   C     C_R   0.211709 0.351205 0.977725 0.151782
C51   C     C_R   0.155844 0.684239 0.063481 0.142138
C52   C     C_R   0.840930 0.317476 0.942202 0.126743
C53   C     C_R   0.369674 0.822140 0.314001 0.084392
C54   C     C_R   0.687867 0.141392 0.675064 0.118231
C55   C     C_R   0.627689 0.820811 0.687016 0.047841
C56   C     C_R   0.160312 0.324537 0.951683 -0.123165
C57   C     C_R   0.306701 0.138051 0.322925 0.038935
C58   C     C_R   0.864128 0.324076 0.315260 0.081995
C59   C     C_R   0.191302 0.639003 0.676372 0.115930
C60   C     C_R   0.126397 0.320401 0.687601 0.049545
C61   C     C_R   0.806851 0.638238 0.322811 0.040486
C62   C     C_3   0.206248 0.150993 0.539163 -0.121305
C63   C     C_3   0.708456 0.798456 0.478275 -0.127245
C64   C     C_3   0.776461 0.157579 0.461729 -0.275510
C65   C     C_3   0.299192 0.796783 0.520464 -0.248560
C66   C     C_3   0.705144 0.651052 0.539010 -0.120811
C67   C     C_R   0.126987 0.696055 0.003034 -0.083880
C68   C     C_3   0.205290 0.297594 0.479133 -0.127909
C69   C     C_3   0.280971 0.655601 0.462556 -0.275646
C70   C     C_3   0.792342 0.299210 0.521190 -0.250695
C71   C     C_3   0.625231 0.700693 0.578406 -0.250819
C72   C     C_3   0.285620 0.250357 0.439833 -0.249427
C73   C     C_3   0.367520 0.695520 0.414012 -0.230160
C74   C     C_3   0.707346 0.258692 0.567515 -0.241217
C75   C     C_3   0.124889 0.198767 0.580002 -0.253131
C76   C     C_3   0.787340 0.749359 0.440384 -0.250177
C77   C     C_3   0.862312 0.198467 0.414193 -0.229871
C78   C     C_R   0.870708 0.305176 0.001367 -0.061360
C79   C     C_3   0.213502 0.757192 0.567829 -0.240439
C80   C     C_3   0.665807 0.769127 0.594866 0.078809
C81   C     C_3   0.247166 0.180117 0.422973 0.069032
C82   C     C_3   0.330159 0.771036 0.406286 0.158390
C83   C     C_3   0.744637 0.183442 0.576059 0.171969
C84   C     C_3   0.164477 0.268659 0.595424 0.079158
C85   C     C_3   0.747848 0.680580 0.422575 0.067881
C86   C     C_3   0.823994 0.273380 0.406889 0.160944
C87   C     C_3   0.249749 0.681300 0.576836 0.172724
C88   C     C_2   0.288757 0.220514 0.606582 0.456457
C89   C     C_3   0.244105 0.221768 0.555679 0.037651
C90   C     C_2   0.629786 0.730779 0.403492 0.450416
C91   C     C_2   0.684446 0.236888 0.417427 0.462611
C92   C     C_2   0.384909 0.714137 0.572673 0.443090
C93   C     C_2   0.787489 0.717133 0.608923 0.453696
C94   C     C_2   0.126282 0.226481 0.407031 0.451999
C95   C     C_2   0.189255 0.735958 0.418897 0.453779
C96   C     C_2   0.878751 0.217980 0.573519 0.429614
H1    H     H_    0.380371 0.251050 0.023865 0.086263
H2    H     H_    0.662933 0.229639 0.793330 0.097771
H3    H     H_    0.612041 0.746690 0.813777 0.113505
H4    H     H_    0.328713 0.222072 0.200666 0.116939
H5    H     H_    0.879154 0.249557 0.188526 0.088950
H6    H     H_    0.169704 0.722628 0.799116 0.110677
H7    H     H_    0.111354 0.246535 0.814202 0.112295
H8    H     H_    0.829008 0.722283 0.200512 0.116714
H9    H     H_    0.311519 0.945032 0.907933 0.106316
H10   H     H_    0.677565 0.064970 0.111968 0.098668
H11   H     H_    0.686027 0.938800 0.097784 0.101314
H12   H     H_    0.669162 0.774509 0.903400 0.100153
H13   H     H_    0.360598 0.083521 0.837616 0.115415
H14   H     H_    0.856010 0.417433 0.842814 0.103552
H15   H     H_    0.140825 0.583276 0.160853 0.101357
H16   H     H_    0.189748 0.445970 0.089251 0.103865
H17   H     H_    0.859275 0.582369 0.839153 0.115482
H18   H     H_    0.345936 0.046128 0.383154 0.104428
H19   H     H_    0.598596 0.923276 0.630626 0.096570
H20   H     H_    0.650460 0.046766 0.616675 0.098234
H21   H     H_    0.399256 0.923918 0.370642 0.101226
H22   H     H_    0.846201 0.546753 0.383370 0.104639
H23   H     H_    0.652468 0.239196 0.937865 0.077972
H24   H     H_    0.097770 0.423179 0.631147 0.095055
H25   H     H_    0.152752 0.546096 0.616721 0.098125
H26   H     H_    0.896155 0.424022 0.372255 0.101578
H27   H     H_    0.557706 0.682814 0.636970 0.153066
H28   H     H_    0.352321 0.270679 0.381544 0.136898
H29   H     H_    0.431772 0.671906 0.349006 0.132076
H30   H     H_    0.642961 0.282768 0.631412 0.130937
H31   H     H_    0.057884 0.179703 0.639475 0.151438
H32   H     H_    0.854610 0.768392 0.382870 0.137024
H33   H     H_    0.927001 0.175727 0.349108 0.131959
H34   H     H_    0.332099 0.774003 0.093762 0.105116
H35   H     H_    0.149586 0.782124 0.631710 0.130697
H36   H     H_    0.207251 0.090356 0.562070 0.136589
H37   H     H_    0.709743 0.859167 0.453881 0.131070
H38   H     H_    0.769945 0.098985 0.438222 0.125162
H39   H     H_    0.306501 0.854936 0.544246 0.129119
H40   H     H_    0.704508 0.590056 0.562001 0.137154
H41   H     H_    0.204857 0.357950 0.454901 0.130881
H42   H     H_    0.273694 0.597277 0.439157 0.124713
H43   H     H_    0.798634 0.357590 0.545462 0.128537
H44   H     H_    0.216579 0.720967 0.134567 0.145644
H45   H     H_    0.880253 0.750852 0.023768 0.086047
H46   H     H_    0.782867 0.277052 0.869175 0.144445
H47   H     H_    0.784739 0.720465 0.862984 0.148738
H48   H     H_    0.308274 0.332351 0.999570 0.131346
H49   H     H_    0.785174 0.181457 0.037265 0.125034
H50   H     H_    0.195330 0.830310 0.994179 0.123633
H51   H     H_    0.286095 0.221752 0.861471 0.149409
H52   H     H_    0.806332 0.830472 0.002246 0.131168
H53   H     H_    0.313320 0.273818 0.614465 0.020256
H54   H     H_    0.605364 0.677859 0.394475 0.015072
H55   H     H_    0.630090 0.198724 0.454983 0.015067
H56   H     H_    0.170069 0.275184 0.902549 0.100416
H57   H     H_    0.443161 0.746846 0.534145 0.039169
H58   H     H_    0.812869 0.769573 0.617463 0.019636
H59   H     H_    0.102038 0.172815 0.399504 0.016695
H60   H     H_    0.134620 0.698100 0.456969 0.014592
H61   H     H_    0.936940 0.250831 0.534884 0.046466
H62   H     H_    0.120161 0.750530 0.974810 0.074178
H63   H     H_    0.876467 0.251405 0.032005 0.078817
H64   H     H_    0.386315 0.747408 0.186910 0.083834
N1    N     N_R   0.408680 0.130810 0.995780 -0.045396
N2    N     N_R   0.578590 0.132790 0.846380 -0.051397
N3    N     N_R   0.578590 0.867210 0.846380 -0.038777
N4    N     N_R   0.421410 0.132790 0.153620 -0.046118
N5    N     N_R   0.921410 0.367210 0.153620 -0.049532
N6    N     N_R   0.078590 0.632790 0.846380 -0.052749
N7    N     N_R   0.078590 0.367210 0.846380 -0.038995
N8    N     N_R   0.921410 0.632790 0.153620 -0.045913
N9    N     N_R   0.403840 0.921910 0.935760 -0.043488
N10   N     N_R   0.596160 0.078090 0.064240 -0.043687
N11   N     N_R   0.596160 0.921910 0.064240 -0.044603
N12   N     N_R   0.591320 0.869190 0.004220 -0.050459
N13   N     N_R   0.403840 0.078090 0.935760 -0.042228
N14   N     N_R   0.903840 0.421910 0.935760 -0.042056
N15   N     N_R   0.096160 0.578090 0.064240 -0.041604
N16   N     N_R   0.096160 0.421910 0.064240 -0.045704
N17   N     N_R   0.903840 0.578090 0.935760 -0.042790
N18   N     N_R   0.426250 0.076100 0.213650 -0.044440
N19   N     N_R   0.573750 0.923900 0.786350 -0.035469
N20   N     N_R   0.573750 0.076100 0.786350 -0.041989
N21   N     N_R   0.426250 0.923900 0.213650 -0.042159
N22   N     N_R   0.926250 0.576100 0.213650 -0.044328
N23   N     N_R   0.591320 0.130810 0.004220 -0.049785
N24   N     N_R   0.073750 0.423900 0.786350 -0.035117
N25   N     N_R   0.073750 0.576100 0.786350 -0.042283
N26   N     N_R   0.926250 0.423900 0.213650 -0.042338
N27   N     N_R   0.408680 0.869190 0.995780 -0.053165
N28   N     N_R   0.908680 0.630810 0.995780 -0.045696
N29   N     N_R   0.091320 0.369190 0.004220 -0.051155
N30   N     N_R   0.091320 0.630810 0.004220 -0.044483
N31   N     N_R   0.908680 0.369190 0.995780 -0.047051
N32   N     N_R   0.421410 0.867210 0.153620 -0.048716
Ni1   Ni    Ni4+2 0.500000 0.131570 0.000000 0.210251
Ni2   Ni    Ni4+2 0.500000 0.868430 0.000000 0.214220
Ni3   Ni    Ni4+2 0.000000 0.631570 0.000000 0.208504
Ni4   Ni    Ni4+2 0.000000 0.368430 0.000000 0.213622
Ni5   Ni    Ni4+2 0.488900 0.000000 0.862310 0.220587
Ni6   Ni    Ni4+2 0.511100 0.000000 0.137690 0.227783
Ni7   Ni    Ni4+2 0.988900 0.500000 0.862310 0.218038
Ni8   Ni    Ni4+2 0.011100 0.500000 0.137690 0.224962
O1    O     O_2   0.297470 0.159957 0.639483 -0.600820
O2    O     O_2   0.624534 0.791310 0.367272 -0.601398
O3    O     O_2   0.698823 0.282642 0.347985 -0.582992
O4    O     O_2   0.360965 0.672785 0.650439 -0.585613
O5    O     O_2   0.794341 0.655880 0.642278 -0.600967
O6    O     O_2   0.119699 0.286226 0.370558 -0.602204
O7    O     O_2   0.203442 0.781803 0.349653 -0.593024
O8    O     O_2   0.854692 0.177131 0.651769 -0.590052

loop_
_geom_bond_atom_site_label_1
_geom_bond_atom_site_label_2
_ccdc_geom_bond_type
C27   C48   A    
C35   N17   A    
C40   H22   S    
N11   N12   A    
C28   C47   A    
C65   C79   S    
C32   H15   S    
N10   N23   A    
C8    C83   S    
C64   C77   S    
N12   Ni2   S    
C9    C51   S    
C65   H39   S    
C74   C83   S    
C90   H54   S    
C93   O5    D    
C66   C85   S    
C79   C87   S    
C65   C82   S    
C67   N30   A    
C6    C75   S    
C12   N12   A    
C4    C87   S    
C39   C53   A    
C3    C64   S    
C25   N7    A    
C23   N23   A    
C14   H49   S    
C18   N32   A    
N14   Ni7   S    
C22   H5    S    
C16   H51   S    
C63   H37   S    
C71   H27   S    
C93   H58   S    
C26   C61   A    
N11   Ni6   S    
C23   H23   S    
C4    C65   S    
N21   N32   A    
C75   C84   S    
C96   O8    D    
C63   C76   S    
C27   H9    S    
N6    N25   A    
C62   C89   S    
C38   H20   S    
C2    C85   S    
C3    C91   S    
C95   H60   S    
C88   H53   S    
C13   H48   S    
C33   N16   A    
C3    C74   S    
C70   C74   S    
C71   C80   S    
N20   Ni5   S    
C18   C53   A    
C26   H8    S    
N31   Ni4   S    
C22   N5    A    
N7    N24   A    
N28   Ni3   S    
C28   H10   S    
C94   H59   S    
C6    C94   S    
N8    Ni3   S    
C8    C96   S    
C35   C49   A    
C41   N24   A    
C69   C73   S    
C92   H57   S    
C25   C60   A    
C88   O1    D    
C56   H56   S    
C50   C56   A    
C27   N9    A    
C30   N13   A    
N2    N20   A    
C72   C81   S    
C92   O4    D    
N14   N31   A    
C4    C92   S    
C6    C68   S    
C96   H61   S    
N18   Ni6   S    
C36   H18   S    
C70   H43   S    
C21   N4    A    
C72   H28   S    
C3    C86   S    
C45   H45   S    
C30   C44   A    
C68   H41   S    
C15   C48   S    
N16   Ni8   S    
C20   C55   A    
C52   C78   A    
N21   Ni6   S    
C58   C86   S    
C54   C83   S    
C19   H2    S    
N9    Ni5   S    
C40   N22   A    
C63   C80   S    
C95   O7    D    
C37   N19   A    
C32   N15   A    
C64   H38   S    
C38   N20   A    
C30   H13   S    
N13   Ni5   S    
C68   C84   S    
C62   H36   S    
C17   H52   S    
N22   Ni8   S    
N6    Ni3   S    
N9    N27   A    
C12   C46   A    
C36   C57   A    
C10   C14   D    
C1    H1    S    
C12   H12   S    
C21   H4    S    
N4    Ni1   S    
C25   H7    S    
C51   C67   A    
N19   Ni5   S    
N3    Ni2   S    
C33   C50   A    
C39   H21   S    
C20   N3    A    
N23   Ni1   S    
C29   N11   A    
C40   C61   A    
C36   N18   A    
C53   C82   S    
C19   N2    A    
N32   Ni2   S    
C24   N6    A    
C64   C83   S    
C21   C57   A    
C11   C49   S    
N1    N13   A    
C10   C52   S    
C1    C44   A    
C66   C71   S    
C38   C54   A    
C45   C49   A    
C68   C72   S    
N24   Ni7   S    
C79   H35   S    
N1    Ni1   S    
C33   H16   S    
C77   H33   S    
C17   C46   S    
C5    C80   S    
N17   N28   A    
C43   H26   S    
C4    C73   S    
C39   N21   A    
C61   C85   S    
N30   Ni3   S    
C66   H40   S    
C19   C54   A    
C28   N10   A    
C62   C81   S    
C77   C86   S    
N8    N22   A    
N27   Ni2   S    
N3    N19   A    
C8    C77   S    
C76   H32   S    
C57   C81   S    
C62   C75   S    
C34   C48   A    
C84   C89   S    
C2    C71   S    
C70   C86   S    
N5    Ni4   S    
C73   C82   S    
N10   Ni6   S    
N4    N18   A    
C2    C63   S    
C42   N25   A    
C7    C79   S    
C32   C51   A    
C69   H42   S    
C16   C44   S    
C56   N29   A    
C11   C17   D    
N15   N30   A    
C78   N31   A    
N5    N26   A    
C41   C60   A    
C5    C66   S    
C69   C87   S    
C42   C59   A    
C22   C58   A    
C15   H50   S    
C5    C93   S    
C45   N28   A    
C14   C47   S    
C37   H19   S    
C94   O6    D    
C7    C95   S    
C8    C70   S    
N25   Ni7   S    
C43   N26   A    
C31   C52   A    
C29   C46   A    
C23   C47   A    
C7    C69   S    
C9    C15   D    
C91   H55   S    
C55   C80   S    
C60   C84   S    
N29   Ni4   S    
N16   N29   A    
C74   H30   S    
C20   H3    S    
C5    C76   S    
C24   C59   A    
C73   H29   S    
N2    Ni1   S    
C9    H44   S    
C31   H14   S    
C35   H17   S    
C67   H62   S    
C24   H6    S    
C41   H24   S    
C34   N27   A    
C59   C87   S    
N15   Ni8   S    
C18   H64   S    
C1    N1    A    
C13   C50   S    
C37   C55   A    
N7    Ni4   S    
C78   H63   S    
C7    C82   S    
C88   C89   S    
C34   H34   S    
C2    C90   S    
N17   Ni7   S    
C13   C16   D    
C6    C81   S    
N26   Ni8   S    
C43   C58   A    
C29   H11   S    
C72   C89   S    
C90   O2    D    
C11   H47   S    
C76   C85   S    
C31   N14   A    
C91   O3    D    
C26   N8    A    
C42   H25   S    
C10   H46   S    
C75   H31   S    
