data_mof_unit_4110.cif
_audit_creation_date              2012-12-11T16:18:07-0500
_audit_creation_method            fapswitch 2.2
_symmetry_space_group_name_H-M    P1
_symmetry_Int_Tables_number       1
_space_group_crystal_system       triclinic
_cell_length_a                    14.03403
_cell_length_b                    14.012563
_cell_length_c                    29.993455
_cell_angle_alpha                 96.66755
_cell_angle_beta                  96.717014
_cell_angle_gamma                 61.477187
_cell_volume                      5134.54336454

loop_
_atom_site_label
_atom_site_type_symbol
_atom_type_description
_atom_site_fract_x
_atom_site_fract_y
_atom_site_fract_z
_atom_type_partial_charge
C1    C     C_R   0.385505 0.711615 0.442038 0.560124
C2    C     C_R   0.805960 0.262422 0.379580 -0.000430
C3    C     C_3   0.113001 0.523706 0.820254 -0.252339
C4    C     C_3   0.023110 0.489861 0.811748 -0.284343
C5    C     C_3   0.916058 0.583133 0.795017 -0.468092
C6    C     C_3   0.126212 0.522944 0.665389 -0.253350
C7    C     C_3   0.035259 0.499537 0.642387 -0.290256
C8    C     C_3   0.924663 0.600410 0.644958 -0.462082
C9    C     C_3   0.492800 0.182558 0.692236 -0.220007
C10   C     C_3   0.577504 0.216082 0.714580 -0.285544
C11   C     C_3   0.665052 0.127556 0.743165 -0.451723
C12   C     C_3   0.658159 0.530707 0.715135 -0.238911
C13   C     C_R   0.814196 0.244981 0.332459 0.261223
C14   C     C_3   0.709720 0.602002 0.706898 -0.303882
C15   C     C_3   0.650951 0.673390 0.667753 -0.448702
C16   C     C_3   0.512495 0.130576 0.202404 -0.230047
C17   C     C_3   0.504860 0.101357 0.151723 -0.318188
C18   C     C_3   0.602104 0.993314 0.138279 -0.469508
C19   C     C_3   0.183473 0.767575 0.686167 -0.256925
C20   C     C_3   0.096334 0.865959 0.661348 -0.290665
C21   C     C_3   0.013114 0.838654 0.633615 -0.459066
C22   C     C_3   0.190941 0.769068 0.788394 -0.259039
C23   C     C_3   0.073671 0.860206 0.791775 -0.275548
C24   C     C_R   0.398637 0.380806 0.426742 0.548404
C25   C     C_3   0.003470 0.821783 0.811389 -0.468886
C26   C     C_3   0.842676 0.164392 0.407073 -0.211898
C27   C     C_3   0.966044 0.089952 0.406174 -0.301592
C28   C     C_3   0.004383 0.994430 0.435509 -0.434820
C29   C     C_R   0.799033 0.331668 0.307651 -0.008738
C30   C     C_R   0.783447 0.430325 0.329596 -0.149771
C31   C     C_R   0.768291 0.450942 0.375553 0.219652
C32   C     C_R   0.804234 0.410078 0.154355 0.235428
C33   C     C_R   0.841323 0.396864 0.111347 0.272971
C34   C     C_R   0.856679 0.213027 0.100599 -0.052042
C35   C     C_R   0.818529 0.227775 0.144200 -0.017864
C36   C     C_R   0.415419 0.228334 0.223743 0.059501
C37   C     C_R   0.802712 0.321900 0.171798 -0.007599
C38   C     C_1   0.798610 0.322893 0.219573 -0.029599
C39   C     C_1   0.798869 0.324067 0.259624 -0.034362
C40   C     C_R   0.712021 0.405100 0.442648 0.554706
C41   C     C_R   0.878736 0.294813 0.086286 -0.002712
C42   C     C_R   0.363794 0.771433 0.400949 -0.004201
C43   C     C_R   0.440829 0.800951 0.389073 0.183830
C44   C     C_R   0.446026 0.815639 0.343759 -0.004658
C45   C     C_R   0.363932 0.813364 0.311727 0.017254
C46   C     C_R   0.274300 0.808609 0.325543 0.220538
C47   C     C_R   0.421994 0.238278 0.271415 0.259375
C48   C     C_R   0.276723 0.781220 0.369555 0.187812
C49   C     C_R   0.265561 0.814074 0.149567 0.016153
C50   C     C_R   0.241489 0.849690 0.105926 -0.122007
C51   C     C_R   0.394412 0.887280 0.114561 -0.133057
C52   C     C_R   0.388958 0.712373 0.568051 0.535484
C53   C     C_R   0.418050 0.854016 0.158172 -0.127280
C54   C     C_R   0.351267 0.822424 0.176484 0.043035
C55   C     C_1   0.362484 0.814775 0.224084 -0.028235
C56   C     C_1   0.366543 0.813908 0.264190 0.035543
C57   C     C_R   0.302216 0.891385 0.089111 0.006971
C58   C     C_R   0.335234 0.323667 0.294533 0.025218
C59   C     C_R   0.363347 0.359075 0.591834 -0.016556
C60   C     C_R   0.431844 0.269380 0.617897 0.227912
C61   C     C_R   0.409154 0.270295 0.662480 0.041181
C62   C     C_R   0.311867 0.355153 0.679322 0.009032
C63   C     C_R   0.235886 0.435429 0.650945 -0.012629
C64   C     C_R   0.401970 0.382018 0.552339 0.538758
C65   C     C_R   0.263728 0.437547 0.607899 -0.170001
C66   C     C_R   0.215218 0.432630 0.841239 0.016870
C67   C     C_R   0.225857 0.417716 0.888036 -0.020844
C68   C     C_R   0.390860 0.245465 0.877007 0.220368
C69   C     C_R   0.321437 0.308029 0.200233 0.011257
C70   C     C_R   0.385165 0.265469 0.832251 -0.071294
C71   C     C_R   0.295499 0.353962 0.813622 -0.017318
C72   C     C_1   0.291008 0.361480 0.766013 -0.047123
C73   C     C_1   0.295346 0.361661 0.726274 -0.041289
C74   C     C_R   0.302991 0.314631 0.903738 -0.009799
C75   C     C_1   0.762486 0.375318 0.612261 -0.019044
C76   C     C_R   0.713854 0.407057 0.568278 0.534371
C77   C     C_R   0.744915 0.420572 0.729749 -0.001299
C78   C     C_R   0.764489 0.401361 0.775552 -0.143506
C79   C     C_R   0.914121 0.220551 0.758608 0.248389
C80   C     C_1   0.305177 0.307330 0.152098 -0.067820
C81   C     C_R   0.893052 0.239304 0.712872 -0.063346
C82   C     C_R   0.810448 0.338578 0.698331 -0.009291
C83   C     C_R   0.848765 0.302944 0.790284 0.010591
C84   C     C_1   0.873916 0.293005 0.837960 -0.076170
C85   C     C_1   0.790178 0.355007 0.650970 -0.063644
C86   C     C_1   0.903365 0.283583 0.877246 -0.023049
C87   C     C_1   0.370222 0.764451 0.612579 -0.032987
C88   C     C_1   0.364058 0.360639 0.381750 -0.007114
C89   C     C_R   0.259659 0.798544 0.717512 0.040234
C90   C     C_R   0.258201 0.805731 0.765406 0.038196
C91   C     C_1   0.345716 0.343952 0.342361 -0.059531
C92   C     C_R   0.386984 0.878515 0.772239 -0.119444
C93   C     C_R   0.393326 0.865381 0.725888 -0.132876
C94   C     C_R   0.332194 0.823962 0.698470 0.032305
C95   C     C_R   0.321493 0.848007 0.792218 0.035134
C96   C     C_1   0.310397 0.873306 0.839936 -0.059446
C97   C     C_1   0.352576 0.797100 0.651307 -0.082611
C98   C     C_1   0.293261 0.902609 0.878851 -0.015345
C99   C     C_R   0.948084 0.273194 0.047905 0.566235
C100  C     C_R   0.242612 0.397233 0.270716 -0.141898
C101  C     C_R   0.275256 0.269825 0.065472 0.534547
C102  C     C_1   0.290343 0.298663 0.111886 -0.030781
C103  C     C_R   0.261118 0.952937 0.048566 0.539915
C104  C     C_R   0.951727 0.269498 0.922257 0.546953
C105  C     C_R   0.278715 0.269396 0.941043 0.530130
C106  C     C_R   0.261681 0.950679 0.922961 0.546989
C107  C     C_R   0.235684 0.389086 0.224067 -0.134657
C108  C     C_3   0.799043 0.142393 0.163085 -0.246914
C109  C     C_3   0.906443 0.050451 0.181643 -0.298300
C110  C     C_3   0.889938 0.960277 0.197711 -0.460379
C111  C     C_3   0.873531 0.111149 0.070094 -0.234106
C112  C     C_3   0.794338 0.140374 0.027883 -0.284992
C113  C     C_R   0.768588 0.370021 0.400065 0.010471
C114  C     C_3   0.820238 0.040730 0.995075 -0.443294
C115  C     C_3   0.193640 0.775374 0.166840 -0.257284
C116  C     C_3   0.212067 0.665309 0.143393 -0.305261
C117  C     C_3   0.131724 0.632143 0.157529 -0.444194
C118  C     C_3   0.540332 0.835039 0.334134 -0.212027
C119  C     C_3   0.554906 0.847715 0.285593 -0.335937
C120  C     C_3   0.653397 0.865584 0.283393 -0.442999
C121  C     C_3   0.162644 0.513400 0.921064 -0.244086
C122  C     C_3   0.204449 0.597744 0.924597 -0.315478
C123  C     C_3   0.132951 0.700321 0.952868 -0.454251
Cr1   Cr    Cr6+3 0.581000 0.584320 0.508140 1.061241
Cr2   Cr    Cr6+3 0.339110 0.576430 0.496080 1.040594
Cr3   Cr    Cr6+3 0.579910 0.339270 0.495810 1.026856
Cr4   Cr    Cr6+3 0.082090 0.079210 0.982490 0.985715
Cr5   Cr    Cr6+3 0.082460 0.324610 0.994920 1.037114
Cr6   Cr    Cr6+3 0.323630 0.087860 0.996130 1.026007
H1    H     H_    0.176308 0.462903 0.288299 0.127947
H2    H     H_    0.433576 0.912901 0.792716 0.128212
H3    H     H_    0.073991 0.929260 0.813947 0.190894
H4    H     H_    0.036624 0.889787 0.758112 0.188361
H5    H     H_    0.194105 0.693198 0.771247 0.120697
H6    H     H_    0.227026 0.744933 0.822857 0.139790
H7    H     H_    0.505276 0.169150 0.326453 0.333271
H8    H     H_    0.810737 0.549691 0.112957 0.367033
H9    H     H_    0.733111 0.514467 0.204421 0.327020
H10   H     H_    0.755431 0.595946 0.374923 0.315355
H11   H     H_    0.983668 0.024287 0.470816 0.142914
H12   H     H_    0.965842 0.942608 0.422373 0.178784
H13   H     H_    0.446545 0.887614 0.711396 0.107041
H14   H     H_    0.093988 0.944361 0.435237 0.193595
H15   H     H_    0.988888 0.056954 0.371343 0.220261
H16   H     H_    0.009328 0.137690 0.418911 0.153601
H17   H     H_    0.826364 0.188459 0.442914 0.145418
H18   H     H_    0.797999 0.118389 0.393741 0.190512
H19   H     H_    0.777466 0.494089 0.310285 0.109656
H20   H     H_    0.823906 0.994600 0.221190 0.171228
H21   H     H_    0.869476 0.915392 0.168486 0.140044
H22   H     H_    0.966070 0.901925 0.215646 0.168171
H23   H     H_    0.966188 0.015139 0.155488 0.157871
H24   H     H_    0.941488 0.084110 0.210371 0.178665
H25   H     H_    0.742855 0.179182 0.190606 0.145090
H26   H     H_    0.754375 0.111727 0.137727 0.133317
H27   H     H_    0.171215 0.850743 0.086175 0.116152
H28   H     H_    0.903375 0.007890 0.983642 0.160038
H29   H     H_    0.814697 0.976457 0.011371 0.142630
H30   H     H_    0.761017 0.064051 0.965233 0.150356
H31   H     H_    0.710040 0.173257 0.038063 0.153719
H32   H     H_    0.797411 0.204053 0.010196 0.175623
H33   H     H_    0.959407 0.062289 0.061965 0.185177
H34   H     H_    0.862021 0.051321 0.086449 0.125560
H35   H     H_    0.839643 0.141867 0.279542 0.329106
H36   H     H_    0.140808 0.626347 0.194545 0.163810
H37   H     H_    0.047017 0.692831 0.147679 0.154921
H38   H     H_    0.484469 0.859474 0.178623 0.107353
H39   H     H_    0.147449 0.551770 0.140552 0.157553
H40   H     H_    0.201437 0.669752 0.106248 0.158457
H41   H     H_    0.296319 0.602010 0.152354 0.175601
H42   H     H_    0.207826 0.767382 0.203689 0.204067
H43   H     H_    0.107605 0.836815 0.160315 0.135903
H44   H     H_    0.120057 0.857802 0.310926 0.333936
H45   H     H_    0.170997 0.727631 0.354664 0.335871
H46   H     H_    0.480742 0.838953 0.449906 0.325368
H47   H     H_    0.643060 0.940900 0.303765 0.199182
H48   H     H_    0.728700 0.795158 0.296147 0.155084
H49   H     H_    0.443796 0.917036 0.101993 0.132328
H50   H     H_    0.662312 0.873887 0.247946 0.147441
H51   H     H_    0.568997 0.772309 0.264388 0.170676
H52   H     H_    0.481906 0.919295 0.272112 0.177574
H53   H     H_    0.531882 0.909771 0.354642 0.182561
H54   H     H_    0.617027 0.765862 0.346736 0.182734
H55   H     H_    0.048806 0.739857 0.936949 0.146789
H56   H     H_    0.131154 0.679953 0.987365 0.147393
H57   H     H_    0.166122 0.758724 0.955329 0.166459
H58   H     H_    0.288728 0.561368 0.940568 0.161645
H59   H     H_    0.207440 0.621391 0.890942 0.159398
H60   H     H_    0.162365 0.446943 0.206389 0.128743
H61   H     H_    0.074239 0.550766 0.910998 0.147541
H62   H     H_    0.172997 0.488113 0.955660 0.161560
H63   H     H_    0.852580 0.556531 0.790840 0.154401
H64   H     H_    0.890296 0.654826 0.819771 0.152281
H65   H     H_    0.924519 0.606557 0.762170 0.141466
H66   H     H_    0.047427 0.419553 0.786249 0.179804
H67   H     H_    0.010356 0.464464 0.843366 0.177550
H68   H     H_    0.084299 0.599928 0.842104 0.139101
H69   H     H_    0.128534 0.544127 0.788101 0.134664
H70   H     H_    0.908058 0.631069 0.680503 0.141446
H71   H     H_    0.208558 0.504202 0.587546 0.135527
H72   H     H_    0.921946 0.665539 0.626175 0.153793
H73   H     H_    0.860817 0.579388 0.629332 0.161731
H74   H     H_    0.049067 0.472946 0.606265 0.170271
H75   H     H_    0.034463 0.432936 0.658944 0.168177
H76   H     H_    0.121196 0.530667 0.702389 0.139809
H77   H     H_    0.113845 0.602405 0.655800 0.136730
H78   H     H_    0.504543 0.162625 0.570459 0.336183
H79   H     H_    0.497797 0.174232 0.924853 0.331569
H80   H     H_    0.628092 0.111029 0.770133 0.152828
H81   H     H_    0.709129 0.051337 0.721878 0.156581
H82   H     H_    0.449971 0.208859 0.811401 0.133838
H83   H     H_    0.724357 0.154804 0.759030 0.162780
H84   H     H_    0.617105 0.231906 0.688357 0.202465
H85   H     H_    0.536826 0.292237 0.736399 0.160081
H86   H     H_    0.453309 0.166645 0.718413 0.125238
H87   H     H_    0.533879 0.103766 0.672079 0.184631
H88   H     H_    0.658387 0.622380 0.635876 0.189291
H89   H     H_    0.564285 0.724139 0.673679 0.163318
H90   H     H_    0.686617 0.727758 0.664579 0.136188
H91   H     H_    0.706788 0.655373 0.737708 0.150981
H92   H     H_    0.796382 0.550989 0.699566 0.174673
H93   H     H_    0.716512 0.464946 0.800012 0.114006
H94   H     H_    0.610771 0.519041 0.684545 0.157570
H95   H     H_    0.598567 0.573598 0.741244 0.130588
H96   H     H_    0.678750 0.997597 0.147381 0.148946
H97   H     H_    0.604894 0.925922 0.155467 0.146915
H98   H     H_    0.595413 0.975395 0.101340 0.154774
H99   H     H_    0.430130 0.092994 0.142343 0.186314
H100  H     H_    0.504894 0.165068 0.132909 0.177464
H101  H     H_    0.585357 0.142957 0.210630 0.167961
H102  H     H_    0.527496 0.057579 0.219315 0.179181
H103  H     H_    0.007346 0.118275 0.803457 0.326892
H104  H     H_    0.942588 0.176326 0.688591 0.131234
H105  H     H_    0.053932 0.769548 0.608517 0.158733
H106  H     H_    0.969588 0.817018 0.655957 0.145179
H107  H     H_    0.952646 0.910525 0.615492 0.155900
H108  H     H_    0.053269 0.935383 0.686020 0.184073
H109  H     H_    0.134315 0.892566 0.638411 0.176445
H110  H     H_    0.231271 0.700380 0.661481 0.149046
H111  H     H_    0.140906 0.736484 0.704146 0.130881
H112  H     H_    0.999027 0.754772 0.789111 0.144370
H113  H     H_    0.037436 0.793463 0.845544 0.152025
H114  H     H_    0.919838 0.890258 0.814016 0.152313
O1    O     O_R   0.688580 0.499770 0.460490 -0.417796
O2    O     O_R   0.346150 0.177650 0.050510 -0.524709
O3    O     O_R   0.314200 0.996600 0.036060 -0.500347
O4    O     O_R   0.480400 0.672610 0.462660 -0.475246
O5    O     O_R   0.168690 0.969990 0.933130 -0.521202
O6    O     O_R   0.991920 0.175870 0.937430 -0.497380
O7    O     O_R   0.974010 0.342590 0.941330 -0.508464
O8    O     O_R   0.182630 0.317940 0.955040 -0.511549
O9    O     O_R   0.347320 0.174720 0.953250 -0.486658
O10   O     O_R   0.315290 0.993890 0.945900 -0.477486
O11   O     O_3   0.162730 0.163890 0.991180 -0.239677
O12   O     O_R   0.348600 0.476260 0.536540 -0.508574
O13   O     O_R   0.315310 0.685650 0.451800 -0.446314
O14   O     O_R   0.346220 0.474990 0.446280 -0.483802
O15   O     O_R   0.492270 0.312460 0.441630 -0.511894
O16   O     O_R   0.669740 0.350480 0.455640 -0.525220
O17   O     O_R   0.691150 0.501150 0.557860 -0.526873
O18   O     O_R   0.482790 0.673890 0.552920 -0.504686
O19   O     O_R   0.317880 0.687030 0.549170 -0.514579
O20   O     O_3   0.835075 0.143533 0.312268 -0.714306
O21   O     O_3   0.187143 0.826598 0.294610 -0.732161
O22   O     O_3   0.198562 0.757555 0.381601 -0.697763
O23   O     O_R   0.494840 0.313840 0.539010 -0.486359
O24   O     O_3   0.515227 0.811926 0.420878 -0.680944
O25   O     O_3   0.524204 0.182640 0.601648 -0.704161
O26   O     O_3   0.481916 0.155978 0.892876 -0.695043
O27   O     O_3   0.000103 0.122099 0.770455 -0.729410
O28   O     O_3   0.515646 0.163776 0.294046 -0.731465
O29   O     O_3   0.844725 0.481854 0.093382 -0.673882
O30   O     O_3   0.776724 0.507919 0.179479 -0.728394
O31   O     O_3   0.748409 0.551417 0.396442 -0.643364
O32   O     O_R   0.672120 0.351750 0.545910 -0.485813
O33   O     O_3   0.500010 0.500010 0.500010 -0.254113
O34   O     O_R   0.167510 0.972920 0.030390 -0.536091
O35   O     O_R   0.990840 0.178580 0.027590 -0.523554
O36   O     O_R   0.972840 0.345510 0.038590 -0.433009
O37   O     O_R   0.181550 0.320660 0.045200 -0.491387

loop_
_geom_bond_atom_site_label_1
_geom_bond_atom_site_label_2
_ccdc_geom_bond_type
C4    H66   S    
Cr3   O32   S    
C63   C65   A    
C93   C94   A    
C34   C111  S    
C24   O15   A    
Cr4   O11   S    
C8    H70   S    
C14   H92   S    
C95   C96   S    
C28   H11   S    
C55   C56   T    
C110  H20   S    
C86   C104  S    
C112  C114  S    
C81   C82   A    
C69   C107  A    
C7    C8    S    
C12   H94   S    
Cr6   O2    S    
C53   C54   A    
C108  C109  S    
C52   O18   A    
C76   O17   A    
C59   C64   S    
C101  C102  S    
C49   C54   A    
Cr3   O16   S    
C22   H5    S    
C83   C84   S    
C9    C61   S    
Cr1   O18   S    
C13   C29   A    
C8    H72   S    
C35   C37   A    
C120  H50   S    
C84   C86   T    
C11   H81   S    
C38   C39   T    
C99   O35   A    
C100  H1    S    
C21   H107  S    
C117  H39   S    
C68   C74   A    
C20   H108  S    
H35   O20   S    
Cr2   O14   S    
C3    H69   S    
C116  C117  S    
C106  O5    A    
C36   C47   A    
C26   H17   S    
C34   C35   A    
C119  H52   S    
C47   O28   S    
C89   C94   A    
Cr2   O12   S    
C2    C13   A    
C118  C119  S    
C12   H95   S    
H44   O21   S    
C7    H74   S    
C35   C108  S    
C18   H97   S    
Cr1   O4    S    
C99   O36   A    
C78   C83   A    
C120  H47   S    
C114  H29   S    
C111  C112  S    
C45   C56   S    
C50   H27   S    
C16   C17   S    
C6    H76   S    
C96   C98   T    
Cr2   O19   S    
C116  H40   S    
C123  H57   S    
Cr5   O11   S    
C41   C99   S    
C62   C73   S    
C10   H84   S    
C70   C71   A    
C51   C57   A    
C15   H88   S    
C51   H49   S    
C109  H24   S    
C9    C10   S    
C32   O30   S    
Cr5   O36   S    
C61   C62   A    
C1    O13   A    
C64   O12   A    
C68   O26   S    
C25   H114  S    
H78   O25   S    
Cr6   O9    S    
C101  O2    A    
C59   C60   A    
C5    H64   S    
C70   H82   S    
C106  O10   A    
C107  H60   S    
C21   H106  S    
C111  H33   S    
C77   C82   A    
C60   O25   S    
C109  H23   S    
C67   C121  S    
C40   O16   A    
C53   H38   S    
C27   H15   S    
C59   C65   A    
Cr6   O3    S    
C118  H53   S    
C9    H87   S    
C57   C103  S    
C46   C48   A    
C79   O27   S    
C104  O7    A    
Cr3   O15   S    
H9    O30   S    
Cr5   O8    S    
C118  H54   S    
C90   C95   A    
C92   H2    S    
C58   C100  A    
C105  O8    A    
C115  H42   S    
C110  H22   S    
C1    O4    A    
C117  H36   S    
C121  H61   S    
C79   C81   A    
C23   H4    S    
C72   C73   T    
C87   C97   T    
C94   C97   S    
C108  H26   S    
C77   C78   A    
C24   O14   A    
C92   C95   A    
Cr5   O7    S    
C76   O32   A    
C80   C102  T    
C60   C61   A    
C51   C53   A    
C6    C63   S    
C123  H56   S    
Cr2   O13   S    
C75   C76   S    
C114  H28   S    
C43   O24   S    
C37   C38   S    
C19   C89   S    
C18   H96   S    
C19   H110  S    
C11   H83   S    
C5    H63   S    
C65   H71   S    
C13   O20   S    
C122  H59   S    
C21   H105  S    
C88   C91   T    
C44   C118  S    
C117  H37   S    
C27   H16   S    
C12   C77   S    
C29   C39   S    
C62   C63   A    
C17   C18   S    
C22   C90   S    
C116  H41   S    
H10   O31   S    
C28   H14   S    
C42   C48   A    
C32   C37   A    
Cr4   O34   S    
C15   H89   S    
H8    O29   S    
C24   C88   S    
C121  C122  S    
C40   O1    A    
C66   C71   A    
C78   H93   S    
H45   O22   S    
C25   H113  S    
C49   C115  S    
C12   C14   S    
C49   C50   A    
C40   C113  S    
C33   O29   S    
C26   C27   S    
C81   H104  S    
C14   H91   S    
C3    C66   S    
Cr1   O1    S    
C119  H51   S    
C103  O34   A    
C15   H90   S    
C3    C4    S    
C44   C45   A    
C123  H55   S    
C75   C85   T    
C103  O3    A    
C58   C91   S    
C2    C113  A    
C4    H67   S    
Cr3   O33   S    
C54   C55   S    
C100  C107  A    
C17   H100  S    
C104  O6    A    
C112  H31   S    
C20   C21   S    
C22   C23   S    
C50   C57   A    
C52   C87   S    
C10   H85   S    
C105  O9    A    
Cr6   O10   S    
C115  H43   S    
C110  H21   S    
C98   C106  S    
C2    C26   S    
C121  H62   S    
C119  C120  S    
C120  H48   S    
C30   H19   S    
C6    C7    S    
C28   H12   S    
C25   H112  S    
C82   C85   S    
C52   O19   A    
C16   H102  S    
C7    H75   S    
C17   H99   S    
C22   H6    S    
C33   C41   A    
C32   C33   A    
C19   C20   S    
C8    H73   S    
C36   C69   A    
C122  C123  S    
C71   C72   S    
C34   C41   A    
C111  H34   S    
C64   O23   A    
C19   H111  S    
C11   H80   S    
C74   C105  S    
C79   C83   A    
C9    H86   S    
Cr1   O33   S    
C122  H58   S    
C30   C31   A    
C101  O37   A    
C48   O22   S    
C43   C44   A    
C20   H109  S    
H103  O27   S    
C16   H101  S    
C92   C93   A    
C3    H68   S    
Cr5   O37   S    
C23   H3    S    
C66   C67   A    
H7    O28   S    
C67   C74   A    
C23   C25   S    
Cr4   O35   S    
C26   H18   S    
C114  H30   S    
C6    H77   S    
C112  H32   S    
C10   C11   S    
C93   H13   S    
C29   C30   A    
C18   H98   S    
C45   C46   A    
C1    C42   S    
C4    C5    S    
C108  H25   S    
Cr6   O11   S    
Cr1   O17   S    
C68   C70   A    
H79   O26   S    
C42   C43   A    
C27   C28   S    
C14   C15   S    
Cr3   O23   S    
C69   C80   S    
Cr4   O5    S    
Cr4   O6    S    
C89   C90   A    
C109  C110  S    
C31   O31   S    
C46   O21   S    
C31   C113  A    
C16   C36   S    
H46   O24   S    
C115  C116  S    
C5    H65   S    
C47   C58   A    
Cr2   O33   S    
