data_mof_unit_4858.cif
_audit_creation_date              2012-12-11T14:38:26-0500
_audit_creation_method            fapswitch 2.2
_symmetry_space_group_name_H-M    P1
_symmetry_Int_Tables_number       1
_space_group_crystal_system       triclinic
_cell_length_a                    19.448564
_cell_length_b                    11.189259
_cell_length_c                    19.674869
_cell_angle_alpha                 90.137128
_cell_angle_beta                  96.352704
_cell_angle_gamma                 90.380954
_cell_volume                      4255.14142613

loop_
_atom_site_label
_atom_site_type_symbol
_atom_type_description
_atom_site_fract_x
_atom_site_fract_y
_atom_site_fract_z
_atom_type_partial_charge
C1    C     C_R   0.725524 0.953492 0.360158 0.542005
C2    C     C_3   0.178579 0.475347 0.468059 -0.181743
C3    C     C_3   0.032364 0.321369 0.612259 -0.376612
C4    C     C_3   0.415212 0.857793 0.449529 0.012402
C5    C     C_3   0.460953 0.812885 0.397253 -0.350937
C6    C     C_3   0.581464 0.916240 0.590451 0.000527
C7    C     C_3   0.532363 0.821374 0.612258 -0.376609
C8    C     C_3   0.567737 0.529486 0.423459 0.001934
C9    C     C_3   0.493527 0.483941 0.410255 -0.359083
C10   C     C_3   0.428391 0.543199 0.578252 -0.005527
C11   C     C_3   0.501741 0.500695 0.600459 -0.347199
C12   C     C_3   0.067739 0.029497 0.423463 0.001929
C13   C     C_3   0.323284 0.980596 0.532990 -0.212680
C14   C     C_3   0.993529 0.983956 0.410238 -0.359064
C15   C     C_3   0.928393 0.043193 0.578248 -0.005522
C16   C     C_3   0.001744 0.000686 0.600447 -0.347208
C17   C     C_3   0.678579 0.975345 0.468059 -0.181745
C18   C     C_3   0.759941 0.295284 0.552724 -0.286511
C19   C     C_3   0.242213 0.292585 0.445423 -0.277132
C20   C     C_3   0.259941 0.795285 0.552723 -0.286511
C21   C     C_3   0.742213 0.792584 0.445423 -0.277133
C22   C     C_3   0.760334 0.428487 0.566763 0.001025
C23   C     C_3   0.240549 0.426275 0.432767 0.004999
C24   C     C_3   0.260334 0.928488 0.566763 0.001025
C25   C     C_R   0.274511 0.953610 0.639789 0.552329
C26   C     C_3   0.740549 0.926274 0.432767 0.004998
C27   C     C_3   0.743161 0.397014 0.434504 0.079404
C28   C     C_3   0.257861 0.390662 0.564055 0.101928
C29   C     C_3   0.243161 0.897015 0.434504 0.079405
C30   C     C_3   0.757862 0.890661 0.564055 0.101927
C31   C     C_3   0.811010 0.469950 0.454489 0.106933
C32   C     C_3   0.185644 0.446044 0.544085 0.115042
C33   C     C_3   0.311010 0.969949 0.454489 0.106933
C34   C     C_3   0.685644 0.946043 0.544084 0.115042
C35   C     C_3   0.740121 0.278968 0.475896 -0.245865
C36   C     C_R   0.225523 0.453493 0.360158 0.542004
C37   C     C_3   0.265875 0.274361 0.521883 -0.217069
C38   C     C_3   0.240119 0.778969 0.475896 -0.245866
C39   C     C_3   0.765875 0.774359 0.521882 -0.217070
C40   C     C_3   0.428731 0.232011 0.969441 -0.284966
C41   C     C_3   0.446820 0.233156 0.047123 -0.298962
C42   C     C_3   0.928717 0.731989 0.969441 -0.284933
C43   C     C_3   0.946810 0.733135 0.047123 -0.298947
C44   C     C_3   0.493282 0.040543 0.959097 -0.210909
C45   C     C_3   0.574013 0.239402 0.030484 -0.205443
C46   C     C_3   0.993302 0.540526 0.959094 -0.210934
C47   C     C_R   0.774511 0.453609 0.639789 0.552329
C48   C     C_3   0.074016 0.739432 0.030481 -0.205418
C49   C     C_3   0.555780 0.241635 0.952361 0.089466
C50   C     C_3   0.510499 0.039294 0.037561 0.101036
C51   C     C_3   0.055780 0.741678 0.952360 0.089475
C52   C     C_3   0.010524 0.539278 0.037558 0.101070
C53   C     C_R   0.535553 0.180259 0.338114 0.543617
C54   C     C_R   0.462294 0.180886 0.660485 0.549325
C55   C     C_R   0.035553 0.680259 0.338114 0.543620
C56   C     C_R   0.962294 0.680886 0.660485 0.549322
C57   C     C_3   0.487141 0.171961 0.933234 0.038048
C58   C     C_3   0.681974 0.475538 0.455952 0.112574
C59   C     C_3   0.516964 0.171019 0.065454 0.033836
C60   C     C_3   0.987144 0.671961 0.933232 0.038024
C61   C     C_3   0.016968 0.671018 0.065452 0.033834
C62   C     C_1   0.761825 0.428481 0.904588 0.017926
C63   C     C_1   0.243053 0.413603 0.099417 -0.000074
C64   C     C_1   0.261824 0.928480 0.904588 0.017953
C65   C     C_1   0.743054 0.913597 0.099418 -0.000102
C66   C     C_1   0.748421 0.406520 0.034729 -0.043746
C67   C     C_1   0.263915 0.364422 0.973150 -0.047791
C68   C     C_1   0.248420 0.906517 0.034729 -0.043737
C69   C     C_3   0.315309 0.479037 0.544145 0.107143
C70   C     C_1   0.763920 0.864410 0.973152 -0.047788
C71   C     C_1   0.753988 0.416894 0.964105 -0.019013
C72   C     C_1   0.254644 0.388781 0.042078 -0.042929
C73   C     C_1   0.253987 0.916891 0.964104 -0.018976
C74   C     C_1   0.754647 0.888771 0.042080 -0.042933
C75   C     C_1   0.743978 0.391600 0.094709 -0.013387
C76   C     C_1   0.270099 0.343088 0.913971 -0.013833
C77   C     C_1   0.243977 0.891598 0.094709 -0.013391
C78   C     C_1   0.770103 0.843077 0.913973 -0.013836
C79   C     C_R   0.738086 0.361107 0.361954 0.599755
C80   C     C_3   0.181975 0.975542 0.455951 0.112574
C81   C     C_R   0.262852 0.357734 0.636941 0.575170
C82   C     C_R   0.238086 0.861108 0.361954 0.599754
C83   C     C_R   0.762852 0.857733 0.636941 0.575175
C84   C     C_R   0.723031 0.952494 0.163978 0.551680
C85   C     C_R   0.277607 0.954633 0.836777 0.545130
C86   C     C_R   0.223031 0.452495 0.163978 0.551702
C87   C     C_R   0.777607 0.454634 0.836777 0.545130
C88   C     C_R   0.535803 0.178828 0.139587 0.551817
C89   C     C_R   0.466041 0.179289 0.859582 0.584850
C90   C     C_R   0.035807 0.678829 0.139585 0.551820
C91   C     C_3   0.815310 0.979035 0.544144 0.107142
C92   C     C_R   0.966042 0.679289 0.859582 0.584814
C93   C     C_R   0.736201 0.357664 0.163602 0.544881
C94   C     C_R   0.276996 0.312399 0.844075 0.549397
C95   C     C_R   0.236201 0.857664 0.163601 0.544880
C96   C     C_R   0.776998 0.812395 0.844074 0.549405
C97   C     C_1   0.480432 0.175117 0.592093 -0.033799
C98   C     C_1   0.511504 0.172922 0.404099 0.011198
C99   C     C_1   0.980432 0.675117 0.592094 -0.033793
C100  C     C_1   0.011504 0.672921 0.404099 0.011192
C101  C     C_1   0.499068 0.171250 0.462649 -0.041721
C102  C     C_3   0.823284 0.480595 0.532990 -0.212681
C103  C     C_1   0.489240 0.173222 0.532490 -0.079600
C104  C     C_1   0.999068 0.671250 0.462650 -0.041727
C105  C     C_1   0.989240 0.673222 0.532490 -0.079598
C106  C     C_3   0.687644 0.476566 0.535181 -0.223425
C107  C     C_3   0.312242 0.477822 0.465093 -0.221039
C108  C     C_3   0.187644 0.976567 0.535181 -0.223429
C109  C     C_3   0.812242 0.977820 0.465093 -0.221037
C110  C     C_3   0.915214 0.357801 0.449530 0.012401
C111  C     C_3   0.960957 0.312898 0.397254 -0.350940
C112  C     C_3   0.081466 0.416236 0.590455 0.000530
Cr1   Cr    Cr6+3 0.765780 0.160710 0.267420 1.010410
Cr2   Cr    Cr6+3 0.383970 0.323720 0.751490 1.035659
Cr3   Cr    Cr6+3 0.116030 0.823720 0.248510 1.030609
Cr4   Cr    Cr6+3 0.883970 0.823720 0.751490 1.035663
Cr5   Cr    Cr6+3 0.234220 0.160710 0.732580 1.010691
Cr6   Cr    Cr6+3 0.265780 0.660710 0.267420 1.010412
Cr7   Cr    Cr6+3 0.734220 0.660710 0.732580 1.010693
Cr8   Cr    Cr6+3 0.612200 0.009560 0.248850 1.038650
Cr9   Cr    Cr6+3 0.387800 0.009560 0.751150 0.998448
Cr10  Cr    Cr6+3 0.112200 0.509560 0.248850 1.038643
Cr11  Cr    Cr6+3 0.887800 0.509560 0.751150 0.998439
Cr12  Cr    Cr6+3 0.616030 0.323720 0.248510 1.030609
H1    H     H_    0.672194 0.563707 0.554377 0.126644
H2    H     H_    0.128487 0.437525 0.444045 0.175118
H3    H     H_    0.913509 0.108157 0.616883 0.125538
H4    H     H_    0.928530 0.089431 0.528384 0.096770
H5    H     H_    0.013550 0.920350 0.570955 0.172689
H6    H     H_    0.039989 0.070737 0.591154 0.080799
H7    H     H_    0.007967 0.979979 0.655850 0.170079
H8    H     H_    0.370636 0.933868 0.554368 0.134695
H9    H     H_    0.628487 0.937520 0.444045 0.175117
H10   H     H_    0.379140 0.182464 0.956518 0.111811
H11   H     H_    0.449009 0.327355 0.065701 0.153878
H12   H     H_    0.879127 0.682422 0.956519 0.111812
H13   H     H_    0.948989 0.827340 0.065702 0.153866
H14   H     H_    0.420368 0.325884 0.951973 0.147824
H15   H     H_    0.405485 0.186536 0.071979 0.117083
H16   H     H_    0.920342 0.825869 0.951975 0.147808
H17   H     H_    0.328093 0.564056 0.445358 0.102928
H18   H     H_    0.905477 0.686496 0.071981 0.117089
H19   H     H_    0.443277 0.992272 0.945922 0.125608
H20   H     H_    0.578415 0.333637 0.048907 0.131417
H21   H     H_    0.943295 0.492234 0.945923 0.125619
H22   H     H_    0.078414 0.833670 0.048910 0.131413
H23   H     H_    0.466768 0.995119 0.059967 0.161433
H24   H     H_    0.547692 0.336699 0.936989 0.178736
H25   H     H_    0.966796 0.495073 0.059966 0.161406
H26   H     H_    0.047673 0.836755 0.936995 0.178709
H27   H     H_    0.625776 0.199456 0.044810 0.129455
H28   H     H_    0.172194 0.063708 0.554377 0.126645
H29   H     H_    0.532456 0.991162 0.933183 0.149788
H30   H     H_    0.125785 0.699488 0.044799 0.129502
H31   H     H_    0.032482 0.491149 0.933175 0.149728
H32   H     H_    0.647140 0.415906 0.551979 0.146353
H33   H     H_    0.353458 0.417858 0.449934 0.147322
H34   H     H_    0.147140 0.915907 0.551977 0.146349
H35   H     H_    0.853458 0.917857 0.449933 0.147322
H36   H     H_    0.690210 0.566584 0.437123 0.069260
H37   H     H_    0.302024 0.568146 0.562620 0.073848
H38   H     H_    0.190213 0.066588 0.437123 0.069262
H39   H     H_    0.828093 0.064054 0.445358 0.102928
H40   H     H_    0.802025 0.068145 0.562620 0.073848
H41   H     H_    0.334165 0.072971 0.549289 0.088555
H42   H     H_    0.673298 0.070828 0.459948 0.062764
H43   H     H_    0.834165 0.572971 0.549290 0.088556
H44   H     H_    0.173300 0.570830 0.459949 0.062762
H45   H     H_    0.300299 0.062124 0.437003 0.113448
H46   H     H_    0.683079 0.031624 0.573212 0.053758
H47   H     H_    0.800297 0.562124 0.437004 0.113447
H48   H     H_    0.183078 0.531625 0.573212 0.053755
H49   H     H_    0.812272 0.258612 0.568119 0.116806
H50   H     H_    0.772277 0.210561 0.457230 0.127355
H51   H     H_    0.189477 0.255188 0.431878 0.143272
H52   H     H_    0.312271 0.758613 0.568117 0.116804
H53   H     H_    0.689477 0.755185 0.431878 0.143270
H54   H     H_    0.722465 0.247556 0.582089 0.105845
H55   H     H_    0.278341 0.249507 0.413088 0.100034
H56   H     H_    0.222465 0.747556 0.582089 0.105844
H57   H     H_    0.778341 0.749507 0.413088 0.100036
H58   H     H_    0.685526 0.249361 0.468401 0.154659
H59   H     H_    0.321606 0.252052 0.526944 0.143013
H60   H     H_    0.185523 0.749366 0.468402 0.154658
H61   H     H_    0.237751 0.200284 0.541263 0.143579
H62   H     H_    0.821606 0.752050 0.526943 0.143014
H63   H     H_    0.889139 0.280481 0.471284 0.114153
H64   H     H_    0.949983 0.404893 0.489370 0.129667
H65   H     H_    0.983546 0.389588 0.371448 0.178270
H66   H     H_    0.004010 0.260124 0.423446 0.077461
H67   H     H_    0.930340 0.256449 0.358296 0.160089
H68   H     H_    0.051955 0.477418 0.554708 0.130894
H69   H     H_    0.103680 0.465253 0.637266 0.143348
H70   H     H_    0.060443 0.260991 0.650340 0.165123
H71   H     H_    0.989342 0.364254 0.635685 0.119567
H72   H     H_    0.272272 0.710558 0.457229 0.127354
H73   H     H_    0.010451 0.268843 0.567062 0.119549
H74   H     H_    0.389134 0.780475 0.471283 0.114154
H75   H     H_    0.449982 0.904880 0.489370 0.129664
H76   H     H_    0.483543 0.889574 0.371446 0.178271
H77   H     H_    0.504006 0.760110 0.423444 0.077456
H78   H     H_    0.430334 0.756437 0.358295 0.160090
H79   H     H_    0.551952 0.977414 0.554699 0.130895
H80   H     H_    0.603675 0.965266 0.637260 0.143349
H81   H     H_    0.560442 0.761003 0.650343 0.165126
H82   H     H_    0.489339 0.864262 0.635681 0.119568
H83   H     H_    0.737750 0.700283 0.541262 0.143579
H84   H     H_    0.510452 0.768841 0.567064 0.119549
H85   H     H_    0.624076 0.119351 0.935928 0.323713
H86   H     H_    0.608196 0.001237 0.032518 0.315830
H87   H     H_    0.124070 0.619394 0.935885 0.323710
H88   H     H_    0.108233 0.501249 0.032496 0.315810
H89   H     H_    0.578307 0.588160 0.380156 0.131616
H90   H     H_    0.571540 0.584043 0.471157 0.119439
H91   H     H_    0.483618 0.414634 0.448064 0.170935
H92   H     H_    0.457117 0.558357 0.415021 0.067425
H93   H     H_    0.482598 0.447960 0.357749 0.174411
H94   H     H_    0.870636 0.433867 0.554368 0.134695
H95   H     H_    0.413502 0.608165 0.616883 0.125534
H96   H     H_    0.428532 0.589431 0.528387 0.096773
H97   H     H_    0.513549 0.420347 0.570979 0.172691
H98   H     H_    0.539987 0.570739 0.591159 0.080805
H99   H     H_    0.507961 0.480008 0.655865 0.170063
H100  H     H_    0.078316 0.088191 0.380170 0.131601
H101  H     H_    0.071534 0.084033 0.471168 0.119444
H102  H     H_    0.983612 0.914621 0.448029 0.170933
H103  H     H_    0.957119 0.058367 0.415013 0.067424
H104  H     H_    0.982610 0.948011 0.357721 0.174404
O1    O     O_R   0.783100 0.287550 0.345460 -0.499627
O2    O     O_R   0.454350 0.284910 0.836260 -0.530134
O3    O     O_R   0.045650 0.784910 0.163740 -0.538072
O4    O     O_R   0.954350 0.784910 0.836260 -0.530120
O5    O     O_R   0.677950 0.374280 0.185410 -0.502993
O6    O     O_R   0.322050 0.374280 0.814590 -0.495304
O7    O     O_R   0.177950 0.874280 0.185410 -0.502997
O8    O     O_R   0.822050 0.874280 0.814590 -0.495303
O9    O     O_3   0.664670 0.164660 0.254930 -0.269253
O10   O     O_3   0.335330 0.164660 0.745070 -0.288381
O11   O     O_3   0.164670 0.664660 0.254930 -0.269253
O12   O     O_R   0.216900 0.287550 0.654540 -0.488755
O13   O     O_3   0.835330 0.664660 0.745070 -0.288381
O14   O     O_R   0.760020 0.037400 0.337700 -0.522140
O15   O     O_R   0.239980 0.037400 0.662300 -0.516808
O16   O     O_R   0.260020 0.537400 0.337700 -0.522141
O17   O     O_R   0.739980 0.537400 0.662300 -0.516810
O18   O     O_R   0.666600 0.921990 0.332020 -0.533941
O19   O     O_R   0.333400 0.921990 0.667980 -0.527187
O20   O     O_R   0.166600 0.421990 0.332020 -0.533944
O21   O     O_R   0.833400 0.421990 0.667980 -0.527186
O22   O     O_R   0.557260 0.082670 0.312540 -0.517106
O23   O     O_R   0.283100 0.787550 0.345460 -0.499629
O24   O     O_R   0.442740 0.082670 0.687460 -0.512325
O25   O     O_R   0.057260 0.582670 0.312540 -0.517109
O26   O     O_R   0.942740 0.582670 0.687460 -0.512328
O27   O     O_R   0.548410 0.285740 0.316480 -0.486873
O28   O     O_R   0.451590 0.285740 0.683520 -0.479988
O29   O     O_R   0.048410 0.785740 0.316480 -0.486871
O30   O     O_R   0.951590 0.785740 0.683520 -0.479990
O31   O     O_R   0.680500 0.375040 0.327000 -0.467529
O32   O     O_R   0.319500 0.375040 0.673000 -0.460591
O33   O     O_R   0.180500 0.875040 0.327000 -0.467524
O34   O     O_R   0.716900 0.787550 0.654540 -0.488750
O35   O     O_R   0.819500 0.875040 0.673000 -0.460594
O36   O     O_R   0.780350 0.286720 0.192720 -0.507731
O37   O     O_R   0.219650 0.286720 0.807280 -0.504447
O38   O     O_R   0.280350 0.786720 0.192720 -0.507728
O39   O     O_R   0.719650 0.786720 0.807280 -0.504437
O40   O     O_R   0.757470 0.036630 0.196110 -0.507095
O41   O     O_R   0.242530 0.036630 0.803890 -0.511112
O42   O     O_R   0.257470 0.536630 0.196110 -0.507100
O43   O     O_R   0.742530 0.536630 0.803890 -0.511117
O44   O     O_R   0.663840 0.921160 0.179280 -0.461554
O45   O     O_R   0.554710 0.081900 0.170950 -0.453409
O46   O     O_R   0.336160 0.921160 0.820720 -0.511417
O47   O     O_R   0.163840 0.421160 0.179280 -0.461536
O48   O     O_R   0.836160 0.421160 0.820720 -0.511413
O49   O     O_3   0.867628 0.439640 0.417440 -0.546010
O50   O     O_3   0.133132 0.361940 0.556376 -0.553613
O51   O     O_3   0.367629 0.939638 0.417440 -0.546011
O52   O     O_3   0.633132 0.861941 0.556377 -0.553611
O53   O     O_3   0.610035 0.198761 0.917291 -0.703348
O54   O     O_3   0.569784 0.970272 0.056685 -0.666020
O55   O     O_3   0.110055 0.698843 0.917286 -0.703320
O56   O     O_R   0.445290 0.081900 0.829050 -0.510843
O57   O     O_3   0.069828 0.470277 0.056677 -0.665998
O58   O     O_3   0.615122 0.432951 0.429386 -0.529546
O59   O     O_3   0.382474 0.444066 0.572907 -0.529355
O60   O     O_3   0.115122 0.932960 0.429384 -0.529544
O61   O     O_3   0.882475 0.944063 0.572905 -0.529353
O62   O     O_R   0.054710 0.581900 0.170950 -0.453429
O63   O     O_R   0.945290 0.581900 0.829050 -0.510851
O64   O     O_R   0.545650 0.284910 0.163740 -0.538074

loop_
_geom_bond_atom_site_label_1
_geom_bond_atom_site_label_2
_ccdc_geom_bond_type
C50   H23   S    
Cr6   O11   S    
C21   C26   S    
C111  H67   S    
C102  H43   S    
C56   O26   A    
C70   C78   T    
C6    C7    S    
C83   O35   A    
C28   C69   S    
Cr10  O62   S    
C41   H11   S    
C7    H81   S    
C33   H45   S    
C11   H97   S    
Cr10  O25   S    
Cr3   O7    S    
C69   C107  S    
C10   H96   S    
Cr8   O45   S    
Cr2   O6    S    
C9    H91   S    
C35   H58   S    
C21   H57   S    
C46   H31   S    
C106  H1    S    
C43   C61   S    
C4    C5    S    
Cr12  O64   S    
C57   C89   S    
C50   O54   S    
C17   C26   S    
Cr3   O33   S    
C42   H12   S    
C69   H37   S    
Cr11  O21   S    
C19   H55   S    
C8    H90   S    
C52   C61   S    
Cr12  O27   S    
C58   O58   S    
C14   H102  S    
C53   C98   S    
C53   O27   A    
C46   H21   S    
C108  H34   S    
C92   O4    A    
C9    H93   S    
C15   C16   S    
C37   H59   S    
C29   C33   S    
C100  C104  T    
C49   C57   S    
C85   O46   A    
C84   O40   A    
C6    H80   S    
C2    C32   S    
C67   C72   S    
C110  H64   S    
C85   O41   A    
C30   C83   S    
C87   O48   A    
C16   H7    S    
C59   C88   S    
C79   O1    A    
Cr11  O26   S    
C34   O52   S    
C19   C37   S    
C87   O43   A    
C108  H28   S    
C39   H62   S    
C56   O30   A    
C48   C51   S    
C12   H100  S    
C20   C24   S    
Cr5   O12   S    
C78   C96   S    
C52   H25   S    
C81   O32   A    
C48   H22   S    
C29   C38   S    
C70   C74   S    
C45   H20   S    
C64   C73   T    
C54   C97   S    
Cr11  O48   S    
C30   C91   S    
Cr9   O56   S    
C89   O2    A    
C107  H17   S    
C16   H6    S    
C18   C35   S    
C3    C112  S    
Cr3   O3    S    
C34   H46   S    
C50   C59   S    
Cr8   O9    S    
Cr2   O10   S    
C93   O36   A    
C8    O58   S    
C31   H47   S    
C96   O39   A    
C21   H53   S    
C22   C47   S    
C32   H48   S    
C10   C11   S    
C6    O52   S    
C101  C103  S    
Cr6   O38   S    
Cr4   O4    S    
C51   O55   S    
Cr8   O18   S    
C7    H82   S    
C31   O49   S    
C11   H98   S    
C104  C105  S    
C107  H33   S    
Cr6   O16   S    
C10   H95   S    
C5    H76   S    
C112  O50   S    
C25   O15   A    
C9    H92   S    
C49   O53   S    
C99   C105  T    
C37   H61   S    
C110  H63   S    
C80   O60   S    
C3    H70   S    
C41   H15   S    
C84   O44   A    
C43   H18   S    
C42   H16   S    
Cr9   O19   S    
H86   O54   S    
C31   C102  S    
C82   O23   A    
C28   C32   S    
C17   H42   S    
C39   H83   S    
C24   C25   S    
Cr12  O31   S    
C20   H56   S    
C8    H89   S    
Cr3   O29   S    
C11   H99   S    
C52   O57   S    
C30   C34   S    
C8    C9    S    
Cr9   O24   S    
C27   C35   S    
C68   C73   S    
C22   C106  S    
C27   C31   S    
C77   C95   S    
C3    H71   S    
C65   C74   T    
C110  C111  S    
C49   H24   S    
C40   H14   S    
C55   O29   A    
Cr1   O36   S    
C36   O16   A    
C55   C100  S    
C38   H60   S    
C19   C23   S    
C88   O45   A    
C14   H104  S    
C16   H5    S    
C112  H68   S    
C20   C38   S    
C58   C106  S    
C13   H41   S    
C66   C71   S    
C21   C39   S    
C45   C49   S    
C44   C57   S    
C23   C107  S    
Cr4   O8    S    
C82   O33   A    
C96   O8    A    
Cr7   O39   S    
C3    H73   S    
C4    H75   S    
Cr7   O13   S    
C26   C109  S    
C80   H38   S    
C97   C103  T    
C95   O7    A    
C24   C108  S    
Cr12  O5    S    
C2    H2    S    
C40   C41   S    
C69   O59   S    
C12   C14   S    
Cr5   O10   S    
C111  H65   S    
Cr10  O11   S    
C106  H32   S    
C15   H4    S    
C63   C86   S    
C17   H9    S    
C1    C26   S    
Cr9   O46   S    
C90   O3    A    
H87   O55   S    
C17   C34   S    
C44   H29   S    
C42   C60   S    
Cr7   O43   S    
C109  H35   S    
C2    H44   S    
C64   C85   S    
C47   O17   A    
Cr4   O30   S    
Cr11  O63   S    
C61   C90   S    
C75   C93   S    
Cr10  O20   S    
C33   O51   S    
C86   O42   A    
C44   C50   S    
C68   C77   T    
C94   O37   A    
C48   H30   S    
Cr4   O13   S    
C91   O61   S    
C89   O56   A    
C40   C57   S    
C46   C60   S    
C28   C81   S    
C88   O64   A    
C35   H50   S    
C54   O28   A    
C10   O59   S    
C5    H78   S    
C94   O6    A    
C95   O38   A    
Cr8   O22   S    
C7    H84   S    
C65   C84   S    
C27   C58   S    
Cr8   O44   S    
Cr2   O2    S    
Cr5   O41   S    
H88   O57   S    
Cr1   O1    S    
C13   C33   S    
C67   C76   T    
C18   H54   S    
C76   C94   S    
C51   H26   S    
C98   C101  T    
H85   O53   S    
C62   C87   S    
C80   C108  S    
C27   C79   S    
C22   C102  S    
C81   O12   A    
Cr6   O23   S    
C93   O5    A    
C86   O47   A    
C110  O49   S    
C18   C22   S    
Cr7   O17   S    
Cr1   O40   S    
C79   O31   A    
C14   H103  S    
Cr4   O35   S    
C58   H36   S    
Cr10  O47   S    
C12   O60   S    
C46   C52   S    
Cr3   O11   S    
Cr12  O9    S    
C91   C109  S    
C48   C61   S    
C20   H52   S    
C29   C80   S    
C40   H10   S    
C28   C37   S    
C90   O62   A    
C44   H19   S    
C36   O20   A    
C66   C75   T    
Cr2   O28   S    
C4    H74   S    
C63   C72   T    
Cr5   O15   S    
C13   H8    S    
C15   O61   S    
C62   C71   T    
C43   H13   S    
C109  H39   S    
Cr11  O13   S    
C53   O22   A    
C38   H72   S    
C91   H40   S    
C5    H77   S    
C19   H51   S    
C112  H69   S    
C47   O21   A    
C92   O63   A    
C1    O14   A    
C102  H94   S    
Cr7   O34   S    
C18   H49   S    
C55   O25   A    
C6    H79   S    
C32   O50   S    
C29   C82   S    
C13   C24   S    
C111  H66   S    
C45   C59   S    
C23   C36   S    
C42   C43   S    
C41   C59   S    
C12   H101  S    
C2    C23   S    
Cr1   O14   S    
C4    O51   S    
C54   O24   A    
C83   O34   A    
C15   H3    S    
C51   C60   S    
C25   O19   A    
C56   C99   S    
C45   H27   S    
C1    O18   A    
C60   C92   S    
Cr2   O32   S    
Cr1   O9    S    
Cr5   O37   S    
Cr9   O10   S    
C30   C39   S    
Cr6   O42   S    
