data_mof_unit_1958.cif
_audit_creation_date              2012-12-10T19:15:15-0500
_audit_creation_method            fapswitch 2.2
_symmetry_space_group_name_H-M    P1
_symmetry_Int_Tables_number       1
_space_group_crystal_system       triclinic
_cell_length_a                    10.626212
_cell_length_b                    9.685585
_cell_length_c                    23.419384
_cell_angle_alpha                 89.750737
_cell_angle_beta                  90.234556
_cell_angle_gamma                 89.961942
_cell_volume                      2410.30471615

loop_
_atom_site_label
_atom_site_type_symbol
_atom_type_description
_atom_site_fract_x
_atom_site_fract_y
_atom_site_fract_z
_atom_type_partial_charge
C1    C     C_R   0.257596 0.499802 0.499042 0.840249
C2    C     C_R   0.258118 0.466904 0.970471 -0.159944
C3    C     C_R   0.259370 0.465168 0.029936 -0.158033
C4    C     C_R   0.372017 0.488085 0.059955 -0.014516
C5    C     C_R   0.484102 0.514012 0.029816 -0.020888
C6    C     C_R   0.597623 0.537549 0.059519 -0.014481
C7    C     C_R   0.708803 0.563296 0.029147 -0.159199
C8    C     C_R   0.707570 0.564892 0.969738 -0.160322
C9    C     C_R   0.375984 0.485716 0.119588 0.502004
C10   C     C_R   0.596796 0.534068 0.119102 0.501839
C11   C     C_R   0.483283 0.379900 0.237290 -0.100801
C12   C     C_R   0.499718 0.500362 0.389181 0.874599
C13   C     C_R   0.487445 0.377586 0.296565 -0.228225
C14   C     C_R   0.497099 0.501813 0.326937 -0.043887
C15   C     C_R   0.502772 0.628077 0.297355 -0.226357
C16   C     C_R   0.498858 0.629950 0.238154 -0.101187
C17   C     C_R   0.489070 0.506020 0.208234 0.325001
C18   C     C_R   0.429816 0.614662 0.759330 -0.095809
C19   C     C_R   0.435944 0.610958 0.700219 -0.306108
C20   C     C_R   0.495883 0.500462 0.672837 -0.150370
C21   C     C_R   0.551887 0.393752 0.705217 0.439386
C22   C     C_R   0.541683 0.396566 0.764654 -0.217590
C23   C     C_R   0.742629 0.499719 0.498935 0.843557
C24   C     C_R   0.482719 0.507584 0.791416 0.266434
C25   C     C_3   0.072683 0.554951 0.555981 -0.400587
C26   C     C_3   0.071696 0.349597 0.489643 -0.397420
C27   C     C_3   0.928366 0.553086 0.556187 -0.401563
C28   C     C_3   0.928791 0.349922 0.488479 -0.395299
C29   C     C_3   0.071904 0.591283 0.448808 -0.397742
C30   C     C_3   0.121334 0.498980 0.498325 0.182706
C31   C     C_3   0.878911 0.498842 0.498196 0.181887
C32   C     C_3   0.927416 0.592666 0.449205 -0.399418
C33   C     C_3   0.377813 0.081151 0.518755 -0.236178
C34   C     C_3   0.377867 0.918583 0.518830 -0.230822
C35   C     C_3   0.522213 0.081875 0.440778 -0.229976
C36   C     C_3   0.522160 0.919217 0.440775 -0.231470
C37   C     C_3   0.599171 0.080738 0.536759 -0.238043
C38   C     C_3   0.599307 0.918224 0.536753 -0.237028
C39   C     C_R   0.500341 0.499801 0.610702 0.920788
C40   C     C_R   0.592033 0.539635 0.880186 0.509010
C41   C     C_R   0.371242 0.491124 0.880396 0.514051
C42   C     C_R   0.369500 0.491536 0.940058 -0.019389
C43   C     C_R   0.482845 0.515698 0.969828 -0.022432
C44   C     C_R   0.595149 0.540690 0.939752 -0.015990
H1    H     H_    0.169922 0.448282 0.948474 0.192088
H2    H     H_    0.393276 0.694157 0.675841 0.173141
H3    H     H_    0.581296 0.313813 0.790273 0.147337
H4    H     H_    0.106424 0.662471 0.562822 0.169608
H5    H     H_    0.107626 0.306276 0.448843 0.169184
H6    H     H_    0.109135 0.490521 0.591918 0.163535
H7    H     H_    0.104584 0.281084 0.525033 0.172518
H8    H     H_    0.894595 0.485694 0.591547 0.163027
H9    H     H_    0.894247 0.278536 0.522195 0.167741
H10   H     H_    0.892514 0.659275 0.564218 0.169445
H11   H     H_    0.894961 0.309991 0.446608 0.170211
H12   H     H_    0.107140 0.698921 0.453367 0.170941
H13   H     H_    0.106070 0.551412 0.407131 0.166830
H14   H     H_    0.893905 0.700641 0.454977 0.173397
H15   H     H_    0.890833 0.555757 0.407355 0.165162
H16   H     H_    0.300211 0.118849 0.490750 0.143524
H17   H     H_    0.300110 0.881278 0.490975 0.144306
H18   H     H_    0.172077 0.445395 0.052241 0.193304
H19   H     H_    0.357194 0.119733 0.562407 0.155615
H20   H     H_    0.357547 0.879363 0.562554 0.145997
H21   H     H_    0.448288 0.119979 0.410858 0.145292
H22   H     H_    0.448197 0.881791 0.410882 0.145934
H23   H     H_    0.692930 0.118673 0.522898 0.140542
H24   H     H_    0.693162 0.880428 0.522931 0.146243
H25   H     H_    0.585136 0.118478 0.581021 0.204967
H26   H     H_    0.585784 0.879326 0.581055 0.159343
H27   H     H_    0.613602 0.120679 0.424161 0.145332
H28   H     H_    0.613506 0.880549 0.424144 0.144389
H29   H     H_    0.797045 0.581787 0.051127 0.193363
H30   H     H_    0.794930 0.584430 0.947450 0.192951
H31   H     H_    0.476186 0.284063 0.213853 0.136788
H32   H     H_    0.482788 0.279047 0.318480 0.147980
H33   H     H_    0.510363 0.725223 0.319829 0.148729
H34   H     H_    0.503514 0.727398 0.215410 0.136353
H35   H     H_    0.384710 0.700861 0.780292 0.154040
N1    N     N_R   0.481539 0.513972 0.852073 -0.346986
N2    N     N_R   0.487187 0.508340 0.147541 -0.360684
N3    N     N_3   0.499750 0.138610 0.498760 -0.036510
N4    N     N_3   0.499750 0.861390 0.498760 -0.033153
O1    O     O_R   0.314910 0.616040 0.499990 -0.636108
O2    O     O_R   0.314910 0.383960 0.499990 -0.638625
O3    O     O_R   0.500080 0.616070 0.416130 -0.629034
O4    O     O_R   0.500080 0.383930 0.416130 -0.630638
O5    O     O_R   0.685320 0.616040 0.499970 -0.635082
O6    O     O_R   0.685320 0.383960 0.499970 -0.634260
O7    O     O_R   0.500150 0.616010 0.583820 -0.636439
O8    O     O_R   0.500150 0.383990 0.583820 -0.575127
O9    O     O_2   0.698313 0.563910 0.850392 -0.565436
O10   O     O_2   0.264365 0.466487 0.850824 -0.555724
O11   O     O_2   0.269909 0.461726 0.149538 -0.552717
O12   O     O_2   0.704470 0.555327 0.148560 -0.552526
Zn1   Zn    Zn3+2 0.500150 0.654960 0.499970 0.902875
Zn2   Zn    Zn3+2 0.500150 0.345040 0.499970 0.920443
O13   O     O_3   0.614003 0.286275 0.678569 -0.617807
C45   C     C_3   0.744201 0.296144 0.690471 0.122624
H36   H     H_    0.764113 0.269947 0.735916 0.163396
H37   H     H_    0.780603 0.401728 0.680930 0.131404
C46   C     C_3   0.815101 0.194271 0.653380 -0.873405
H38   H     H_    0.798857 0.219534 0.607794 0.241157
H39   H     H_    0.917538 0.200604 0.662558 0.219238
H40   H     H_    0.782048 0.087455 0.662004 0.259525

loop_
_geom_bond_atom_site_label_1
_geom_bond_atom_site_label_2
_ccdc_geom_bond_type
C38   H26   S    
C37   H25   S    
C38   N4    S    
C41   C42   A    
C35   C36   S    
C32   H14   S    
C41   N1    A    
O5    Zn1   S    
C19   H2    S    
C7    C8    A    
C7    H29   S    
C1    O1    A    
C29   C30   S    
C18   C24   A    
C28   H11   S    
C34   H20   S    
C29   C32   S    
C5    C6    A    
C36   H22   S    
C35   H21   S    
C36   N4    S    
C15   C16   A    
C46   H40   S    
C18   C19   A    
O1    Zn1   S    
C39   O8    A    
C25   H6    S    
C24   N1    S    
C41   O10   S    
C45   H36   S    
C16   C17   A    
C38   H24   S    
C40   N1    A    
C33   N3    S    
C39   O7    A    
C16   H34   S    
C22   H3    S    
C5    C43   A    
C35   H27   S    
C21   C22   A    
C8    H30   S    
C35   N3    S    
C2    H1    S    
C1    O2    A    
C27   H10   S    
C27   C31   S    
C26   H5    S    
C20   C39   S    
C18   H35   S    
C34   H17   S    
O8    Zn2   S    
O6    Zn2   S    
C23   C31   S    
C43   C44   A    
C37   C38   S    
C31   C32   S    
C13   H32   S    
C33   H19   S    
C23   O6    A    
C33   C34   S    
C40   O9    S    
C46   H39   S    
C25   H4    S    
O3    Zn1   S    
C45   H37   S    
C12   C14   S    
C26   C30   S    
C33   H16   S    
C23   O5    A    
N3    Zn2   S    
C22   C24   A    
C37   N3    S    
C42   C43   A    
C3    C4    A    
C27   H8    S    
C3    H18   S    
C25   C30   S    
C11   C17   A    
C12   O4    A    
C28   C31   S    
C8    C44   A    
C29   H13   S    
C4    C5    A    
C6    C10   A    
C28   H9    S    
O7    Zn1   S    
C6    C7    A    
C29   H12   S    
C25   C27   S    
C10   N2    A    
C26   C28   S    
C12   O3    A    
C19   C20   A    
C2    C3    A    
C11   H31   S    
C26   H7    S    
C21   O13   S    
C11   C13   A    
C15   H33   S    
C10   O12   S    
C2    C42   A    
N4    Zn1   S    
C37   H23   S    
C1    C30   S    
C17   N2    S    
C46   H38   S    
O2    Zn2   S    
C40   C44   A    
C45   C46   S    
C20   C21   A    
O13   C45   S    
C34   N4    S    
C14   C15   A    
C32   H15   S    
C4    C9    A    
C13   C14   A    
C9    O11   S    
C36   H28   S    
C9    N2    A    
O4    Zn2   S    
