data_mof_unit_3094.cif
_audit_creation_date              2012-12-11T14:58:28-0500
_audit_creation_method            fapswitch 2.2
_symmetry_space_group_name_H-M    P1
_symmetry_Int_Tables_number       1
_space_group_crystal_system       triclinic
_cell_length_a                    11.12773
_cell_length_b                    11.303806
_cell_length_c                    18.808798
_cell_angle_alpha                 90.650095
_cell_angle_beta                  90.11562
_cell_angle_gamma                 58.620515
_cell_volume                      2019.68716204

loop_
_atom_site_label
_atom_site_type_symbol
_atom_type_description
_atom_site_fract_x
_atom_site_fract_y
_atom_site_fract_z
_atom_type_partial_charge
C1    C     C_R   0.357169 0.773243 0.397995 0.619284
C2    C     C_R   0.615015 0.171118 0.149926 0.008219
C3    C     C_R   0.348970 0.332954 0.162944 -0.040751
C4    C     C_R   0.489624 0.267190 0.268071 0.350869
C5    C     C_R   0.483746 0.261974 0.194163 0.051177
C6    C     C_R   0.107421 0.670149 0.333157 0.275082
C7    C     C_R   0.024065 0.750402 0.392537 0.427113
C8    C     C_R   0.702664 0.027807 0.163634 0.276523
C9    C     C_R   0.785674 0.934275 0.108943 0.205099
C10   C     C_R   0.227185 0.419579 0.203966 -0.085801
C11   C     C_R   0.232564 0.432793 0.277111 -0.000390
C12   C     C_R   0.388315 0.356882 0.386677 0.552603
C13   C     C_R   0.925580 0.725439 0.419911 0.337025
C14   C     C_R   0.874477 0.665256 0.372986 0.244566
C15   C     C_R   0.970413 0.569464 0.321762 -0.183778
C16   C     C_R   0.105730 0.550573 0.315229 -0.085150
C17   C     C_R   0.366368 0.348187 0.310219 0.018722
C18   C     C_R   0.955935 0.308310 0.309029 -0.125472
C19   C     C_R   0.985733 0.298440 0.236575 0.248382
C20   C     C_R   0.878866 0.333050 0.186499 0.030118
C21   C     C_R   0.742243 0.379533 0.208468 0.298125
C22   C     C_R   0.714711 0.381430 0.280200 0.035250
C23   C     C_R   0.777046 0.378391 0.403691 0.564252
C24   C     C_R   0.819653 0.350972 0.330412 -0.032692
C25   C     C_R   0.461042 0.749191 0.280072 0.317223
C26   C     C_R   0.451108 0.772001 0.207671 -0.142080
C27   C     C_R   0.328525 0.880849 0.181189 -0.073503
C28   C     C_R   0.215191 0.964904 0.226556 -0.093613
C29   C     C_R   0.218019 0.935742 0.298865 0.254314
C30   C     C_R   0.346060 0.827946 0.326382 0.076020
C31   C     C_R   0.386820 0.212929 0.694327 -0.119807
C32   C     C_R   0.388147 0.192370 0.765938 0.256568
C33   C     C_R   0.313263 0.309298 0.811892 0.041325
C34   C     C_R   0.345225 0.766547 0.605047 0.558044
C35   C     C_R   0.251137 0.443380 0.785279 -0.208766
C36   C     C_R   0.262479 0.460856 0.713041 -0.179993
C37   C     C_R   0.329657 0.344230 0.667696 -0.025811
C38   C     C_R   0.805567 0.451676 0.726985 0.261940
C39   C     C_R   0.787223 0.452167 0.799383 0.358424
C40   C     C_R   0.823383 0.328441 0.833419 -0.034083
C41   C     C_R   0.847560 0.213462 0.791879 -0.195449
C42   C     C_R   0.835197 0.223584 0.716997 0.189559
C43   C     C_R   0.812001 0.345107 0.684448 -0.018010
C44   C     C_R   0.199307 0.843104 0.713311 0.332702
C45   C     C_R   0.371010 0.354826 0.596865 0.533347
C46   C     C_R   0.190042 0.854867 0.786247 -0.131152
C47   C     C_R   0.301901 0.843447 0.825725 -0.081701
C48   C     C_R   0.425358 0.815173 0.791760 -0.036615
C49   C     C_R   0.435123 0.809342 0.718259 0.235190
C50   C     C_R   0.322241 0.817936 0.678137 0.005964
C51   C     C_R   0.915123 0.315247 0.112219 0.635987
C52   C     C_R   0.326684 0.293794 0.092480 0.563097
C53   C     C_R   0.304810 0.904532 0.105989 0.559742
C54   C     C_R   0.882341 0.309774 0.905217 0.616236
C55   C     C_R   0.296472 0.285769 0.885419 0.574123
C56   C     C_R   0.763308 0.377468 0.610280 0.575911
C57   C     C_R   0.276268 0.894051 0.898373 0.553008
C58   C     C_R   0.791192 0.984286 0.041118 0.266675
C59   C     C_R   0.713320 0.127231 0.029765 0.378949
C60   C     C_R   0.630644 0.219540 0.083882 -0.106755
Cr1   Cr    Cr6+3 0.601770 0.606860 0.505860 1.081449
Cr2   Cr    Cr6+3 0.291380 0.601660 0.495070 1.131467
Cr3   Cr    Cr6+3 0.606880 0.291510 0.499120 1.111371
Cr4   Cr    Cr6+3 0.062440 0.063090 0.008210 1.044128
Cr5   Cr    Cr6+3 0.062880 0.375170 0.998920 1.043990
Cr6   Cr    Cr6+3 0.374700 0.061720 0.992470 1.052015
H1    H     H_    0.932746 0.530080 0.281307 0.180547
H2    H     H_    0.037462 0.284703 0.347739 0.167785
H3    H     H_    0.607535 0.420106 0.297283 0.206408
H4    H     H_    0.538487 0.705578 0.172740 0.171084
H5    H     H_    0.120028 0.043935 0.202516 0.179502
H6    H     H_    0.439721 0.126385 0.658957 0.114524
H7    H     H_    0.196249 0.533189 0.820130 0.131557
H8    H     H_    0.221516 0.564299 0.692992 0.189610
H9    H     H_    0.882843 0.115150 0.817025 0.172795
H10   H     H_    0.093000 0.876764 0.811453 0.160947
H11   H     H_    0.513638 0.802363 0.822489 0.224168
H12   H     H_    0.562598 0.327578 0.070416 0.195687
H13   H     H_    0.124755 0.476462 0.179014 0.179898
O1    O     O_R   0.748800 0.497470 0.428000 -0.423331
O2    O     O_R   0.300070 0.471040 0.567100 -0.504695
O3    O     O_R   0.491670 0.258900 0.574910 -0.532671
O4    O     O_R   0.718780 0.304180 0.577850 -0.461052
O5    O     O_3   0.500010 0.500010 0.500020 -0.314764
O6    O     O_R   0.186690 0.923650 0.086970 -0.559604
O7    O     O_R   0.957250 0.194250 0.084630 -0.512425
O8    O     O_R   0.934970 0.407490 0.085330 -0.519400
O9    O     O_R   0.203780 0.365190 0.067090 -0.501241
O10   O     O_R   0.417600 0.174890 0.067840 -0.540522
O11   O     O_R   0.375320 0.946260 0.070860 -0.512500
O12   O     O_R   0.476420 0.724060 0.429470 -0.486903
O13   O     O_R   0.160600 0.919630 0.926660 -0.542781
O14   O     O_R   0.933060 0.190520 0.936020 -0.453682
O15   O     O_R   0.908880 0.403460 0.925020 -0.459002
O16   O     O_R   0.179600 0.361450 0.918490 -0.524428
O17   O     O_R   0.391510 0.170860 0.907530 -0.473965
O18   O     O_R   0.351130 0.942530 0.922260 -0.488218
O19   O     O_3   0.166667 0.166667 0.999870 -0.272882
O20   O     O_R   0.264580 0.744340 0.416750 -0.397650
O21   O     O_R   0.309380 0.472470 0.418200 -0.533049
O22   O     O_R   0.501710 0.260430 0.414300 -0.452492
O23   O     O_R   0.728090 0.305600 0.428960 -0.483445
O24   O     O_R   0.738760 0.495930 0.588610 -0.459744
O25   O     O_R   0.467110 0.722640 0.578360 -0.518318
O26   O     O_R   0.254530 0.742800 0.577360 -0.413516
F1    F     F_    0.618470 0.196443 0.298921 -0.639705
F2    F     F_    0.857832 0.791033 0.481123 -0.642459
O27   O     O_3   0.732806 0.708469 0.369492 -0.469092
C61   C     C_3   0.642496 0.846184 0.395016 0.015585
H14   H     H_    0.677759 0.918045 0.379130 0.167458
H15   H     H_    0.628305 0.847171 0.453456 0.161553
H16   H     H_    0.536911 0.888858 0.372044 0.093099
F3    F     F_    0.118802 0.254013 0.215144 -0.675351
F4    F     F_    0.634772 0.432053 0.161547 -0.687507
F5    F     F_    0.582741 0.645091 0.304705 -0.626577
O28   O     O_3   0.851817 0.793695 0.121537 -0.602442
C62   C     C_3   0.769955 0.741370 0.093741 -0.078745
H17   H     H_    0.816474 0.684677 0.043094 0.166329
H18   H     H_    0.657430 0.821146 0.084027 0.109562
H19   H     H_    0.772001 0.666811 0.132250 0.155572
O29   O     O_3   0.100723 0.009112 0.343068 -0.532194
C63   C     C_3   0.974080 0.031800 0.311246 0.028614
H20   H     H_    0.977812 0.936409 0.295851 0.180822
H21   H     H_    0.940566 0.097420 0.263967 0.057629
H22   H     H_    0.888043 0.083537 0.350873 0.233549
O30   O     O_3   0.452377 0.056870 0.789182 -0.573536
C64   C     C_3   0.591532 0.009322 0.812675 -0.061967
H23   H     H_    0.616105 0.092404 0.821072 0.133477
H24   H     H_    0.668906 0.929253 0.775913 0.117123
H25   H     H_    0.608239 0.956065 0.864182 0.198147
O31   O     O_3   0.810772 0.560278 0.697744 -0.466892
C65   C     C_3   0.948450 0.533466 0.703868 -0.066505
H26   H     H_    0.026001 0.432871 0.678042 0.103654
H27   H     H_    0.975368 0.535631 0.760603 0.159722
H28   H     H_    0.954293 0.616587 0.676290 0.169870
F6    F     F_    0.753548 0.569484 0.836578 -0.618634
O32   O     O_3   0.866336 0.110882 0.673871 -0.470583
C66   C     C_3   0.784165 0.054978 0.693087 -0.015083
H29   H     H_    0.786498 0.988750 0.648509 0.188465
H30   H     H_    0.672148 0.137006 0.702425 0.090235
H31   H     H_    0.830397 0.987625 0.740054 0.120540
F7    F     F_    0.090463 0.848091 0.677964 -0.602307
F8    F     F_    0.020351 0.863129 0.420183 -0.563961
O33   O     O_3   0.566731 0.765650 0.689866 -0.476887
C67   C     C_3   0.566306 0.861707 0.642357 0.005788
H32   H     H_    0.460784 0.936750 0.620355 0.072024
H33   H     H_    0.636328 0.803628 0.596730 0.181672
H34   H     H_    0.615013 0.914613 0.667619 0.099855
O34   O     O_3   0.852902 0.897466 0.982377 -0.559785
C68   C     C_3   0.996014 0.797536 0.994480 -0.055048
H35   H     H_    0.048408 0.835312 0.030424 0.152974
H36   H     H_    0.052047 0.769541 0.942664 0.140027
H37   H     H_    0.008481 0.700596 0.015374 0.135173
F9    F     F_    0.705436 0.176443 0.963466 -0.622379
O35   O     O_3   0.184806 0.708737 0.292536 -0.565573
C69   C     C_3   0.148933 0.717631 0.219115 -0.135686
H38   H     H_    0.109013 0.822668 0.199236 0.133916
H39   H     H_    0.062139 0.699661 0.206494 0.154116
H40   H     H_    0.244499 0.646325 0.187639 0.157602
O36   O     O_3   0.699235 0.975234 0.228743 -0.511492
C70   C     C_3   0.590723 0.946165 0.229428 -0.080995
H41   H     H_    0.513777 0.009196 0.271621 0.133493
H42   H     H_    0.639575 0.835101 0.241722 0.184192
H43   H     H_    0.529713 0.968222 0.179171 0.117514

loop_
_geom_bond_atom_site_label_1
_geom_bond_atom_site_label_2
_ccdc_geom_bond_type
C33   C55   S    
C40   C41   A    
O30   C64   S    
C57   O13   A    
C41   C42   A    
C55   O17   A    
C35   C36   A    
C13   F2    S    
C1    O20   A    
C7    F8    S    
C67   H32   S    
Cr6   O11   S    
Cr2   O26   S    
O28   C62   S    
C60   H12   S    
C26   C27   A    
Cr5   O9    S    
C18   C24   A    
Cr6   O18   S    
C69   H38   S    
Cr1   O24   S    
Cr4   O14   S    
C18   C19   A    
C20   C51   S    
C62   H18   S    
Cr5   O15   S    
C38   C39   A    
C2    C60   A    
C23   O23   A    
C41   H9    S    
C19   F3    S    
Cr1   O1    S    
C18   H2    S    
C15   C16   A    
C49   O33   S    
O27   C61   S    
C9    C58   A    
Cr4   O7    S    
C54   O14   A    
C61   H15   S    
C67   H33   S    
C11   C17   A    
C45   O3    A    
C65   H26   S    
C68   H37   S    
C29   O29   S    
C12   C17   S    
C23   C24   S    
C13   C14   A    
C23   O1    A    
C22   H3    S    
C6    O35   S    
C58   O34   S    
Cr3   O22   S    
C12   O22   A    
Cr4   O19   S    
C57   O18   A    
C59   C60   A    
C1    O12   A    
C21   C22   A    
C42   O32   S    
C9    O28   S    
C52   O10   A    
Cr3   O23   S    
C51   O7    A    
C46   H10   S    
C70   H42   S    
C59   F9    S    
C44   C46   A    
Cr5   O8    S    
Cr6   O10   S    
C39   F6    S    
C45   O2    A    
C14   O27   S    
C34   C50   S    
C54   O15   A    
Cr3   O3    S    
C47   C48   A    
C52   O9    A    
Cr1   O25   S    
C55   O16   A    
C10   C11   A    
C62   H19   S    
C51   O8    A    
C39   C40   A    
C8    C9    A    
C58   C59   A    
C4    F1    S    
C66   H31   S    
C34   O25   A    
C31   C37   A    
Cr3   O4    S    
C48   H11   S    
C64   H24   S    
C29   C30   A    
C38   O31   S    
C47   C57   S    
C11   C16   S    
C31   C32   A    
C7    C13   A    
C3    C52   S    
C15   H1    S    
C53   O11   A    
O29   C63   S    
C32   O30   S    
Cr2   O21   S    
C4    C17   A    
C65   H27   S    
C31   H6    S    
Cr2   O2    S    
C40   C54   S    
C26   H4    S    
C68   H36   S    
C44   F7    S    
C61   H16   S    
C28   H5    S    
C42   C43   A    
Cr4   O13   S    
C37   C45   S    
C64   H23   S    
C28   C29   A    
Cr4   O6    S    
C27   C28   A    
C70   H43   S    
C67   H34   S    
C56   O4    A    
Cr6   O17   S    
C44   C50   A    
C25   C30   A    
Cr2   O5    S    
C46   C47   A    
C35   H7    S    
C14   C15   A    
C34   O26   A    
C69   H40   S    
C2    C8    A    
C56   O24   A    
C21   F4    S    
C3    C5    A    
Cr1   O5    S    
Cr5   O19   S    
C10   H13   S    
C27   C53   S    
C6    C7    A    
C66   H30   S    
O32   C66   S    
Cr3   O5    S    
O33   C67   S    
C32   C33   A    
Cr6   O19   S    
C19   C20   A    
C25   F5    S    
C25   C26   A    
C64   H25   S    
C38   C43   A    
C3    C10   A    
C70   H41   S    
C62   H17   S    
O36   C70   S    
C63   H22   S    
C65   H28   S    
C48   C49   A    
C4    C5    A    
C69   H39   S    
C1    C30   S    
C33   C35   A    
C22   C24   A    
C12   O21   A    
C66   H29   S    
C6    C16   A    
Cr2   O20   S    
C2    C5    S    
Cr1   O12   S    
C43   C56   S    
Cr5   O16   S    
C20   C21   A    
C36   C37   A    
C49   C50   A    
C61   H14   S    
O35   C69   S    
C68   H35   S    
C53   O6    A    
C63   H20   S    
O34   C68   S    
C63   H21   S    
C36   H8    S    
O31   C65   S    
C8    O36   S    
