data_mof_unit_3096.cif
_audit_creation_date              2012-12-11T15:10:52-0500
_audit_creation_method            fapswitch 2.2
_symmetry_space_group_name_H-M    P1
_symmetry_Int_Tables_number       1
_space_group_crystal_system       triclinic
_cell_length_a                    21.104013
_cell_length_b                    7.236012
_cell_length_c                    18.24756
_cell_angle_alpha                 90.203018
_cell_angle_beta                  93.569304
_cell_angle_gamma                 90.187635
_cell_volume                      2781.12483287

loop_
_atom_site_label
_atom_site_type_symbol
_atom_type_description
_atom_site_fract_x
_atom_site_fract_y
_atom_site_fract_z
_atom_type_partial_charge
O1    O     O_R   0.448880 0.506250 0.415280 -0.526634
O2    O     O_R   0.551120 0.006250 0.584720 -0.526510
O3    O     O_R   0.434830 0.174000 0.557310 -0.521798
O4    O     O_R   0.565170 0.674000 0.442690 -0.521568
C1    C     C_R   0.417010 0.344559 0.579704 0.698576
C2    C     C_R   0.582985 0.844577 0.420310 0.698811
O5    O     O_R   0.441680 0.176440 0.414130 -0.530686
O6    O     O_R   0.558320 0.676440 0.585870 -0.529065
O7    O     O_R   0.558020 0.007570 0.440520 -0.520151
O8    O     O_R   0.441980 0.507570 0.559480 -0.520993
C3    C     C_R   0.427914 0.344334 0.388146 0.718483
C4    C     C_R   0.571962 0.845122 0.611815 0.719358
O9    O     O_3   0.538160 0.339670 0.508820 -0.365963
O10   O     O_3   0.461840 0.839670 0.491180 -0.367453
V1    V     V_3+5 0.492920 0.064260 0.498360 1.452820
V2    V     V_3+5 0.507080 0.564260 0.501640 1.454160
C5    C     C_R   0.878693 0.941553 0.686457 -0.157840
C6    C     C_R   0.128051 0.539804 0.308428 -0.164560
H1    H     H_    0.966495 0.972455 0.751083 0.108035
H2    H     H_    0.039704 0.561174 0.244622 0.107830
H3    H     H_    0.901549 0.958547 0.635328 0.114902
H4    H     H_    0.107485 0.589735 0.357710 0.115306
C7    C     C_R   0.887471 0.938100 0.819299 -0.066858
C8    C     C_R   0.113179 0.448916 0.180634 -0.067254
C9    C     C_R   0.583030 0.827166 0.746517 -0.277243
C10   C     C_R   0.414122 0.285260 0.255135 -0.281799
C11   C     C_R   0.618110 0.791972 0.812369 0.424272
C12   C     C_R   0.382163 0.302478 0.186176 0.420446
C13   C     C_R   0.685059 0.775940 0.812904 0.304570
C14   C     C_R   0.321566 0.386740 0.179808 0.308081
C15   C     C_R   0.716661 0.843373 0.751226 -0.092457
C16   C     C_R   0.287530 0.409268 0.244595 -0.099437
C17   C     C_R   0.679827 0.864569 0.683089 0.030469
C18   C     C_R   0.323227 0.407028 0.314118 0.031320
C19   C     C_R   0.783445 0.884546 0.753394 0.149801
C20   C     C_R   0.220035 0.437880 0.243552 0.134204
C21   C     C_R   0.812921 0.911488 0.686350 0.136690
C22   C     C_R   0.192900 0.497306 0.308899 0.137701
C23   C     C_R   0.776472 0.912931 0.619750 -0.191602
C24   C     C_R   0.230287 0.511172 0.374628 -0.196070
C25   C     C_R   0.710822 0.895568 0.618274 -0.127770
C26   C     C_R   0.293856 0.461001 0.377778 -0.132587
C27   C     C_R   0.821415 0.911390 0.819722 -0.103367
C28   C     C_R   0.177832 0.400747 0.181259 -0.117101
C29   C     C_R   0.915720 0.951367 0.752322 -0.165907
C30   C     C_R   0.089098 0.520862 0.244365 -0.166477
C31   C     C_R   0.612713 0.850314 0.681033 -0.150798
C32   C     C_R   0.387551 0.349463 0.318482 -0.153870
H5    H     H_    0.800287 0.915960 0.871899 0.167464
H6    H     H_    0.194450 0.336182 0.132853 0.174089
H7    H     H_    0.684431 0.906268 0.565651 0.094756
H8    H     H_    0.319926 0.465328 0.430770 0.101128
C33   C     C_1   0.864484 0.938873 0.132026 -0.165093
C34   C     C_1   0.135592 0.438969 0.868064 -0.187734
C35   C     C_1   0.821614 0.924795 0.175766 0.041214
C36   C     C_1   0.178493 0.424910 0.824369 0.018884
C37   C     C_1   0.771056 0.905670 0.227890 0.035919
C38   C     C_1   0.229060 0.405761 0.772267 0.031971
C39   C     C_1   0.728510 0.889052 0.271920 0.030123
C40   C     C_1   0.271592 0.389099 0.728225 0.029386
C41   C     C_1   0.678000 0.869953 0.324107 0.026098
C42   C     C_1   0.322065 0.369942 0.675998 0.025725
C43   C     C_1   0.635198 0.855923 0.367935 -0.182338
C44   C     C_1   0.364833 0.355880 0.632128 -0.183253
O11   O     O_R   0.058070 0.289240 0.940580 -0.520033
O12   O     O_R   0.941930 0.789240 0.059420 -0.520003
O13   O     O_R   0.058330 0.616740 0.085880 -0.524476
O14   O     O_R   0.941670 0.116740 0.914120 -0.536228
C45   C     C_R   0.072132 0.449494 0.111875 0.703054
C46   C     C_R   0.927879 0.948206 0.888252 0.695869
O15   O     O_R   0.065180 0.619040 0.942700 -0.520591
O16   O     O_R   0.934820 0.119040 0.057300 -0.523566
O17   O     O_R   0.948870 0.787780 0.915270 -0.524091
O18   O     O_R   0.051130 0.287780 0.084730 -0.534213
C47   C     C_R   0.083250 0.450330 0.920266 0.714484
C48   C     C_R   0.916787 0.950304 0.079765 0.708038
O19   O     O_3   0.961870 0.453310 0.991210 -0.366299
O20   O     O_3   0.038130 0.953310 0.008790 -0.362120
V3    V     V_3+5 0.007070 0.728770 0.001630 1.486950
V4    V     V_3+5 0.992930 0.228770 0.998370 1.457290
H9    H     H_    0.798694 0.934809 0.568493 0.119058
H10   H     H_    0.209594 0.554755 0.424749 0.119472
H11   H     H_    0.531605 0.825705 0.745433 0.181022
H12   H     H_    0.461780 0.229139 0.259163 0.184765
S1    S     S_3+6 0.723573 0.615319 0.875179 0.061144
O21   O     O_2   0.740805 0.707778 0.947632 -0.304882
O22   O     O_2   0.679814 0.455820 0.887651 -0.253153
O23   O     O_3   0.789538 0.530016 0.840468 -0.521144
H13   H     H_    0.809297 0.451454 0.879881 0.359465
S2    S     S_3+6 0.300694 0.517885 0.098936 0.081707
O24   O     O_2   0.256153 0.671860 0.115880 -0.334413
O25   O     O_2   0.359372 0.602287 0.070255 -0.236894
O26   O     O_3   0.266031 0.380752 0.033330 -0.482285
H14   H     H_    0.255935 0.463578 0.991130 0.367878
S3    S     S_3+6 0.575094 0.763526 0.891955 0.152831
O27   O     O_2   0.553628 0.565972 0.896896 -0.246387
O28   O     O_2   0.615332 0.814485 0.959885 -0.244677
O29   O     O_3   0.510741 0.900494 0.885825 -0.479230
H15   H     H_    0.488992 0.877660 0.931524 0.397816
S4    S     S_3+6 0.420905 0.216892 0.109659 0.144533
O30   O     O_2   0.373411 0.159565 0.049021 -0.246620
O31   O     O_2   0.463859 0.364049 0.082306 -0.246058
O32   O     O_3   0.465043 0.032549 0.135686 -0.485816
H16   H     H_    0.484259 0.990002 0.090444 0.397452

loop_
_geom_bond_atom_site_label_1
_geom_bond_atom_site_label_2
_ccdc_geom_bond_type
O14   V4    S    
C14   C16   A    
O26   H14   S    
C7    C29   A    
C11   C13   A    
C11   S3    S    
S3    O27   D    
O1    C3    A    
C14   S2    S    
O2    C4    A    
C2    O7    A    
O15   V3    S    
S3    O29   S    
C23   C25   A    
S1    O21   D    
O5    C3    A    
O12   V3    S    
C16   C20   A    
C19   C21   A    
C5    C29   A    
C37   C39   T    
C38   C40   T    
C7    C27   A    
C40   C42   S    
C41   C43   T    
C42   C44   T    
C18   C26   A    
C15   C17   A    
C19   C27   A    
C9    C31   A    
C13   S1    S    
C10   C32   A    
C12   S4    S    
O5    V1    S    
O6    V2    S    
O11   V4    S    
O18   V4    S    
C13   C15   A    
C7    C46   S    
C3    C32   S    
C4    C31   S    
C6    C30   A    
C8    C45   S    
C33   C35   T    
C21   C23   A    
C34   C36   T    
C39   C41   S    
S1    O22   D    
C24   H10   S    
O13   V3    S    
C23   H9    S    
O4    C2    A    
O20   V3    S    
C27   H5    S    
S4    O32   S    
C5    H3    S    
H1    C29   S    
C1    C44   S    
O13   C45   A    
C16   C18   A    
C2    C43   S    
O4    V2    S    
S2    O25   D    
O6    C4    A    
O12   C48   A    
C46   O17   A    
S4    O31   D    
O17   V3    S    
C45   O18   A    
O1    V2    S    
C5    C21   A    
O2    V1    S    
C35   C37   S    
C17   C31   A    
C15   C19   A    
C20   C28   A    
C33   C48   S    
C18   C32   A    
C20   C22   A    
O3    V1    S    
S2    O26   S    
S1    O23   S    
C28   H6    S    
C10   H12   S    
C6    H4    S    
O3    C1    A    
S3    O28   D    
C9    C11   A    
C10   C12   A    
O11   C47   A    
C8    C30   A    
C12   C14   A    
C6    C22   A    
C17   C25   A    
C1    O8    A    
O16   V4    S    
O8    V2    S    
O15   C47   A    
O19   V4    S    
S2    O24   D    
C22   C24   A    
O16   C48   A    
C8    C28   A    
C24   C26   A    
S4    O30   D    
C36   C38   S    
O7    V1    S    
C34   C47   S    
O23   H13   S    
O14   C46   A    
O29   H15   S    
O9    V2    S    
O32   H16   S    
C9    H11   S    
O10   V1    S    
C25   H7    S    
H2    C30   S    
C26   H8    S    
