data_mof_unit_362.cif
_audit_creation_date              2012-12-10T19:45:00-0500
_audit_creation_method            fapswitch 2.2
_symmetry_space_group_name_H-M    P1
_symmetry_Int_Tables_number       1
_space_group_crystal_system       triclinic
_cell_length_a                    15.077804
_cell_length_b                    10.831009
_cell_length_c                    13.818126
_cell_angle_alpha                 91.054478
_cell_angle_beta                  88.710025
_cell_angle_gamma                 87.149174
_cell_volume                      2252.8135077

loop_
_atom_site_label
_atom_site_type_symbol
_atom_type_description
_atom_site_fract_x
_atom_site_fract_y
_atom_site_fract_z
_atom_type_partial_charge
C1    C     C_R   0.498756 0.262457 0.499246 0.837006
C2    C     C_R   0.577632 0.877136 0.664586 -0.131729
C3    C     C_R   0.465751 0.115085 0.244150 0.568354
C4    C     C_R   0.534248 0.884915 0.755850 0.568354
C5    C     C_R   0.429691 0.178803 0.165926 -0.205737
C6    C     C_R   0.570307 0.821197 0.834074 -0.205733
C7    C     C_R   0.349987 0.249446 0.177852 -0.267680
C8    C     C_R   0.650011 0.750554 0.822149 -0.267686
C9    C     C_R   0.466927 0.933813 0.422299 -0.146826
C10   C     C_R   0.533073 0.066187 0.577700 -0.146823
C11   C     C_R   0.502408 0.871484 0.501731 -0.074059
C12   C     C_R   0.501244 0.737543 0.500753 0.837005
C13   C     C_R   0.497592 0.128516 0.498269 -0.074059
C14   C     C_R   0.536472 0.938097 0.580220 0.126679
C15   C     C_R   0.463527 0.061903 0.419780 0.126680
C16   C     C_R   0.328667 0.500389 0.500764 0.837472
C17   C     C_R   0.671333 0.499611 0.499236 0.837474
C18   C     C_R   0.566799 0.438958 0.790839 0.053702
C19   C     C_R   0.433201 0.561042 0.209161 0.053703
C20   C     C_R   0.432295 0.564405 0.797222 0.280301
C21   C     C_R   0.567705 0.435595 0.202778 0.280297
C22   C     C_R   0.427928 0.558966 0.900722 -0.110793
C23   C     C_R   0.043535 0.457608 0.673132 0.564344
C24   C     C_R   0.572071 0.441034 0.099278 -0.110796
C25   C     C_R   0.499168 0.499818 0.948327 -0.017764
C26   C     C_R   0.500832 0.500182 0.051673 -0.017764
C27   C     C_R   0.569113 0.440808 0.892842 -0.081664
C28   C     C_R   0.430887 0.559192 0.107158 -0.081662
C29   C     C_R   0.356053 0.612914 0.958916 0.632042
C30   C     C_R   0.643946 0.387085 0.041084 0.632044
C31   C     C_R   0.358932 0.614118 0.059887 -0.222505
C32   C     C_R   0.641068 0.385882 0.940113 -0.222508
C33   C     C_R   0.815691 0.520889 0.412869 -0.085123
C34   C     C_R   0.956466 0.542361 0.326862 0.564332
C35   C     C_R   0.184309 0.479106 0.587130 -0.085119
C36   C     C_R   0.768227 0.499108 0.498580 -0.074483
C37   C     C_R   0.231773 0.500891 0.501420 -0.074485
C38   C     C_R   0.813368 0.477719 0.584796 -0.135407
C39   C     C_R   0.186632 0.522274 0.415202 -0.135409
C40   C     C_R   0.905717 0.478149 0.586228 -0.062999
C41   C     C_R   0.094283 0.521844 0.413770 -0.063001
C42   C     C_R   0.953490 0.499785 0.499687 -0.082886
C43   C     C_R   0.046510 0.500217 0.500314 -0.082888
C44   C     C_R   0.908283 0.521074 0.412544 -0.071002
C45   C     C_R   0.305679 0.255844 0.267845 -0.164347
C46   C     C_R   0.091718 0.478920 0.587454 -0.071004
C47   C     C_R   0.951079 0.457295 0.672543 0.531689
C48   C     C_R   0.048923 0.542673 0.327450 0.531680
C49   C     C_3   0.364484 0.649638 0.749625 -0.603174
C50   C     C_3   0.635516 0.350361 0.250375 -0.603170
C51   C     C_R   0.694320 0.744156 0.732156 -0.164351
C52   C     C_R   0.341416 0.192724 0.346529 0.585001
C53   C     C_R   0.658583 0.807276 0.653471 0.585009
C54   C     C_R   0.422367 0.122864 0.335414 -0.131729
Cu1   Cu    Cu3+1 0.500010 0.499980 0.597420 0.968573
Cu2   Cu    Cu3+1 0.499990 0.500020 0.402580 0.968572
F1    F     F_    0.280282 0.661548 0.920708 -0.626235
F2    F     F_    0.456068 0.951572 0.768367 -0.644830
F3    F     F_    0.719718 0.338451 0.079292 -0.626225
F4    F     F_    0.905949 0.436649 0.756434 -0.604347
F5    F     F_    0.094055 0.563271 0.243549 -0.604345
F6    F     F_    0.085877 0.437225 0.757540 -0.575570
F7    F     F_    0.914126 0.562698 0.242445 -0.575564
F8    F     F_    0.297863 0.200757 0.433636 -0.658188
F9    F     F_    0.702137 0.799243 0.566365 -0.658191
F10   F     F_    0.543931 0.048428 0.231633 -0.644832
H1    H     H_    0.780440 0.538906 0.346763 0.201473
H2    H     H_    0.223537 0.539598 0.349024 0.185267
H3    H     H_    0.322579 0.299293 0.117328 0.214042
H4    H     H_    0.677419 0.700707 0.882673 0.214036
H5    H     H_    0.243756 0.310226 0.276661 0.192041
H6    H     H_    0.756243 0.689774 0.723340 0.192026
H7    H     H_    0.463920 0.174314 0.096142 0.189256
H8    H     H_    0.536078 0.825686 0.903859 0.189254
H9    H     H_    0.360409 0.740851 0.787849 0.260274
H10   H     H_    0.379295 0.673928 0.675543 0.234818
H11   H     H_    0.298628 0.608340 0.751167 0.251506
H12   H     H_    0.219560 0.461084 0.653236 0.201479
H13   H     H_    0.639590 0.259148 0.212151 0.260274
H14   H     H_    0.701372 0.391659 0.248833 0.251512
H15   H     H_    0.620705 0.326072 0.324457 0.234818
H16   H     H_    0.439620 0.882702 0.362627 0.162779
H17   H     H_    0.560380 0.117298 0.637374 0.162780
H18   H     H_    0.619659 0.390822 0.748768 0.130628
H19   H     H_    0.380341 0.609178 0.251232 0.130626
H20   H     H_    0.303443 0.657018 0.101430 0.202197
H21   H     H_    0.696557 0.342982 0.898570 0.202203
H22   H     H_    0.776463 0.460390 0.650972 0.185270
N1    N     N_R   0.499960 0.499900 0.743810 -0.188677
N2    N     N_R   0.500040 0.500100 0.256190 -0.188678
O1    O     O_R   0.500000 0.319630 0.582270 -0.569741
O2    O     O_R   0.500000 0.680370 0.417730 -0.569742
O3    O     O_R   0.499990 0.319660 0.417730 -0.609772
O4    O     O_R   0.500010 0.680340 0.582270 -0.609772
O5    O     O_R   0.370260 0.499960 0.582280 -0.594508
O6    O     O_R   0.629740 0.500040 0.417720 -0.594509
O7    O     O_R   0.370250 0.499990 0.417740 -0.599390
O8    O     O_R   0.629750 0.500010 0.582260 -0.599390

loop_
_geom_bond_atom_site_label_1
_geom_bond_atom_site_label_2
_ccdc_geom_bond_type
C40   C47   A    
C30   C32   A    
Cu1   Cu2   S    
C22   C29   A    
C45   H5    S    
C39   H2    S    
C50   H13   S    
C39   C41   A    
C7    C45   A    
C35   C37   A    
C24   C26   A    
C3    C54   A    
C16   O7    A    
C10   H17   S    
C33   C36   A    
Cu1   O1    S    
C47   F4    S    
C23   F6    S    
C22   C25   A    
C18   H18   S    
C49   H9    S    
C17   C36   S    
C53   F9    S    
C17   O8    A    
C9    H16   S    
C40   C42   A    
C1    O1    A    
C23   C46   A    
C41   C43   A    
C12   O4    A    
C42   C44   A    
Cu2   O7    S    
Cu1   O4    S    
C21   C50   S    
C52   C54   A    
C6    H8    S    
C21   N2    A    
Cu2   O3    S    
C37   C39   A    
C23   C47   A    
C15   C54   S    
C34   C44   A    
C4    C6    A    
C52   F8    S    
C5    C7    A    
C6    C8    A    
C18   N1    A    
C45   C52   A    
C19   H19   S    
C25   C26   A    
C32   H21   S    
C10   C13   A    
C1    O3    A    
C38   H22   S    
C51   C53   A    
C2    C4    A    
C20   C49   S    
C30   F3    S    
C49   H10   S    
C17   O6    A    
C19   C28   A    
C9    C11   A    
C8    C51   A    
Cu1   O5    S    
C29   F1    S    
C13   C15   A    
C10   C14   A    
C3    F10   S    
C1    C13   S    
C42   C43   A    
C33   H1    S    
Cu2   O6    S    
C16   O5    A    
C27   C32   A    
C33   C44   A    
C26   C28   A    
C12   O2    A    
C28   C31   A    
C18   C27   A    
C20   C22   A    
C3    C5    A    
C2    C53   A    
C50   H14   S    
C7    H3    S    
C11   C12   S    
C25   C27   A    
C20   N1    A    
C16   C37   S    
C35   H12   S    
C8    H4    S    
C36   C38   A    
C9    C15   A    
C29   C31   A    
C19   N2    A    
C38   C40   A    
C48   F5    S    
Cu1   O8    S    
Cu2   N2    S    
C34   F7    S    
C11   C14   A    
C41   C48   A    
C49   H11   S    
C5    H7    S    
C2    C14   S    
C43   C46   A    
C24   C30   A    
Cu2   O2    S    
C34   C48   A    
Cu1   N1    S    
C51   H6    S    
C21   C24   A    
C4    F2    S    
C31   H20   S    
C35   C46   A    
C50   H15   S    
