data_mof_unit_4275.cif
_audit_creation_date              2012-12-11T17:41:43-0500
_audit_creation_method            fapswitch 2.2
_symmetry_space_group_name_H-M    P1
_symmetry_Int_Tables_number       1
_space_group_crystal_system       triclinic
_cell_length_a                    15.55098
_cell_length_b                    15.10501
_cell_length_c                    15.072101
_cell_angle_alpha                 109.561402
_cell_angle_beta                  121.624303
_cell_angle_gamma                 59.348671
_cell_volume                      2582.44289375

loop_
_atom_site_label
_atom_site_type_symbol
_atom_type_description
_atom_site_fract_x
_atom_site_fract_y
_atom_site_fract_z
_atom_type_partial_charge
C1    C     C_R   0.803719 0.937831 0.772917 -0.092031
C2    C     C_R   0.267835 0.411908 0.157417 -0.067717
C3    C     C_R   0.679541 0.808849 0.941696 -0.206740
C4    C     C_R   0.351621 0.324271 0.136315 -0.170785
C5    C     C_R   0.698362 0.897677 0.995745 -0.127242
C6    C     C_R   0.328184 0.243891 0.062538 -0.113849
C7    C     C_R   0.806391 0.892971 0.040053 0.575350
C8    C     C_R   0.217212 0.253252 0.007109 0.551981
C9    C     C_R   0.891875 0.800023 0.026405 -0.275110
C10   C     C_R   0.133584 0.342459 0.028707 -0.230595
C11   C     C_R   0.871093 0.713042 0.969895 -0.185990
C12   C     C_R   0.246677 0.005862 0.208930 -0.116556
C13   C     C_R   0.158901 0.421005 0.103627 -0.213714
C14   C     C_R   0.602293 0.007871 0.102236 -0.176125
C15   C     C_R   0.426187 0.142699 0.950523 -0.152220
C16   C     C_R   0.201599 0.274409 0.442476 -0.041305
C17   C     C_R   0.760592 0.711656 0.513227 -0.064669
C18   C     C_R   0.509001 0.082355 0.117804 0.006588
C19   C     C_R   0.513878 0.059385 0.930776 0.048653
C20   C     C_R   0.421184 0.153955 0.043324 0.076496
C21   C     C_R   0.604941 0.992792 0.009282 0.146346
C22   C     C_2   0.027805 0.349508 0.467458 -0.183707
C23   C     C_R   0.140077 0.274400 0.483286 0.144793
C24   C     C_2   0.857660 0.606363 0.394867 -0.205125
C25   C     C_2   0.970862 0.422745 0.402383 -0.098106
C26   C     C_2   0.880857 0.515938 0.416782 -0.037485
C27   C     C_2   0.983919 0.954924 0.843940 -0.174935
C28   C     C_2   0.160445 0.877527 0.099920 -0.116236
C29   C     C_R   0.356383 0.852662 0.755363 -0.112368
C30   C     C_R   0.720722 0.179914 0.366292 -0.121918
C31   C     C_R   0.421254 0.758688 0.717802 -0.102546
C32   C     C_R   0.633839 0.258348 0.390426 -0.073920
C33   C     C_R   0.371268 0.697405 0.634658 0.254995
C34   C     C_R   0.793905 0.702731 0.439822 0.153453
C35   C     C_R   0.655839 0.327693 0.479874 0.222458
C36   C     C_R   0.255477 0.731507 0.589208 -0.073202
C37   C     C_R   0.766234 0.314472 0.547211 -0.088407
C38   C     C_R   0.190944 0.825062 0.627599 -0.154129
C39   C     C_R   0.853094 0.234117 0.524413 -0.128443
C40   C     C_R   0.596356 0.227198 0.557371 -0.117778
C41   C     C_R   0.403311 0.780359 0.496430 -0.082694
C42   C     C_R   0.241364 0.885581 0.710629 -0.059511
C43   C     C_R   0.830258 0.167338 0.433564 -0.076239
C44   C     C_R   0.452525 0.504135 0.601442 0.525581
C45   C     C_R   0.506867 0.320684 0.540894 0.238635
C46   C     C_R   0.538367 0.513998 0.480634 0.543023
C47   C     C_R   0.514382 0.414923 0.555058 -0.232179
C48   C     C_R   0.487315 0.601733 0.535341 -0.237291
C49   C     C_R   0.564788 0.419007 0.501856 -0.232366
C50   C     C_R   0.439301 0.599658 0.591718 -0.235780
C51   C     C_2   0.044184 0.886149 0.914539 -0.081817
C52   C     C_2   0.140318 0.895838 0.008450 -0.096519
C53   C     C_R   0.409593 0.048042 0.732911 -0.149101
C54   C     C_R   0.593052 0.014778 0.287686 -0.159159
C55   C     C_R   0.410754 0.304991 0.474322 -0.088060
C56   C     C_R   0.492889 0.693456 0.538659 0.158306
C57   C     C_R   0.588686 0.704947 0.573995 -0.040293
C58   C     C_R   0.594567 0.982507 0.803862 -0.066126
C59   C     C_R   0.409175 0.086779 0.210108 -0.078216
C60   C     C_R   0.199657 0.184961 0.532962 -0.128690
C61   C     C_R   0.760184 0.801778 0.420304 -0.138433
C62   C     C_R   0.804166 0.029113 0.684164 -0.126187
C63   C     C_R   0.244907 0.914380 0.298044 -0.051847
C64   C     C_R   0.867287 0.976066 0.772156 0.148813
C65   C     C_R   0.217152 0.929103 0.198451 0.152765
C66   C     C_R   0.505172 0.037840 0.826494 0.070479
C67   C     C_R   0.502284 0.067266 0.203290 0.060047
C68   C     C_R   0.765076 0.717380 0.927759 -0.081830
H1    H     H_    0.832060 0.881000 0.821619 0.088963
H2    H     H_    0.435000 0.319464 0.175922 0.184576
H3    H     H_    0.975008 0.794562 0.059856 0.154828
H4    H     H_    0.048341 0.351495 0.987847 0.177776
H5    H     H_    0.669994 0.951573 0.157807 0.136328
H6    H     H_    0.359872 0.196791 0.892181 0.165029
H7    H     H_    0.847948 0.512418 0.462459 0.177759
H8    H     H_    0.000226 0.422168 0.350843 0.128578
H9    H     H_    0.894058 0.609647 0.351720 0.135552
H10   H     H_    0.996523 0.351347 0.518166 0.141927
H11   H     H_    0.191132 0.958072 0.739870 0.192077
H12   H     H_    0.235274 0.038356 0.147847 0.140126
H13   H     H_    0.897493 0.106166 0.415245 0.163596
H14   H     H_    0.175399 0.325386 0.388799 0.076946
H15   H     H_    0.775824 0.651253 0.549281 0.110109
H16   H     H_    0.395212 0.900128 0.818673 0.111709
H17   H     H_    0.703218 0.129483 0.294970 0.157453
H18   H     H_    0.510104 0.733729 0.752038 0.100449
H19   H     H_    0.549661 0.266280 0.339267 0.114602
H20   H     H_    0.215385 0.685966 0.523772 0.128568
H21   H     H_    0.784616 0.367405 0.616556 0.119781
H22   H     H_    0.101791 0.850947 0.592592 0.127026
H23   H     H_    0.121975 0.835525 0.101801 0.142130
H24   H     H_    0.937904 0.224576 0.576342 0.144944
H25   H     H_    0.683135 0.212384 0.601560 0.115669
H26   H     H_    0.317134 0.800363 0.472140 0.088678
H27   H     H_    0.324482 0.085656 0.721701 0.148673
H28   H     H_    0.679144 0.997463 0.315078 0.100651
H29   H     H_    0.326504 0.362696 0.440965 0.118488
H30   H     H_    0.672955 0.653998 0.620336 0.083082
H31   H     H_    0.680105 0.966512 0.855805 0.126303
H32   H     H_    0.323903 0.134313 0.163335 0.124990
H33   H     H_    0.168782 0.155048 0.560805 0.109853
H34   H     H_    0.016744 0.004704 0.846294 0.194457
H35   H     H_    0.773835 0.822568 0.368201 0.107876
H36   H     H_    0.835130 0.054655 0.652179 0.105626
H37   H     H_    0.230679 0.861307 0.316397 0.106134
H38   H     H_    0.178845 0.937172 0.005604 0.179511
H39   H     H_    0.012459 0.836161 0.913457 0.126914
H40   H     H_    0.742071 0.165757 0.129456 0.380142
H41   H     H_    0.328804 0.010056 0.945420 0.345515
H42   H     H_    0.355510 0.586851 0.803620 0.380996
H43   H     H_    0.578802 0.429289 0.242386 0.384821
H44   H     H_    0.937609 0.641861 0.959683 0.143909
H45   H     H_    0.093779 0.489261 0.119640 0.145396
H46   H     H_    0.749348 0.649587 0.885037 0.125803
H47   H     H_    0.287294 0.473196 0.214847 0.151208
H48   H     H_    0.598455 0.810824 0.911217 0.136208
N1    N     N_R   0.705410 0.966550 0.689210 -0.049671
N2    N     N_R   0.556610 0.796750 0.548620 -0.046741
N3    N     N_R   0.556610 0.951620 0.703500 -0.060520
N4    N     N_R   0.443390 0.048380 0.296500 -0.049281
N5    N     N_R   0.294590 0.131500 0.522480 -0.042682
N6    N     N_R   0.705410 0.868500 0.477520 -0.047620
N7    N     N_R   0.705410 0.023370 0.632390 -0.040970
N8    N     N_R   0.294590 0.976630 0.367610 -0.055864
N9    N     N_R   0.294590 0.033450 0.310790 -0.056874
N10   N     N_R   0.294590 0.188320 0.465660 -0.046533
N11   N     N_R   0.705410 0.811680 0.534340 -0.056626
N12   N     N_R   0.556610 0.157790 0.497330 -0.058557
N13   N     N_R   0.443390 0.842210 0.502670 -0.047495
N14   N     N_R   0.443390 0.997080 0.657540 -0.047762
N15   N     N_R   0.556610 0.002920 0.342460 -0.035231
N16   N     N_R   0.443390 0.203250 0.451380 -0.062422
Ni1   Ni    Ni4+2 0.629830 0.882720 0.617850 0.222116
Ni2   Ni    Ni4+2 0.370170 0.117280 0.382150 0.229085
Ni3   Ni    Ni4+2 0.629830 0.013030 0.487540 0.221874
Ni4   Ni    Ni4+2 0.370170 0.986970 0.512460 0.235151
O1    O     O_2   0.872351 0.997063 0.225827 -0.358359
O2    O     O_2   0.498142 0.626588 0.342952 -0.282797
O3    O     O_2   0.687876 0.499401 0.432418 -0.360457
O4    O     O_3   0.541443 0.433958 0.281553 -0.564312
O5    O     O_2   0.931098 0.995546 0.103025 -0.301664
O6    O     O_3   0.726433 0.112504 0.071101 -0.532723
O7    O     O_2   0.063856 0.175649 0.884376 -0.298113
O8    O     O_2   0.188287 0.150609 0.817435 -0.372645
O9    O     O_3   0.266713 0.039268 0.964313 -0.576601
O10   O     O_2   0.280842 0.507970 0.606506 -0.338543
O11   O     O_2   0.466185 0.391465 0.719676 -0.264576
O12   O     O_3   0.401815 0.587181 0.777277 -0.524357
S1    S     S_3+6 0.837453 0.000652 0.112923 -0.077726
S2    S     S_3+6 0.180862 0.154383 0.914207 -0.107512
S3    S     S_3+6 0.398873 0.494878 0.676387 -0.046420
S4    S     S_3+6 0.567322 0.521841 0.383650 -0.061782

loop_
_geom_bond_atom_site_label_1
_geom_bond_atom_site_label_2
_ccdc_geom_bond_type
N9    Ni2   S    
C46   S4    S    
C63   C65   A    
C59   N4    A    
C29   C42   A    
C53   H27   S    
N4    N15   A    
C14   C18   A    
O11   S3    D    
C3    C68   A    
O12   S3    S    
C40   H25   S    
N1    Ni1   S    
C33   C36   A    
C4    H2    S    
C63   N8    A    
O5    S1    D    
C47   C49   A    
C36   H20   S    
C15   C19   A    
C54   N15   A    
C46   C49   A    
N3    Ni1   S    
C14   C21   A    
C35   C37   A    
C24   C26   D    
C38   C42   A    
N15   Ni3   S    
C3    H48   S    
C57   H30   S    
C40   N12   A    
O3    S4    D    
N3    N14   A    
C56   C57   A    
C19   C66   S    
C7    C9    A    
N6    N11   A    
C2    C13   A    
O8    S2    D    
C59   C67   A    
C7    S1    S    
C58   C66   A    
O7    S2    D    
C22   C25   D    
C35   C49   S    
C62   C64   A    
C31   C33   A    
C63   H37   S    
O4    S4    S    
C54   H28   S    
O9    S2    S    
C44   C47   A    
C48   C50   A    
C52   H38   S    
C42   H11   S    
C31   H18   S    
C59   H32   S    
O1    S1    D    
C23   C60   A    
N14   Ni4   S    
H42   O12   S    
N12   N16   A    
H40   O6    S    
C62   N7    A    
C27   C51   D    
H43   O4    S    
C62   H36   S    
C45   C47   S    
C40   C45   A    
C37   C39   A    
C46   C48   A    
N8    N9    A    
C44   S3    S    
N8    Ni4   S    
C51   C52   S    
C14   H5    S    
N11   Ni1   S    
C22   H10   S    
C29   H16   S    
C4    C6    A    
N12   Ni3   S    
C5    C7    A    
C17   N11   A    
C39   C43   A    
C12   N9    A    
O2    S4    D    
C25   C26   S    
C32   H19   S    
C34   C61   A    
C24   C34   S    
N7    Ni3   S    
C15   C20   A    
C17   H15   S    
C8    S2    S    
C32   C35   A    
C41   C56   A    
C41   N13   A    
N13   Ni4   S    
C2    H47   S    
C41   H26   S    
C55   H29   S    
C16   H14   S    
C26   H7    S    
C1    N1    A    
C30   H17   S    
C53   C66   A    
C9    C11   A    
C45   C55   A    
N2    Ni1   S    
N16   Ni2   S    
C16   C23   A    
C43   H13   S    
C30   C43   A    
C17   C34   A    
C60   H33   S    
C1    C64   A    
C39   H24   S    
C11   C68   A    
O6    S1    S    
C44   C50   A    
C48   C56   S    
N4    Ni2   S    
C61   H35   S    
C11   H44   S    
C8    C10   A    
H41   O9    S    
C58   H31   S    
C9    H3    S    
C3    C5    A    
C10   C13   A    
C6    C8    A    
C54   C67   A    
C6    C20   S    
C12   C65   A    
C38   H22   S    
C27   H34   S    
C37   H21   S    
C25   H8    S    
C36   C38   A    
C28   C65   S    
C33   C50   S    
N5    N10   A    
C29   C31   A    
N2    N13   A    
C30   C32   A    
C28   C52   D    
C2    C4    A    
C12   H12   S    
C58   N3    A    
C28   H23   S    
C18   C20   A    
N5    Ni4   S    
N1    N7    A    
C60   N5    A    
C1    H1    S    
N6    Ni3   S    
C27   C64   S    
O10   S3    D    
C24   H9    S    
C15   H6    S    
C5    C21   S    
N10   Ni2   S    
C51   H39   S    
C55   N16   A    
C18   C67   S    
C22   C23   S    
C61   N6    A    
C53   N14   A    
C16   N10   A    
C13   H45   S    
C68   H46   S    
C57   N2    A    
C19   C21   A    
C10   H4    S    
