data_mof_unit_769.cif
_audit_creation_date              2012-10-26T20:07:13-0400
_audit_creation_method            fapswitch 2.2
_symmetry_space_group_name_H-M    P1
_symmetry_Int_Tables_number       1
_space_group_crystal_system       triclinic
_cell_length_a                    10.826099
_cell_length_b                    9.509129
_cell_length_c                    27.82092
_cell_angle_alpha                 90.024406
_cell_angle_beta                  90.138995
_cell_angle_gamma                 89.969089
_cell_volume                      2864.06480418

loop_
_atom_site_label
_atom_site_type_symbol
_atom_type_description
_atom_site_fract_x
_atom_site_fract_y
_atom_site_fract_z
_atom_type_partial_charge
C1    C     C_R   0.262037 0.500022 0.499969 0.554517
C2    C     C_R   0.385144 0.488878 0.872242 0.024474
C3    C     C_R   0.499997 0.499892 0.354463 0.005213
C4    C     C_R   0.500039 0.500236 0.645524 0.005849
C5    C     C_R   0.386471 0.482062 0.974562 -0.026073
C6    C     C_R   0.610869 0.530626 0.025261 -0.026415
C7    C     C_R   0.611187 0.523294 0.974240 0.032071
C8    C     C_R   0.389019 0.472835 0.025594 0.033415
C9    C     C_R   0.498175 0.503144 0.949081 0.024034
C10   C     C_R   0.500793 0.500974 0.050753 0.025134
C11   C     C_R   0.275332 0.472358 0.948041 -0.125721
C12   C     C_R   0.737963 0.499978 0.500032 0.554553
C13   C     C_R   0.717196 0.568629 0.051706 -0.129000
C14   C     C_R   0.273446 0.478496 0.897905 0.278753
C15   C     C_R   0.719465 0.566743 0.101900 0.278950
C16   C     C_R   0.499935 0.499970 0.407408 0.554491
C17   C     C_R   0.500075 0.500040 0.592588 0.554358
C18   C     C_R   0.283404 0.435476 0.052553 -0.140046
C19   C     C_R   0.721537 0.533124 0.947346 -0.138149
C20   C     C_R   0.063935 0.372194 0.499968 -0.132302
C21   C     C_R   0.936065 0.627806 0.500034 -0.132307
C22   C     C_R   0.936196 0.372169 0.500020 -0.132303
C23   C     C_R   0.502107 0.500325 0.101895 -0.072941
C24   C     C_R   0.063803 0.627831 0.499982 -0.132350
C25   C     C_R   0.871785 0.499974 0.500039 0.023062
C26   C     C_R   0.128215 0.500026 0.499962 0.023046
C27   C     C_R   0.422862 0.074462 0.470231 0.011611
C28   C     C_R   0.577138 0.925537 0.529769 0.011703
C29   C     C_R   0.577141 0.074441 0.529767 0.011573
C30   C     C_R   0.422860 0.925559 0.470232 0.011651
C31   C     C_R   0.395647 0.466633 0.177823 0.397954
C32   C     C_R   0.607313 0.516251 0.822043 0.398084
C33   C     C_R   0.608091 0.532689 0.178325 0.412663
C34   C     C_R   0.497242 0.503162 0.897938 -0.074173
C35   C     C_R   0.388545 0.487575 0.821484 0.410481
C36   C     C_R   0.507301 0.626961 0.278814 -0.055101
C37   C     C_R   0.487773 0.373993 0.721237 -0.054365
C38   C     C_R   0.506708 0.627229 0.328933 -0.141558
C39   C     C_R   0.488511 0.373439 0.671111 -0.141103
C40   C     C_R   0.493508 0.372472 0.328918 -0.141397
C41   C     C_R   0.511338 0.627341 0.671007 -0.140410
C42   C     C_R   0.493775 0.372561 0.278796 -0.056332
C43   C     C_R   0.511163 0.627468 0.721124 -0.058316
C44   C     C_R   0.500828 0.499714 0.253608 0.238823
C45   C     C_R   0.393825 0.466515 0.127455 0.031302
C46   C     C_R   0.499166 0.500922 0.746325 0.241527
C47   C     C_3   0.101246 0.597832 0.875323 -0.075796
C48   C     C_3   0.914332 0.500210 0.122651 -0.072751
C49   C     C_R   0.608910 0.517244 0.872412 0.028837
C50   C     C_R   0.285995 0.432702 0.102387 -0.109627
C51   C     C_R   0.720059 0.530531 0.897516 -0.103725
C52   C     C_R   0.611185 0.533588 0.127562 0.027485
Cu1   Cu    Cu3+1 0.500000 0.640660 0.500000 0.944140
Cu2   Cu    Cu3+1 0.500000 0.359340 0.500000 0.943997
H1    H     H_    0.488107 0.272779 0.347600 0.128901
H2    H     H_    0.807153 0.538464 0.878684 0.156790
H3    H     H_    0.479552 0.273973 0.652453 0.130284
H4    H     H_    0.511785 0.726990 0.347624 0.130522
H5    H     H_    0.478579 0.275885 0.740645 0.128447
H6    H     H_    0.512508 0.725605 0.259494 0.132295
H7    H     H_    0.186542 0.463324 0.965087 0.117124
H8    H     H_    0.800218 0.605019 0.034477 0.120042
H9    H     H_    0.197265 0.404471 0.036300 0.100856
H10   H     H_    0.811665 0.538980 0.963723 0.100716
H11   H     H_    0.112052 0.272279 0.499938 0.129994
H12   H     H_    0.520619 0.726582 0.652277 0.127882
H13   H     H_    0.887948 0.727721 0.500064 0.130024
H14   H     H_    0.888182 0.272248 0.500039 0.130009
H15   H     H_    0.111817 0.727752 0.499963 0.129995
H16   H     H_    0.018920 0.592479 0.851613 0.169963
H17   H     H_    0.161375 0.683581 0.861337 0.132037
H18   H     H_    0.068859 0.623387 0.912216 0.085983
H19   H     H_    0.877263 0.398897 0.136596 0.135148
H20   H     H_    0.994708 0.529222 0.145377 0.173260
H21   H     H_    0.948449 0.486850 0.085253 0.081589
H22   H     H_    0.361106 0.130664 0.446393 0.109228
H23   H     H_    0.638894 0.869335 0.553607 0.108726
H24   H     H_    0.638906 0.130627 0.553601 0.110155
H25   H     H_    0.361098 0.869372 0.446397 0.109760
H26   H     H_    0.488941 0.273848 0.259463 0.130216
H27   H     H_    0.519924 0.725858 0.740441 0.124826
H28   H     H_    0.202403 0.403604 0.121249 0.147633
N1    N     N_R   0.501533 0.499647 0.202060 -0.409812
N2    N     N_R   0.498347 0.501417 0.797818 -0.410955
N3    N     N_R   0.500000 0.852070 0.500000 -0.225165
N4    N     N_R   0.500000 0.147930 0.500000 -0.225344
O1    O     O_R   0.319640 0.618740 0.500000 -0.507639
O2    O     O_2   0.713898 0.529322 0.797361 -0.491354
O3    O     O_2   0.283549 0.472934 0.795757 -0.430863
O4    O     O_2   0.710490 0.563297 0.203994 -0.433510
O5    O     O_3   0.161426 0.466240 0.874245 -0.511443
O6    O     O_3   0.825809 0.608843 0.125595 -0.510810
O7    O     O_R   0.680360 0.381260 0.500000 -0.507632
O8    O     O_R   0.680360 0.618740 0.500000 -0.508082
O9    O     O_R   0.319640 0.381260 0.500000 -0.508138
O10   O     O_R   0.500020 0.618770 0.430260 -0.503974
O11   O     O_R   0.499980 0.381230 0.569740 -0.504021
O12   O     O_R   0.499980 0.618770 0.569740 -0.503636
O13   O     O_R   0.500020 0.381230 0.430260 -0.503698
O14   O     O_2   0.292046 0.435199 0.202492 -0.497818

loop_
_geom_bond_atom_site_label_1
_geom_bond_atom_site_label_2
_ccdc_geom_bond_type
C2    C35   A    
C1    O1    A    
C42   H26   S    
C23   C45   A    
C44   N1    S    
Cu1   Cu2   S    
C33   C52   A    
C18   C50   A    
C28   C29   A    
C24   C26   A    
C5    C11   A    
C11   C14   A    
C18   H9    S    
C32   C49   A    
C4    C41   A    
C32   O2    S    
C31   N1    A    
C51   H2    S    
Cu2   O7    S    
C15   O6    S    
C38   H4    S    
C13   H8    S    
C3    C38   A    
C49   C51   A    
C22   C25   A    
Cu2   O11   S    
C17   O12   A    
C2    C34   A    
C40   C42   A    
C21   H13   S    
C27   C30   A    
C41   C43   A    
C48   H21   S    
C12   O8    A    
C42   C44   A    
C2    C14   A    
C24   H15   S    
C6    C7    A    
C32   N2    A    
C16   O10   A    
C29   H24   S    
C48   H20   S    
C20   H11   S    
Cu2   N4    S    
C11   H7    S    
C31   O14   S    
C8    C18   A    
C27   N4    A    
C47   H16   S    
C5    C9    A    
C4    C39   A    
C19   H10   S    
C1    O9    A    
C40   H1    S    
C22   H14   S    
Cu2   O9    S    
Cu1   O1    S    
C15   C52   A    
C30   N3    A    
C28   H23   S    
C33   N1    A    
C47   H17   S    
C29   N4    A    
C37   H5    S    
C46   N2    S    
C30   H25   S    
C35   O3    S    
C20   C22   A    
C3    C40   A    
C7    C19   A    
C13   C15   A    
C31   C45   A    
C9    C34   A    
Cu1   O12   S    
C12   O7    A    
C36   C44   A    
C4    C17   S    
C27   H22   S    
C50   H28   S    
C7    C9    A    
C21   C25   A    
C34   C49   A    
Cu1   O8    S    
C47   O5    S    
C48   H19   S    
C36   H6    S    
C6    C10   A    
C5    C8    A    
C35   N2    A    
C16   O13   A    
C41   H12   S    
C10   C23   A    
C12   C25   S    
C36   C38   A    
C37   C39   A    
C33   O4    S    
C6    C13   A    
C23   C52   A    
C1    C26   S    
C20   C26   A    
C45   C50   A    
C43   H27   S    
Cu2   O13   S    
C43   C46   A    
C14   O5    S    
C19   C51   A    
C47   H18   S    
C8    C10   A    
C48   O6    S    
C21   C24   A    
C28   N3    A    
Cu1   N3    S    
C37   C46   A    
C17   O11   A    
C3    C16   S    
Cu1   O10   S    
C39   H3    S    
