data_mof_unit_2626.cif
_audit_creation_date              2012-12-10T18:47:46-0500
_audit_creation_method            fapswitch 2.2
_symmetry_space_group_name_H-M    P1
_symmetry_Int_Tables_number       1
_space_group_crystal_system       triclinic
_cell_length_a                    9.866516
_cell_length_b                    10.717684
_cell_length_c                    15.559384
_cell_angle_alpha                 90.418297
_cell_angle_beta                  66.329653
_cell_angle_gamma                 89.704005
_cell_volume                      1506.82456843

loop_
_atom_site_label
_atom_site_type_symbol
_atom_type_description
_atom_site_fract_x
_atom_site_fract_y
_atom_site_fract_z
_atom_type_partial_charge
Br1   Br    Br    0.927392 0.623787 0.217392 -0.485016
Br2   Br    Br    0.072608 0.376213 0.782608 -0.485016
Br3   Br    Br    0.935441 0.318296 0.350506 -0.497442
Br4   Br    Br    0.064559 0.681704 0.649494 -0.497442
C1    C     C_R   0.499715 0.740062 0.500189 0.885636
C2    C     C_R   0.387742 0.936473 0.484933 -0.145158
C3    C     C_R   0.500452 0.127452 0.499695 -0.024585
C4    C     C_R   0.499547 0.872548 0.500305 -0.024585
C5    C     C_R   0.968384 0.425404 0.438786 0.347280
C6    C     C_R   0.031616 0.574596 0.561214 0.347280
C7    C     C_R   0.111553 0.425608 0.439125 -0.158507
C8    C     C_R   0.888447 0.574392 0.560875 -0.158508
C9    C     C_R   0.406208 0.498721 0.676545 0.912469
C10   C     C_R   0.593792 0.501279 0.323454 0.912469
C11   C     C_R   0.344929 0.491951 0.779108 -0.122132
C12   C     C_R   0.500285 0.259938 0.499811 0.885636
C13   C     C_R   0.655071 0.508049 0.220891 -0.122132
C14   C     C_R   0.170512 0.418164 0.929084 -0.239976
C15   C     C_R   0.829488 0.581836 0.070916 -0.239976
C16   C     C_R   0.208063 0.436706 0.833634 0.277388
C17   C     C_R   0.791937 0.563293 0.166366 0.277388
C18   C     C_R   0.438204 0.530296 0.821666 -0.283555
C19   C     C_R   0.561796 0.469704 0.178334 -0.283555
C20   C     C_R   0.410572 0.498782 0.914097 0.105802
C21   C     C_R   0.589428 0.501218 0.085903 0.105802
C22   C     C_R   0.271660 0.445868 0.968991 0.100757
C23   C     C_R   0.337210 0.440226 0.102078 -0.174234
C24   C     C_R   0.728340 0.554131 0.031009 0.100757
C25   C     C_R   0.518345 0.515714 0.952359 0.066823
C26   C     C_R   0.481655 0.484286 0.047641 0.066823
C27   C     C_R   0.662790 0.559774 0.897922 -0.174234
C28   C     C_R   0.235661 0.419533 0.062782 -0.144892
C29   C     C_R   0.764339 0.580467 0.937218 -0.144892
C30   C     C_R   0.611764 0.935728 0.515432 -0.166943
C31   C     C_R   0.388236 0.064272 0.484568 -0.166942
C32   C     C_R   0.612257 0.063526 0.515067 -0.145158
H1    H     H_    0.065009 0.376281 0.971152 0.180170
H2    H     H_    0.871947 0.617740 0.893728 0.193194
H3    H     H_    0.464887 0.418353 0.220693 0.160374
H4    H     H_    0.535113 0.581647 0.779307 0.160374
H5    H     H_    0.698436 0.886849 0.527956 0.169920
H6    H     H_    0.301564 0.113151 0.472044 0.169920
H7    H     H_    0.934991 0.623719 0.028848 0.180170
H8    H     H_    0.297374 0.420804 0.175842 0.166442
H9    H     H_    0.702626 0.579196 0.824158 0.166442
H10   H     H_    0.699157 0.111830 0.527345 0.181803
H11   H     H_    0.300843 0.888170 0.472655 0.181803
H12   H     H_    0.197645 0.366137 0.390562 0.161423
H13   H     H_    0.802355 0.633862 0.609438 0.161423
H14   H     H_    0.128053 0.382260 0.106272 0.193194
N1    N     N_R   0.142780 0.500030 0.500020 -0.108802
N2    N     N_R   0.857220 0.499970 0.499980 -0.108802
O1    O     O_R   0.385370 0.683250 0.500010 -0.591672
O2    O     O_R   0.614630 0.316750 0.499990 -0.591672
O3    O     O_R   0.614700 0.683220 0.500000 -0.620915
O4    O     O_R   0.385300 0.316780 0.500000 -0.620915
O5    O     O_R   0.319830 0.500020 0.632250 -0.533682
O6    O     O_R   0.680170 0.499980 0.367750 -0.533682
O7    O     O_R   0.549160 0.499990 0.632240 -0.632853
O8    O     O_R   0.450840 0.500010 0.367760 -0.632853
Zn1   Zn    Zn3+2 0.346870 0.500020 0.500000 1.020884
Zn2   Zn    Zn3+2 0.653130 0.499980 0.500000 1.020884

loop_
_geom_bond_atom_site_label_1
_geom_bond_atom_site_label_2
_ccdc_geom_bond_type
O6    Zn2   S    
C1    C4    S    
C2    C4    A    
C12   O4    A    
Br1   C17   S    
C25   C26   A    
Br3   C5    S    
C10   O8    A    
C3    C32   A    
C30   C32   A    
C29   H2    S    
C14   C22   A    
C18   H4    S    
C12   O2    A    
C27   C29   A    
C8    H13   S    
C25   C27   A    
C4    C30   A    
C23   C26   A    
C22   C28   A    
C32   H10   S    
C5    C7    A    
C10   C13   S    
C28   H14   S    
C7    H12   S    
C13   C19   A    
C30   H5    S    
C6    C8    A    
C9    O7    A    
C6    N1    A    
C18   C20   A    
C1    O1    A    
C3    C12   S    
C15   C17   A    
C14   H1    S    
C15   H7    S    
C24   C29   A    
C5    N2    A    
C14   C16   A    
C9    C11   S    
C15   C24   A    
C11   C16   A    
C10   O6    A    
C19   H3    S    
C9    O5    A    
C2    H11   S    
Br2   C16   S    
O3    Zn2   S    
C19   C21   A    
C7    N1    A    
C2    C31   A    
O1    Zn1   S    
C27   H9    S    
C21   C26   A    
C31   H6    S    
O4    Zn1   S    
O7    Zn2   S    
N2    Zn2   S    
O2    Zn2   S    
C8    N2    A    
C23   C28   A    
C20   C25   A    
C3    C31   A    
C23   H8    S    
C1    O3    A    
C11   C18   A    
C13   C17   A    
O5    Zn1   S    
Br4   C6    S    
C20   C22   A    
O8    Zn1   S    
C21   C24   A    
N1    Zn1   S    
