data_mof_unit_3342.cif
_audit_creation_date              2012-12-10T19:58:04-0500
_audit_creation_method            fapswitch 2.2
_symmetry_space_group_name_H-M    P1
_symmetry_Int_Tables_number       1
_space_group_crystal_system       triclinic
_cell_length_a                    21.317852
_cell_length_b                    20.969629
_cell_length_c                    14.218164
_cell_angle_alpha                 89.930477
_cell_angle_beta                  90.024733
_cell_angle_gamma                 90.09401
_cell_volume                      6355.8957399

loop_
_atom_site_label
_atom_site_type_symbol
_atom_type_description
_atom_site_fract_x
_atom_site_fract_y
_atom_site_fract_z
_atom_type_partial_charge
C1    C     C_R   0.086012 0.413868 0.500043 0.929418
C2    C     C_R   0.914226 0.586425 0.499805 0.925358
C3    C     C_R   0.913769 0.414121 0.499946 0.918337
C4    C     C_R   0.086212 0.585842 0.499906 0.914524
C5    C     C_R   0.586667 0.914441 0.499931 0.929361
C6    C     C_R   0.414098 0.086181 0.499940 0.926366
C7    C     C_R   0.413890 0.914027 0.499960 0.917452
C8    C     C_R   0.586167 0.085853 0.499889 0.915503
C9    C     C_R   0.820202 0.271854 0.568609 0.545164
C10   C     C_R   0.181844 0.726717 0.567259 0.545521
C11   C     C_R   0.229022 0.675389 0.428733 0.550249
C12   C     C_R   0.775441 0.318893 0.424803 0.547088
C13   C     C_R   0.224825 0.319524 0.427935 0.542255
C14   C     C_R   0.831343 0.735424 0.565150 0.548185
C15   C     C_R   0.783953 0.691631 0.422131 0.535741
C16   C     C_R   0.181944 0.274195 0.573697 0.536233
C17   C     C_R   0.322381 0.770286 0.567871 0.546789
C18   C     C_R   0.679774 0.228483 0.565174 0.546957
C19   C     C_R   0.728654 0.175872 0.429013 0.549617
C20   C     C_R   0.275658 0.818311 0.426168 0.546581
C21   C     C_R   0.731800 0.830244 0.423536 0.552982
C22   C     C_R   0.321649 0.228751 0.569923 0.538545
C23   C     C_R   0.273878 0.179343 0.430747 0.542768
C24   C     C_R   0.695630 0.785695 0.573774 0.522127
C25   C     C_R   0.866700 0.318608 0.567840 -0.334820
C26   C     C_R   0.133921 0.681517 0.565674 -0.336383
C27   C     C_R   0.182424 0.628740 0.432123 -0.359745
C28   C     C_R   0.820252 0.367242 0.429117 -0.360241
C29   C     C_R   0.177016 0.364062 0.426377 -0.290779
C30   C     C_R   0.871530 0.683725 0.569010 -0.288133
C31   C     C_R   0.827135 0.642273 0.423935 -0.297546
C32   C     C_R   0.136805 0.322263 0.574225 -0.328778
C33   C     C_R   0.368545 0.817394 0.566835 -0.335342
C34   C     C_R   0.632350 0.182732 0.563992 -0.337956
C35   C     C_R   0.682519 0.128778 0.432862 -0.359722
C36   C     C_R   0.320164 0.866953 0.430299 -0.359919
C37   C     C_R   0.680013 0.870800 0.423406 -0.313584
C38   C     C_R   0.366457 0.180404 0.570756 -0.318170
C39   C     C_R   0.321388 0.134466 0.428934 -0.291805
C40   C     C_R   0.647087 0.829415 0.575328 -0.300462
C41   C     C_R   0.865870 0.366147 0.499401 -0.153960
C42   C     C_R   0.135028 0.632743 0.499382 -0.153077
C43   C     C_R   0.133935 0.365932 0.500121 -0.170493
C44   C     C_R   0.869463 0.637499 0.498593 -0.185301
C45   C     C_R   0.366474 0.865622 0.499500 -0.152696
C46   C     C_R   0.634603 0.133090 0.499218 -0.151577
C47   C     C_R   0.638314 0.870429 0.499314 -0.178503
C48   C     C_R   0.366629 0.134464 0.499783 -0.169830
C49   C     C_R   0.985174 0.444186 0.105695 0.282313
C50   C     C_R   0.972394 0.549067 0.895804 0.240603
C51   C     C_R   0.019878 0.555328 0.105800 0.306693
C52   C     C_R   0.028515 0.449046 0.894253 0.294232
C53   C     C_R   0.483482 0.944291 0.105863 0.278550
C54   C     C_R   0.470214 0.049068 0.895058 0.273297
C55   C     C_R   0.518108 0.055416 0.105416 0.309361
C56   C     C_R   0.528047 0.950047 0.895302 0.269279
C57   C     C_R   0.775521 0.272451 0.496034 -0.005576
C58   C     C_R   0.228325 0.723380 0.497474 -0.006338
C59   C     C_R   0.226389 0.274402 0.500871 -0.045060
C60   C     C_R   0.786067 0.738065 0.493466 -0.068074
C61   C     C_R   0.276834 0.771248 0.496519 -0.006192
C62   C     C_R   0.726935 0.224675 0.496472 -0.006716
C63   C     C_R   0.737687 0.786191 0.497478 -0.070452
C64   C     C_R   0.274823 0.226603 0.500578 -0.046911
C65   C     C_R   0.990040 0.444194 0.205477 0.420513
C66   C     C_R   0.978973 0.551784 0.796721 0.424327
C67   C     C_R   0.011029 0.555669 0.205247 0.415801
C68   C     C_R   0.020510 0.447307 0.795258 0.413251
C69   C     C_R   0.489417 0.944241 0.205571 0.420280
C70   C     C_R   0.477990 0.051643 0.796121 0.414058
C71   C     C_R   0.510607 0.055711 0.205061 0.415783
C72   C     C_R   0.521996 0.948217 0.796117 0.421697
C73   C     C_R   0.002960 0.499472 0.053887 -0.140295
C74   C     C_R   0.001029 0.499006 0.946961 -0.179997
C75   C     C_R   0.500140 0.999879 0.053904 -0.147791
C76   C     C_R   0.498703 0.999315 0.947071 -0.183315
H1    H     H_    0.904150 0.317474 0.618824 0.159553
H2    H     H_    0.095124 0.684925 0.614133 0.155763
H3    H     H_    0.183262 0.588928 0.383737 0.159958
H4    H     H_    0.819436 0.406048 0.378868 0.162631
H5    H     H_    0.174715 0.398137 0.369088 0.179706
H6    H     H_    0.905330 0.680859 0.625456 0.217306
H7    H     H_    0.826745 0.607182 0.368008 0.183437
H8    H     H_    0.103623 0.325358 0.631292 0.213441
H9    H     H_    0.406689 0.816033 0.616724 0.156429
H10   H     H_    0.593067 0.186330 0.611537 0.155336
H11   H     H_    0.684108 0.088385 0.385572 0.157928
H12   H     H_    0.318577 0.906182 0.380805 0.162128
H13   H     H_    0.672444 0.902899 0.364822 0.176244
H14   H     H_    0.401440 0.178822 0.625577 0.209055
H15   H     H_    0.321757 0.098629 0.374049 0.177827
H16   H     H_    0.615528 0.829985 0.634838 0.223091
N1    N     N_R   0.000000 0.500000 0.252470 -0.215825
N2    N     N_R   0.000000 0.500000 0.747530 -0.211437
N3    N     N_R   0.500000 0.000000 0.252470 -0.216216
N4    N     N_R   0.500000 0.000000 0.747530 -0.213089
O1    O     O_R   0.065470 0.434530 0.579480 -0.568472
O2    O     O_R   0.934530 0.565470 0.420520 -0.586903
O3    O     O_R   0.934530 0.565470 0.579480 -0.567423
O4    O     O_R   0.065470 0.434530 0.420520 -0.589697
O5    O     O_R   0.934530 0.434530 0.420520 -0.601290
O6    O     O_R   0.065470 0.565470 0.579480 -0.615553
O7    O     O_R   0.065470 0.565470 0.420520 -0.608910
O8    O     O_R   0.934530 0.434530 0.579480 -0.610602
O9    O     O_R   0.565470 0.934530 0.579480 -0.564696
O10   O     O_R   0.434530 0.065470 0.420520 -0.586989
O11   O     O_R   0.434530 0.065470 0.579480 -0.567630
O12   O     O_R   0.565470 0.934530 0.420520 -0.591600
O13   O     O_R   0.434530 0.934530 0.420520 -0.600078
O14   O     O_R   0.565470 0.065470 0.579480 -0.613013
O15   O     O_R   0.565470 0.065470 0.420520 -0.609774
O16   O     O_R   0.434530 0.934530 0.579480 -0.616682
Zn1   Zn    Zn3+2 0.000000 0.500000 0.606140 1.005546
Zn2   Zn    Zn3+2 0.000000 0.500000 0.393860 1.005794
Zn3   Zn    Zn3+2 0.500000 0.000000 0.606140 1.005147
Zn4   Zn    Zn3+2 0.500000 0.000000 0.393860 1.003949
O17   O     O_3   0.966751 0.388800 0.060111 -0.564544
C77   C     C_3   0.904208 0.395360 0.027728 0.093111
H17   H     H_    0.902049 0.428323 0.966724 0.129489
H18   H     H_    0.872659 0.413662 0.084046 0.093174
C78   C     C_3   0.879791 0.330418 0.995124 -0.313235
H19   H     H_    0.910847 0.311545 0.938989 0.220522
H20   H     H_    0.880213 0.296226 0.054794 0.206968
C79   C     C_3   0.813015 0.335274 0.957067 -1.030093
H21   H     H_    0.780899 0.353366 0.012430 0.267626
H22   H     H_    0.796551 0.287370 0.934686 0.261057
H23   H     H_    0.811551 0.367818 0.895388 0.264834
O18   O     O_3   0.942440 0.598548 0.941529 -0.564021
C80   C     C_3   0.880567 0.579695 0.963195 0.123132
H24   H     H_    0.880405 0.537172 0.010105 0.103125
H25   H     H_    0.853964 0.568749 0.897619 0.139033
C81   C     C_3   0.848004 0.634236 0.014795 -0.281932
H26   H     H_    0.875202 0.646467 0.079072 0.249635
H27   H     H_    0.846501 0.676959 0.968481 0.237282
C82   C     C_3   0.781277 0.616129 0.043163 -0.957292
H28   H     H_    0.752898 0.604569 0.979878 0.263709
H29   H     H_    0.759018 0.656770 0.080326 0.288612
H30   H     H_    0.781846 0.574279 0.091154 0.257406
O19   O     O_3   0.036050 0.612439 0.061923 -0.578632
C83   C     C_3   0.093006 0.608100 0.010238 0.136331
H31   H     H_    0.095468 0.650679 0.963819 0.150096
H32   H     H_    0.094872 0.566846 0.962368 0.115474
C84   C     C_3   0.151335 0.608308 0.073359 -0.445472
H33   H     H_    0.153190 0.653486 0.113712 0.211936
H34   H     H_    0.149530 0.567328 0.122881 0.206026
C85   C     C_3   0.211265 0.603383 0.015125 -0.960623
H35   H     H_    0.211588 0.558287 0.974286 0.261878
H36   H     H_    0.252646 0.603818 0.062568 0.263984
H37   H     H_    0.215003 0.644422 0.965927 0.259047
O20   O     O_3   0.058718 0.398904 0.938574 -0.567672
C86   C     C_3   0.122734 0.413829 0.952959 0.104625
H38   H     H_    0.138856 0.385537 0.014469 0.184243
H39   H     H_    0.130808 0.464680 0.971632 0.100434
C87   C     C_3   0.162222 0.395074 0.867152 -0.331573
H40   H     H_    0.150673 0.345384 0.846034 0.260034
H41   H     H_    0.151391 0.427372 0.807380 0.230549
C88   C     C_3   0.232272 0.399551 0.888168 -0.929866
H42   H     H_    0.245076 0.449046 0.908288 0.252759
H43   H     H_    0.259349 0.386148 0.824485 0.287276
H44   H     H_    0.245070 0.366508 0.946176 0.273418
O21   O     O_3   0.466517 0.888349 0.060402 -0.567892
C89   C     C_3   0.404178 0.893392 0.026639 0.095512
H45   H     H_    0.402017 0.925652 0.964884 0.136001
H46   H     H_    0.371773 0.911505 0.082000 0.095331
C90   C     C_3   0.381326 0.827761 0.994514 -0.317281
H47   H     H_    0.413047 0.809363 0.938837 0.220250
H48   H     H_    0.382221 0.793853 0.054518 0.207777
C91   C     C_3   0.314616 0.830973 0.955770 -1.027483
H49   H     H_    0.281860 0.848461 0.010713 0.267485
H50   H     H_    0.299316 0.782647 0.933513 0.260975
H51   H     H_    0.312680 0.863338 0.893914 0.266156
O22   O     O_3   0.439968 0.098965 0.939715 -0.568006
C92   C     C_3   0.378218 0.080691 0.964323 0.125955
H52   H     H_    0.362345 0.113314 0.020992 0.181298
H53   H     H_    0.375667 0.031735 0.994325 0.088245
C93   C     C_3   0.333466 0.087540 0.880341 -0.333402
H54   H     H_    0.337285 0.136530 0.850888 0.264363
H55   H     H_    0.346443 0.052945 0.824566 0.219331
C94   C     C_3   0.265659 0.075002 0.909284 -0.949451
H56   H     H_    0.260705 0.025847 0.937616 0.256759
H57   H     H_    0.234553 0.080064 0.847057 0.277661
H58   H     H_    0.250686 0.109821 0.963609 0.273794
O23   O     O_3   0.535506 0.111950 0.061014 -0.576734
C95   C     C_3   0.592926 0.106130 0.010638 0.129644
H59   H     H_    0.598002 0.149671 0.966700 0.150405
H60   H     H_    0.593256 0.066141 0.960292 0.112294
C96   C     C_3   0.650634 0.101789 0.074936 -0.452457
H61   H     H_    0.655407 0.146659 0.115507 0.211961
H62   H     H_    0.645627 0.061012 0.124322 0.202714
C97   C     C_3   0.710547 0.092404 0.017894 -0.962173
H63   H     H_    0.708181 0.047161 0.977482 0.262549
H64   H     H_    0.751445 0.090140 0.066166 0.264241
H65   H     H_    0.717459 0.132865 0.968431 0.261277
O24   O     O_3   0.559823 0.901249 0.940242 -0.562477
C98   C     C_3   0.621056 0.922091 0.962251 0.110345
H66   H     H_    0.619658 0.962939 0.011925 0.128010
H67   H     H_    0.646810 0.936291 0.897244 0.137817
C99   C     C_3   0.656394 0.867713 0.010148 -0.288801
H68   H     H_    0.629633 0.851547 0.072946 0.246574
H69   H     H_    0.660600 0.826943 0.960660 0.235956
C100  C     C_3   0.721794 0.888768 0.041100 -0.954917
H70   H     H_    0.749758 0.904453 0.979332 0.269088
H71   H     H_    0.746250 0.848240 0.075476 0.287500
H72   H     H_    0.718490 0.928649 0.092250 0.257465
O25   O     O_3   0.819544 0.221984 0.633458 -0.600444
C101  C     C_3   0.831899 0.243620 0.725702 -0.318010
H73   H     H_    0.808735 0.290027 0.741239 0.173698
H74   H     H_    0.883227 0.246759 0.738161 0.156048
H75   H     H_    0.812872 0.208125 0.776120 0.186058
O26   O     O_3   0.182088 0.777855 0.629678 -0.598775
C102  C     C_3   0.168492 0.757962 0.722447 -0.322985
H76   H     H_    0.191303 0.711793 0.740768 0.164766
H77   H     H_    0.117002 0.755168 0.733479 0.154439
H78   H     H_    0.186988 0.794338 0.771841 0.190496
O27   O     O_3   0.278687 0.672827 0.365328 -0.600590
C103  C     C_3   0.257297 0.660735 0.273005 -0.323169
H79   H     H_    0.213691 0.687576 0.255907 0.159834
H80   H     H_    0.250326 0.608804 0.261831 0.166684
H81   H     H_    0.293934 0.676703 0.222817 0.186855
O28   O     O_3   0.727663 0.318606 0.358050 -0.599419
C104  C     C_3   0.751566 0.328770 0.266559 -0.329483
H82   H     H_    0.796063 0.302327 0.253847 0.159581
H83   H     H_    0.758004 0.380495 0.252744 0.158906
H84   H     H_    0.716677 0.310902 0.214992 0.186120
O29   O     O_3   0.268267 0.317868 0.355795 -0.569109
C105  C     C_3   0.315357 0.363306 0.374950 -0.312868
H85   H     H_    0.339080 0.353330 0.443187 0.159764
H86   H     H_    0.296089 0.412604 0.374408 0.158490
H87   H     H_    0.351431 0.360501 0.318920 0.203449
O30   O     O_3   0.833882 0.781368 0.634670 -0.559236
C106  C     C_3   0.877670 0.828213 0.607142 -0.311522
H88   H     H_    0.863634 0.851416 0.539863 0.160790
H89   H     H_    0.925695 0.807834 0.601074 0.155555
H90   H     H_    0.879165 0.865768 0.661970 0.200189
O31   O     O_3   0.742940 0.696945 0.347095 -0.557723
C107  C     C_3   0.690384 0.657726 0.363823 -0.325266
H91   H     H_    0.660988 0.677730 0.421076 0.152067
H92   H     H_    0.703889 0.607598 0.379954 0.149159
H93   H     H_    0.661222 0.656780 0.299212 0.205680
O32   O     O_3   0.187374 0.229336 0.645617 -0.572910
C108  C     C_3   0.128422 0.204815 0.673023 -0.333719
H94   H     H_    0.096830 0.196060 0.611895 0.146086
H95   H     H_    0.105845 0.236908 0.725014 0.176032
H96   H     H_    0.135966 0.158267 0.708367 0.197901
O33   O     O_3   0.322774 0.719856 0.631773 -0.600209
C109  C     C_3   0.336128 0.740776 0.724070 -0.316547
H97   H     H_    0.312793 0.786841 0.741133 0.173998
H98   H     H_    0.387582 0.744266 0.735146 0.156088
H99   H     H_    0.318019 0.704686 0.774328 0.186487
O34   O     O_3   0.679038 0.280422 0.626145 -0.599167
C110  C     C_3   0.664215 0.261761 0.719041 -0.324751
H100  H     H_    0.686858 0.215902 0.739413 0.164939
H101  H     H_    0.612587 0.259005 0.728561 0.153849
H102  H     H_    0.681971 0.298841 0.767899 0.189782
O35   O     O_3   0.778884 0.172966 0.366654 -0.600563
C111  C     C_3   0.758352 0.159684 0.274243 -0.325027
H103  H     H_    0.714810 0.186166 0.255605 0.159444
H104  H     H_    0.751668 0.107600 0.264259 0.163262
H105  H     H_    0.795372 0.175189 0.224373 0.187435
O36   O     O_3   0.227118 0.818295 0.360656 -0.599495
C112  C     C_3   0.249865 0.829606 0.268791 -0.329724
H106  H     H_    0.294429 0.803699 0.254329 0.159122
H107  H     H_    0.255700 0.881521 0.255981 0.160245
H108  H     H_    0.214529 0.811959 0.217746 0.185945
O37   O     O_3   0.774457 0.828807 0.349589 -0.562313
C113  C     C_3   0.796988 0.890588 0.328782 -0.321978
H109  H     H_    0.807077 0.918892 0.393375 0.145960
H110  H     H_    0.763644 0.916318 0.282286 0.165484
H111  H     H_    0.841731 0.885926 0.289618 0.201341
O38   O     O_3   0.318940 0.275724 0.638942 -0.573758
C114  C     C_3   0.378633 0.302332 0.656853 -0.335814
H112  H     H_    0.406492 0.309588 0.591378 0.145762
H113  H     H_    0.404829 0.272534 0.708103 0.178537
H114  H     H_    0.372011 0.349874 0.689467 0.196964
O39   O     O_3   0.228133 0.179035 0.361781 -0.569328
C115  C     C_3   0.181251 0.134994 0.387992 -0.312751
H115  H     H_    0.159791 0.147809 0.456811 0.160627
H116  H     H_    0.199997 0.085509 0.390363 0.158795
H117  H     H_    0.143487 0.136158 0.334331 0.203112
O40   O     O_3   0.704718 0.745718 0.650084 -0.554806
C116  C     C_3   0.663838 0.693114 0.642376 -0.320832
H118  H     H_    0.677860 0.661992 0.582858 0.147257
H119  H     H_    0.613942 0.707997 0.635157 0.148414
H120  H     H_    0.667563 0.664296 0.707601 0.203165
O41   O     O_3   0.991621 0.387894 0.256781 -0.545171
C117  C     C_3   0.934470 0.354201 0.250200 -0.168598
H121  H     H_    0.892863 0.385858 0.242732 0.099993
H122  H     H_    0.928073 0.326287 0.315780 0.177262
H123  H     H_    0.936774 0.318851 0.192584 0.180802
O42   O     O_3   0.961746 0.606170 0.748752 -0.551185
C118  C     C_3   0.007632 0.653613 0.764609 -0.265354
H124  H     H_    0.000488 0.692819 0.713378 0.156466
H125  H     H_    0.056211 0.635230 0.754603 0.125657
H126  H     H_    0.002820 0.674500 0.835972 0.202493
O43   O     O_3   0.004271 0.612247 0.254747 -0.550768
C119  C     C_3   0.060257 0.648058 0.255593 -0.162486
H127  H     H_    0.103030 0.617783 0.257691 0.112136
H128  H     H_    0.060803 0.677611 0.320242 0.175257
H129  H     H_    0.061206 0.681893 0.195679 0.184892
O44   O     O_3   0.037281 0.393647 0.745320 -0.571926
C120  C     C_3   0.994346 0.344083 0.764863 -0.298002
H130  H     H_    0.999086 0.307113 0.709660 0.151822
H131  H     H_    0.944695 0.360746 0.764369 0.141975
H132  H     H_    0.005416 0.320789 0.832962 0.206184
O45   O     O_3   0.491226 0.887924 0.256823 -0.549145
C121  C     C_3   0.434146 0.854065 0.250419 -0.174098
H133  H     H_    0.392443 0.885569 0.242572 0.102620
H134  H     H_    0.427764 0.826366 0.316194 0.177629
H135  H     H_    0.436601 0.818508 0.193106 0.179528
O46   O     O_3   0.460872 0.105840 0.747659 -0.559189
C122  C     C_3   0.506914 0.153174 0.762931 -0.289840
H136  H     H_    0.499427 0.192402 0.711857 0.149000
H137  H     H_    0.555377 0.134713 0.752071 0.138042
H138  H     H_    0.502654 0.173966 0.834446 0.202403
O47   O     O_3   0.504712 0.112324 0.254698 -0.547202
C123  C     C_3   0.561216 0.147288 0.255241 -0.163079
H139  H     H_    0.603467 0.116330 0.258812 0.112425
H140  H     H_    0.561854 0.177644 0.319074 0.174995
H141  H     H_    0.563115 0.180333 0.194427 0.185873
O48   O     O_3   0.542291 0.895418 0.747256 -0.556760
C124  C     C_3   0.499685 0.844804 0.762110 -0.260097
H142  H     H_    0.507289 0.808396 0.706780 0.153249
H143  H     H_    0.449786 0.860391 0.757525 0.129874
H144  H     H_    0.508453 0.821395 0.830919 0.202416

loop_
_geom_bond_atom_site_label_1
_geom_bond_atom_site_label_2
_ccdc_geom_bond_type
C88   H42   S    
C84   C85   S    
C33   C45   A    
C118  H124  S    
C103  H81   S    
C53   C69   A    
C5    O9    A    
C120  H130  S    
C116  H120  S    
C13   O29   S    
O2    Zn2   S    
C71   N3    A    
C84   H33   S    
C22   C38   A    
C111  H105  S    
C65   O41   S    
C17   C61   A    
C23   O39   S    
C93   C94   S    
C56   C72   A    
C4    O6    A    
C72   O48   S    
C98   C99   S    
C58   C61   S    
O33   C109  S    
C53   C75   A    
C39   H15   S    
C89   H46   S    
C110  H100  S    
C83   H31   S    
C8    O15   A    
C25   C41   A    
C101  H73   S    
C24   O40   S    
C123  H139  S    
C30   H6    S    
C75   C76   S    
C89   C90   S    
C54   C70   A    
C11   C27   A    
C121  H133  S    
C6    O10   A    
C87   H40   S    
C79   H23   S    
C19   O35   S    
C91   H49   S    
C88   H44   S    
C49   C73   A    
O44   C120  S    
C85   H35   S    
C120  H132  S    
C82   H29   S    
C117  H123  S    
C69   N3    A    
O19   C83   S    
C38   H14   S    
C95   H60   S    
C23   C64   A    
C19   C35   A    
C117  H122  S    
C106  H90   S    
N1    Zn2   S    
C86   H39   S    
C77   H18   S    
C78   H20   S    
C98   H66   S    
C72   N4    A    
C81   H27   S    
C22   O38   S    
C99   H69   S    
C16   C59   A    
C55   C71   A    
C114  H112  S    
C97   H63   S    
C15   C60   A    
C83   C84   S    
O18   C80   S    
C36   H12   S    
C68   O44   S    
C26   H2    S    
C123  H141  S    
C118  H125  S    
C103  H80   S    
C52   C74   A    
C50   C74   A    
C112  H106  S    
C95   H59   S    
C108  H94   S    
C20   C61   A    
C33   H9    S    
C35   H11   S    
C10   O26   S    
C119  H129  S    
C49   O17   S    
C2    C44   S    
C111  H104  S    
C34   C46   A    
C37   C47   A    
C11   C58   A    
C38   C48   A    
O13   Zn4   S    
C55   C75   A    
C3    O5    A    
C65   N1    A    
C90   H48   S    
C100  H71   S    
O28   C104  S    
N2    Zn1   S    
C92   H53   S    
C14   O30   S    
C54   O22   S    
O7    Zn2   S    
O4    Zn2   S    
O40   C116  S    
C18   C62   A    
C110  H102  S    
C68   N2    A    
C70   N4    A    
C104  H82   S    
C8    O14   A    
C18   C34   A    
C17   O33   S    
N3    Zn4   S    
C86   H38   S    
C124  H144  S    
C51   C67   A    
C113  H110  S    
C56   O24   S    
C12   C57   A    
C2    O3    A    
C124  H142  S    
C122  H137  S    
C67   O43   S    
C114  H113  S    
C26   C42   A    
C79   H22   S    
C80   H24   S    
C109  H97   S    
O9    Zn3   S    
O36   C112  S    
C113  H111  S    
C112  H108  S    
C15   C31   A    
C13   C59   A    
C16   C32   A    
C14   C60   A    
C95   C96   S    
C108  H96   S    
C94   H58   S    
O17   C77   S    
C27   C42   A    
C4    C42   S    
C119  H128  S    
O32   C108  S    
C32   C43   A    
C12   O28   S    
C8    C46   S    
O8    Zn1   S    
C102  H78   S    
C115  H115  S    
C16   O32   S    
C52   O20   S    
C105  H85   S    
C67   N1    A    
O20   C86   S    
C11   O27   S    
C98   H67   S    
C109  H99   S    
C51   O19   S    
C114  H114  S    
C40   C47   A    
C73   C74   S    
O39   C115  S    
O21   C89   S    
C9    C25   A    
C82   H28   S    
C12   C28   A    
C13   C29   A    
C83   H32   S    
C104  H84   S    
C101  H74   S    
C28   C41   A    
C123  H140  S    
O42   C118  S    
C96   C97   S    
C97   H65   S    
C3    C41   S    
C121  H134  S    
O31   C107  S    
O15   Zn4   S    
C87   H41   S    
C80   C81   S    
C91   H50   S    
O24   C98   S    
O47   C123  S    
C88   H43   S    
C29   C43   A    
O5    Zn2   S    
C30   C44   A    
C17   C33   A    
C1    O4    A    
C85   H36   S    
C120  H131  S    
C32   H8    S    
C121  H135  S    
C87   C88   S    
C107  H91   S    
O43   C119  S    
O34   C110  S    
O25   C101  S    
O10   Zn4   S    
C29   H5    S    
O41   C117  S    
C85   H37   S    
C102  H76   S    
C115  H117  S    
C106  H89   S    
C78   H19   S    
C6    C48   S    
C116  H119  S    
C89   H45   S    
O46   C122  S    
C97   H64   S    
C10   C58   A    
O3    Zn1   S    
C107  H93   S    
C37   H13   S    
O12   Zn4   S    
C96   H61   S    
O6    Zn1   S    
C107  H92   S    
O30   C106  S    
C21   C63   A    
C22   C64   A    
C94   H56   S    
C20   C36   A    
C21   C37   A    
O45   C121  S    
C15   O31   S    
C55   O23   S    
O38   C114  S    
C69   O45   S    
C35   C46   A    
O14   Zn3   S    
C70   O46   S    
C39   C48   A    
C5    O12   A    
C3    O8    A    
C82   H30   S    
C122  H136  S    
C90   H47   S    
C56   C76   A    
C100  H70   S    
O27   C103  S    
C57   C62   S    
C92   H52   S    
C7    O16   A    
C5    C47   S    
C59   C64   S    
C49   C65   A    
C60   C63   S    
C25   H1    S    
C7    C45   S    
C27   H3    S    
C117  H121  S    
C110  H101  S    
C19   C62   A    
C4    O7    A    
C31   H7    S    
C34   H10   S    
C86   C87   S    
C77   H17   S    
C78   C79   S    
C81   H26   S    
C124  H143  S    
N4    Zn3   S    
C99   H68   S    
O37   C113  S    
C52   C68   A    
C21   O37   S    
C66   N2    A    
C10   C26   A    
C6    O11   A    
C14   C30   A    
C1    C43   S    
C91   H51   S    
C109  H98   S    
C31   C44   A    
C118  H126  S    
C103  H79   S    
C1    O1    A    
C112  H107  S    
C116  H118  S    
C7    O13   A    
C108  H95   S    
C77   C78   S    
O23   C95   S    
C111  H103  S    
C99   C100  S    
O29   C105  S    
C36   C45   A    
C40   H16   S    
C50   C66   A    
O11   Zn3   S    
C20   O36   S    
C54   C76   A    
C93   H54   S    
C102  H77   S    
C115  H116  S    
C90   C91   S    
C105  H86   S    
C100  H72   S    
O1    Zn1   S    
O35   C111  S    
O22   C92   S    
C92   C93   S    
C84   H34   S    
C119  H127  S    
C51   C73   A    
C24   C63   A    
C105  H87   S    
O48   C124  S    
C104  H83   S    
C9    O25   S    
C101  H75   S    
C53   O21   S    
C2    O2    A    
C18   O34   S    
C81   C82   S    
C23   C39   A    
C93   H55   S    
C24   C40   A    
C9    C57   A    
C28   H4    S    
C96   H62   S    
C113  H109  S    
C50   O18   S    
C66   O42   S    
O26   C102  S    
C122  H138  S    
C106  H88   S    
C80   H25   S    
O16   Zn3   S    
C71   O47   S    
C79   H21   S    
C94   H57   S    
