data_mof_unit_1139.cif
_audit_creation_date              2013-03-05T16:05:04-0500
_audit_creation_method            fapswitch 2.2
_symmetry_space_group_name_H-M    P1
_symmetry_Int_Tables_number       1
_space_group_crystal_system       triclinic
_cell_length_a                    6.930202
_cell_length_b                    23.165794
_cell_length_c                    25.867621
_cell_angle_alpha                 104.605632
_cell_angle_beta                  90.695569
_cell_angle_gamma                 90.274786
_cell_volume                      4018.25029703

loop_
_atom_site_label
_atom_site_type_symbol
_atom_site_description
_atom_site_fract_x
_atom_site_fract_y
_atom_site_fract_z
_atom_type_partial_charge
O1    O     O_R   0.505750 0.453350 0.547660 -0.602521
O2    O     O_R   0.170990 0.432220 0.437590 -0.566836
O3    O     O_R   0.005600 0.546650 0.452340 -0.585536
C1    C     C_R   0.338833 0.415772 0.417237 1.015054
O4    O     O_R   0.175720 0.446240 0.546340 -0.597813
O5    O     O_R   0.010370 0.560770 0.561860 -0.598820
C2    C     C_R   0.345380 0.434320 0.562998 0.950588
O6    O     O_R   0.500990 0.439230 0.438140 -0.570811
O7    O     O_3   0.340820 0.537560 0.504970 -0.289441
V1    V     V_3+5 0.064050 0.493030 0.499080 1.205637
O8    O     O_R   0.680940 0.567780 0.562410 -0.606633
C3    C     C_R   0.851041 0.584495 0.582524 0.944126
O9    O     O_R   0.676210 0.553760 0.453660 -0.599287
C4    C     C_R   0.844429 0.565801 0.437094 0.992376
V2    V     V_3+5 0.564640 0.506970 0.500920 1.182918
O10   O     O_3   0.837740 0.462440 0.495030 -0.261375
C5    C     C_R   0.786406 0.893698 0.130223 -0.141798
H1    H     H_    0.660002 0.918730 0.124315 0.132885
C6    C     C_R   0.778225 0.859323 0.167405 -0.098861
H2    H     H_    0.645327 0.858461 0.188681 0.181179
C7    C     C_R   0.937320 0.825661 0.176574 -0.077433
C8    C     C_R   0.110274 0.828629 0.148414 0.364262
C9    C     C_R   0.116657 0.863576 0.111065 -0.267538
H3    H     H_    0.249466 0.865852 0.089982 0.173200
C10   C     C_R   0.955503 0.896277 0.101536 -0.174881
C11   C     C_R   0.975477 0.726825 0.199650 -0.022614
H4    H     H_    0.034189 0.707901 0.160472 0.138858
C12   C     C_R   0.961049 0.690947 0.235643 -0.148989
H5    H     H_    0.010266 0.645262 0.223664 0.147811
C13   C     C_R   0.881803 0.713559 0.286409 0.076277
C14   C     C_R   0.815794 0.772640 0.300288 -0.149220
H6    H     H_    0.754542 0.791181 0.339222 0.118618
C15   C     C_R   0.833890 0.808921 0.264694 -0.099779
H7    H     H_    0.786134 0.854736 0.276956 0.112162
C16   C     C_R   0.916420 0.786695 0.214214 0.161789
C17   C     C_R   0.699422 0.671262 0.352056 -0.127295
H8    H     H_    0.571511 0.694764 0.344566 0.116135
C18   C     C_R   0.690072 0.635393 0.388239 -0.151416
H9    H     H_    0.554961 0.632378 0.408035 0.127689
C19   C     C_R   0.853499 0.604166 0.398893 -0.144251
C20   C     C_R   0.025931 0.609479 0.372178 -0.067614
H10   H     H_    0.154659 0.586164 0.379333 0.150831
C21   C     C_R   0.034171 0.644513 0.335393 -0.143647
H11   H     H_    0.168927 0.647766 0.315483 0.123628
C22   C     C_R   0.871282 0.675888 0.325054 0.115967
C23   C     C_R   0.714125 0.644612 0.668786 -0.232104
C24   C     C_R   0.864993 0.634125 0.631682 -0.139147
C25   C     C_R   0.031450 0.670563 0.642259 -0.247110
C26   C     C_R   0.047164 0.717222 0.688916 0.151358
C27   C     C_R   0.896574 0.726830 0.726282 0.032468
C28   C     C_R   0.729979 0.690164 0.716300 0.143718
C29   C     C_R   0.210925 0.754483 0.698915 -0.215963
C30   C     C_R   0.226682 0.800400 0.745829 -0.192094
C31   C     C_R   0.079347 0.809791 0.783735 0.148602
C32   C     C_R   0.912751 0.773125 0.773752 0.032009
C33   C     C_R   0.762160 0.782733 0.811119 0.145566
C34   C     C_R   0.598400 0.745472 0.801120 -0.205901
C35   C     C_R   0.582643 0.699555 0.754206 -0.187002
C36   C     C_R   0.095200 0.855343 0.831248 -0.234844
C37   C     C_R   0.944330 0.865829 0.868351 -0.138444
C38   C     C_R   0.777872 0.829393 0.857775 -0.236995
H12   H     H_    0.586063 0.616509 0.661203 0.139385
H13   H     H_    0.148094 0.663016 0.613831 0.137961
H14   H     H_    0.327684 0.747875 0.670582 0.142918
H15   H     H_    0.355048 0.828331 0.752637 0.147764
H16   H     H_    0.223259 0.883448 0.838833 0.134945
H17   H     H_    0.661228 0.836941 0.886204 0.142230
H18   H     H_    0.481641 0.752080 0.829453 0.147674
H19   H     H_    0.454278 0.671624 0.747398 0.150703
C39   C     C_R   0.310493 0.183235 0.130708 0.438822
C40   C     C_R   0.456331 0.139445 0.127816 -0.333385
C41   C     C_R   0.584032 0.144718 0.171361 -0.283685
C42   C     C_R   0.563198 0.190483 0.218334 0.194589
C43   C     C_R   0.406079 0.230169 0.223433 0.043893
C44   C     C_R   0.275725 0.225159 0.180240 -0.083050
C45   C     C_R   0.695680 0.196494 0.260761 -0.213668
C46   C     C_R   0.673962 0.241407 0.307741 -0.172279
C47   C     C_R   0.518320 0.281000 0.313547 0.215724
C48   C     C_R   0.381912 0.275577 0.271510 0.039135
C49   C     C_R   0.225194 0.316138 0.276998 -0.184260
C50   C     C_R   0.092194 0.309097 0.233460 0.340477
C51   C     C_R   0.114828 0.262845 0.187436 -0.192311
C52   C     C_R   0.499913 0.326334 0.360593 -0.192881
C53   C     C_R   0.347371 0.366966 0.367136 -0.315043
C54   C     C_R   0.208263 0.361748 0.325611 0.333348
H20   H     H_    0.698898 0.112539 0.168872 0.147849
H21   H     H_    0.817278 0.166610 0.257490 0.126472
H22   H     H_    0.779930 0.245340 0.339623 0.125739
H23   H     H_    0.605516 0.330085 0.392587 0.152472
H24   H     H_    0.003678 0.257509 0.156920 0.222607
C55   C     C_R   0.290434 0.097830 0.863075 -0.273298
H25   H     H_    0.177628 0.065748 0.864394 0.176079
C56   C     C_R   0.274598 0.133231 0.826312 0.593251
C57   C     C_R   0.422356 0.174962 0.824256 -0.131548
C58   C     C_R   0.581393 0.180381 0.859406 -0.096905
H26   H     H_    0.695025 0.212421 0.858708 0.181248
C59   C     C_R   0.597158 0.144173 0.895202 -0.052275
H27   H     H_    0.722274 0.149227 0.921507 0.159784
C60   C     C_R   0.451537 0.102615 0.897568 -0.190418
C61   C     C_R   0.445490 0.188907 0.731363 -0.057957
H28   H     H_    0.478904 0.142048 0.716721 0.154967
C62   C     C_R   0.434543 0.224908 0.695257 -0.154500
H29   H     H_    0.459663 0.205339 0.653263 0.127094
C63   C     C_R   0.394081 0.285962 0.713346 0.172595
C64   C     C_R   0.362238 0.310286 0.768010 0.007396
H30   H     H_    0.328441 0.357117 0.782632 0.157660
C65   C     C_R   0.373654 0.274313 0.804140 -0.123683
H31   H     H_    0.348645 0.293887 0.846140 0.140765
C66   C     C_R   0.414136 0.213256 0.786049 0.168084
C67   C     C_R   0.226931 0.319102 0.640140 -0.081546
H32   H     H_    0.112558 0.287371 0.641062 0.172848
C68   C     C_R   0.211787 0.355164 0.604205 -0.104891
H33   H     H_    0.086142 0.350407 0.578120 0.133274
C69   C     C_R   0.358488 0.396248 0.601468 -0.198403
C70   C     C_R   0.519945 0.400776 0.635837 -0.293702
H34   H     H_    0.633478 0.432556 0.634319 0.184664
C71   C     C_R   0.535163 0.365541 0.672765 0.582629
C72   C     C_R   0.386326 0.324248 0.675127 -0.129798
O11   O     O_R   0.308350 0.060850 0.061810 -0.561754
O12   O     O_R   0.633860 0.053770 0.953650 -0.600427
O13   O     O_R   0.798960 0.939210 0.938150 -0.603662
C73   C     C_R   0.464554 0.064607 0.936073 1.029129
O14   O     O_R   0.638360 0.067800 0.062400 -0.580855
O15   O     O_R   0.803500 0.953330 0.047670 -0.605209
C74   C     C_R   0.469470 0.086368 0.081109 1.039720
O16   O     O_R   0.303810 0.046730 0.952290 -0.560794
O17   O     O_3   0.468430 0.962490 0.995010 -0.298120
V3    V     V_3+5 0.745300 0.006960 0.000930 1.213906
O18   O     O_R   0.132880 0.946160 0.046390 -0.607919
C75   C     C_R   0.964618 0.934208 0.062977 0.944791
O19   O     O_R   0.128380 0.932130 0.937650 -0.610033
C76   C     C_R   0.958285 0.915458 0.917508 0.949272
V4    V     V_3+5 0.244670 0.992930 0.999140 1.206729
O20   O     O_3   0.971670 0.037510 0.005000 -0.212884
S1    S     S_3+6 0.195287 0.192143 0.071097 -0.013763
O21   O     O_2   0.004568 0.159851 0.063811 -0.261021
O22   O     O_2   0.161187 0.256975 0.074146 -0.257526
O23   O     O_3   0.332565 0.165112 0.017674 -0.541080
H35   H     H_    0.452505 0.189443 0.024480 0.338363
N1    N     N_R   0.054056 0.403854 0.332953 0.254127
O24   O     O_R   0.090774 0.459533 0.335044 -0.377652
O25   O     O_R   0.884312 0.388743 0.346199 -0.388119
N2    N     N_R   0.939117 0.350230 0.232878 0.266656
O26   O     O_R   0.762474 0.330493 0.224819 -0.367549
O27   O     O_R   0.980476 0.402261 0.225229 -0.293767
N3    N     N_R   0.282089 0.798407 0.158411 0.210545
O28   O     O_R   0.400076 0.776800 0.119685 -0.409880
O29   O     O_R   0.332210 0.798070 0.206988 -0.443335
S2    S     S_3+6 0.068344 0.124554 0.783829 -0.063125
O30   O     O_2   0.124424 0.091364 0.728406 -0.299679
O31   O     O_2   0.913527 0.089859 0.803286 -0.313285
O32   O     O_3   0.982835 0.191925 0.782245 -0.544355
H36   H     H_    0.879045 0.183588 0.754649 0.378670
S3    S     S_3+6 0.741961 0.373899 0.715067 -0.069602
O33   O     O_2   0.820226 0.313570 0.715371 -0.328856
O34   O     O_2   0.895403 0.409644 0.696289 -0.303903
O35   O     O_3   0.679341 0.409693 0.777446 -0.535856
H37   H     H_    0.795099 0.407860 0.799801 0.382844

loop_
_geom_bond_atom_site_label_1
_geom_bond_atom_site_label_2
_geom_bond_distance
_ccdc_geom_bond_type
S1    O23   1.675754 S    
C36   C37   1.408039 A    
C32   C33   1.411097 A    
C56   C57   1.415521 A    
C20   C21   1.399190 A    
C20   H10   1.082980 S    
C13   C22   1.485721 S    
C56   S2    1.771696 S    
C58   H26   1.082983 S    
C1    O6    1.296825 A    
C67   C72   1.404843 A    
C68   C69   1.403876 A    
C69   C70   1.407523 A    
C34   C35   1.400282 A    
S1    O21   1.501810 D    
C46   C47   1.403983 A    
C64   C65   1.402085 A    
C11   H4    1.082820 S    
O11   V4    1.997003 S    
C23   H12   1.084343 S    
C52   C53   1.402058 A    
C2    C69   1.489165 S    
C7    C8    1.420443 A    
C17   H8    1.083241 S    
C6    C7    1.405418 A    
N1    O25   1.300043 A    
N3    O28   1.301369 A    
S2    O31   1.503112 D    
C36   H16   1.084350 S    
O5    C3    1.295762 A    
C18   H9    1.083007 S    
O14   C74   1.304903 A    
N2    O26   1.300573 A    
C59   H27   1.083094 S    
C33   C34   1.403869 A    
S1    O22   1.503935 D    
C42   C43   1.414276 A    
C67   H32   1.082988 S    
C63   C64   1.404494 A    
C5    C6    1.396288 A    
C23   C24   1.408051 A    
O8    V2    1.998005 S    
C47   C52   1.400246 A    
O35   H37   0.990566 S    
C8    N3    1.437590 S    
O16   V4    1.989701 S    
C70   C71   1.407661 A    
C9    H3    1.083299 S    
C14   C15   1.400676 A    
C39   C40   1.424633 A    
O1    V2    1.983897 S    
C30   H15   1.083631 S    
O7    V1    2.158939 S    
S3    O34   1.503120 D    
O15   V3    1.979526 S    
O12   V3    1.980427 S    
C61   C66   1.404526 A    
O9    C4    1.299925 A    
C65   C66   1.404114 A    
C37   C76   1.485485 S    
C57   C58   1.404998 A    
C3    C24   1.485538 S    
C10   C75   1.487960 S    
C68   H33   1.083036 S    
C59   C60   1.403889 A    
O12   C73   1.301496 A    
C5    H1    1.083187 S    
N3    O29   1.301542 A    
C31   C36   1.406319 A    
C8    C9    1.409252 A    
C52   H23   1.084675 S    
C43   C44   1.409610 A    
C53   C54   1.416349 A    
C45   C46   1.396543 A    
C46   H22   1.083747 S    
S3    O35   1.680851 S    
C29   H14   1.083659 S    
S2    O32   1.682009 S    
C55   H25   1.082836 S    
O4    C2    1.301996 A    
C47   C48   1.413115 A    
C41   C42   1.406152 A    
C25   H13   1.084318 S    
C30   C31   1.403633 A    
C23   C28   1.406320 A    
C50   C51   1.397433 A    
C37   C38   1.408760 A    
C73   O16   1.297309 A    
O2    C1    1.301278 A    
C21   H11   1.083348 S    
C63   C72   1.486034 S    
C49   C54   1.430436 A    
V3    O20   1.709038 S    
C55   C56   1.407343 A    
C38   H17   1.084322 S    
C41   H20   1.084551 S    
C24   C25   1.408773 A    
C1    C53   1.491624 S    
C13   C14   1.404845 A    
C65   H31   1.082986 S    
C26   C29   1.403872 A    
C61   C62   1.401907 A    
C27   C28   1.412029 A    
O15   C75   1.297006 A    
C17   C22   1.405210 A    
C44   C51   1.404479 A    
C28   C35   1.403636 A    
N1    O24   1.301054 A    
C62   C63   1.404015 A    
C21   C22   1.404523 A    
C54   N1    1.432163 S    
S3    O33   1.503389 D    
O3    C4    1.297008 A    
O13   V3    1.993406 S    
C60   C73   1.488727 S    
O18   V4    1.987656 S    
O11   C74   1.294902 A    
C19   C20   1.407924 A    
O6    V2    1.996277 S    
C43   C48   1.424152 A    
O9    V2    1.987574 S    
C39   S1    1.786047 S    
C42   C45   1.401458 A    
O13   C76   1.295766 A    
O17   V3    2.158873 S    
O2    V1    1.993064 S    
C39   C44   1.423062 A    
C29   C30   1.400282 A    
O18   C75   1.299801 A    
N2    O27   1.300953 A    
C31   C32   1.412034 A    
C12   H5    1.083085 S    
O1    C2    1.296602 A    
C14   H6    1.083027 S    
O17   V4    1.699961 S    
C49   C50   1.423117 A    
O19   V4    1.997861 S    
O5    V1    1.993302 S    
C45   H21   1.083677 S    
O8    C3    1.299778 A    
C58   C59   1.401091 A    
C35   H19   1.083631 S    
C7    C16   1.493045 S    
C64   H30   1.082818 S    
C57   C66   1.486012 S    
C11   C12   1.399777 A    
C27   C32   1.414902 A    
C51   H24   1.080205 S    
C5    C10   1.403675 A    
C6    H2    1.081301 S    
C17   C18   1.401376 A    
O7    V2    1.701810 S    
O4    V1    1.980326 S    
O3    V1    1.979691 S    
V1    O10   1.709050 S    
S2    O30   1.502681 D    
C18   C19   1.408124 A    
O14   V3    1.993098 S    
V4    O20   2.148423 S    
C25   C26   1.405193 A    
V2    O10   2.148465 S    
C12   C13   1.404918 A    
C61   H28   1.082870 S    
C15   C16   1.406861 A    
C15   H7    1.082919 S    
C9    C10   1.406244 A    
C62   H29   1.082982 S    
C67   C68   1.401101 A    
O23   H35   0.990716 S    
C4    C19   1.488017 S    
C48   C49   1.424387 A    
C11   C16   1.406658 A    
C50   N2    1.431844 S    
C40   C41   1.404377 A    
O32   H36   0.990414 S    
C26   C27   1.411095 A    
C71   S3    1.772333 S    
C33   C38   1.405188 A    
C40   C74   1.494791 S    
C34   H18   1.083660 S    
C70   H34   1.082761 S    
C55   C60   1.407013 A    
C71   C72   1.415724 A    
O19   C76   1.299779 A    
