data_mof_unit_1083.cif
_audit_creation_date              2012-12-10T17:44:30-0500
_audit_creation_method            fapswitch 2.2
_symmetry_space_group_name_H-M    P1
_symmetry_Int_Tables_number       1
_space_group_crystal_system       triclinic
_cell_length_a                    9.908021
_cell_length_b                    10.724901
_cell_length_c                    15.539387
_cell_angle_alpha                 91.764649
_cell_angle_beta                  68.10658
_cell_angle_gamma                 89.841007
_cell_volume                      1531.25718905

loop_
_atom_site_label
_atom_site_type_symbol
_atom_type_description
_atom_site_fract_x
_atom_site_fract_y
_atom_site_fract_z
_atom_type_partial_charge
C1    C     C_R   0.502460 0.739824 0.493580 0.871787
C2    C     C_R   0.403574 0.546799 0.916647 0.101720
C3    C     C_R   0.258825 0.512904 0.969977 0.170572
C4    C     C_R   0.503253 0.573116 0.960454 0.063804
C5    C     C_R   0.463495 0.545306 0.054922 0.066966
C6    C     C_R   0.316566 0.516902 0.107439 -0.203404
C7    C     C_R   0.215542 0.503134 0.065550 -0.228349
C8    C     C_R   0.641313 0.625507 0.913015 -0.213153
C9    C     C_R   0.741723 0.640735 0.955296 -0.207688
C10   C     C_R   0.709368 0.600968 0.045061 0.164115
C11   C     C_R   0.571550 0.549296 0.094179 0.089572
C12   C     C_R   0.408960 0.502048 0.675736 0.854565
C13   C     C_R   0.812226 0.613163 0.087083 -0.208793
C14   C     C_R   0.778860 0.574609 0.177543 -0.205996
C15   C     C_R   0.546611 0.500979 0.180831 -0.235182
C16   C     C_R   0.260053 0.888329 0.469267 -0.144854
C17   C     C_R   0.125432 0.949173 0.495303 -0.118599
C18   C     C_R   0.101631 0.061949 0.545433 -0.052278
C19   C     C_R   0.216794 0.119568 0.560955 -0.067929
C20   C     C_R   0.357792 0.063961 0.526353 0.106866
C21   C     C_R   0.373125 0.939876 0.493928 0.111215
C22   C     C_R   0.500716 0.873574 0.488646 -0.114744
C23   C     C_R   0.494357 0.260997 0.508968 0.902094
C24   C     C_R   0.620287 0.936553 0.494666 -0.211232
C25   C     C_R   0.614629 0.063577 0.506700 -0.198063
C26   C     C_R   0.485638 0.128274 0.519893 -0.135952
C27   C     C_R   0.792743 0.671180 0.617301 -0.235372
C28   C     C_R   0.830571 0.755280 0.674220 -0.301871
C29   C     C_R   0.968778 0.751061 0.676753 0.409934
C30   C     C_R   0.070917 0.664567 0.620472 -0.199010
C31   C     C_R   0.038310 0.582184 0.558855 0.009613
C32   C     C_R   0.894203 0.583625 0.558051 0.172077
C33   C     C_R   0.960395 0.420257 0.444551 -0.192401
C34   C     C_R   0.590832 0.500995 0.324350 0.899929
C35   C     C_R   0.103429 0.420144 0.444185 0.410266
C36   C     C_R   0.351882 0.510989 0.776877 -0.045886
C37   C     C_R   0.644461 0.519819 0.224826 -0.065772
C38   C     C_R   0.160521 0.485537 0.926488 -0.199515
C39   C     C_R   0.206620 0.485504 0.830120 -0.169131
C40   C     C_R   0.447720 0.543548 0.820238 -0.256865
H1    H     H_    0.104523 0.479956 0.107676 0.154142
H2    H     H_    0.916351 0.655772 0.051059 0.155416
H3    H     H_    0.719348 0.888011 0.489290 0.172800
H4    H     H_    0.274457 0.803103 0.427772 0.166277
H5    H     H_    0.193987 0.207002 0.600637 0.146109
H6    H     H_    0.712323 0.110975 0.504395 0.173297
H7    H     H_    0.932241 0.355274 0.399469 0.179495
H8    H     H_    0.750603 0.822322 0.718065 0.189737
H9    H     H_    0.449352 0.449711 0.216532 0.197781
H10   H     H_    0.174309 0.664428 0.626730 0.230151
H11   H     H_    0.845864 0.681956 0.917035 0.194976
H12   H     H_    0.049697 0.459843 0.966675 0.150995
H13   H     H_    0.130593 0.461212 0.797346 0.160802
H14   H     H_    0.559449 0.559285 0.777159 0.159201
H15   H     H_    0.672583 0.659928 0.844117 0.163528
N1    N     N_R   0.856800 0.501200 0.500850 -0.132077
N2    N     N_R   0.142390 0.501280 0.500880 -0.145044
O1    O     O_R   0.385310 0.683220 0.500000 -0.648793
O2    O     O_R   0.614640 0.683250 0.500010 -0.638333
O3    O     O_R   0.319840 0.499980 0.632240 -0.642687
O4    O     O_R   0.549160 0.500000 0.632250 -0.630492
O5    O     O_R   0.385360 0.316750 0.499990 -0.575272
O6    O     O_R   0.614690 0.316780 0.500000 -0.617853
O7    O     O_R   0.450840 0.500000 0.367750 -0.572429
O8    O     O_R   0.680160 0.500020 0.367760 -0.617265
Zn1   Zn    Zn3+2 0.346880 0.499980 0.499990 0.970114
Zn2   Zn    Zn3+2 0.653120 0.500020 0.500010 0.939796
H16   H     H_    0.038638 0.907236 0.478479 0.134678
H17   H     H_    0.995330 0.106711 0.569723 0.132278
H18   H     H_    0.682764 0.677414 0.622679 0.223949
Cl1   Cl    Cl    0.014824 0.854651 0.750755 -0.658444
Cl2   Cl    Cl    0.229061 0.311909 0.369583 -0.637197
H19   H     H_    0.855349 0.591257 0.211300 0.159361
H20   H     H_    0.275579 0.508077 0.181752 0.167952

loop_
_geom_bond_atom_site_label_1
_geom_bond_atom_site_label_2
_ccdc_geom_bond_type
C16   C21   A    
C34   C37   S    
C19   C20   A    
C9    H11   S    
N2    Zn1   S    
C4    C8    A    
C5    C6    A    
C28   C29   A    
C5    C11   A    
C3    C7    A    
C1    O2    A    
C30   C31   A    
C38   H12   S    
C34   O8    A    
C18   C19   A    
C23   C26   S    
C15   C37   A    
O2    Zn2   S    
C11   C15   A    
O1    Zn1   S    
C23   O5    A    
C3    C38   A    
C8    C9    A    
O8    Zn2   S    
C12   C36   S    
C9    C10   A    
C16   H4    S    
C33   N1    A    
C15   H9    S    
C30   H10   S    
O3    Zn1   S    
C1    C22   S    
C21   C22   A    
C8    H15   S    
C13   H2    S    
C6    H20   S    
C38   C39   A    
O6    Zn2   S    
O5    Zn1   S    
C14   H19   S    
C36   C40   A    
C24   C25   A    
C16   C17   A    
C25   C26   A    
O7    Zn1   S    
C2    C4    A    
C29   C30   A    
O4    Zn2   S    
C31   C32   A    
C34   O7    A    
C17   C18   A    
C27   H18   S    
C35   Cl2   S    
C40   H14   S    
C33   H7    S    
C22   C24   A    
C28   H8    S    
C17   H16   S    
C27   C32   A    
C36   C39   A    
C4    C5    A    
C10   C13   A    
C19   H5    S    
C6    C7    A    
N1    Zn2   S    
C35   N2    A    
C31   N2    A    
C2    C3    A    
C1    O1    A    
C14   C37   A    
C12   O4    A    
C39   H13   S    
C20   C26   A    
C18   H17   S    
C23   O6    A    
C33   C35   A    
C7    H1    S    
C10   C11   A    
C12   O3    A    
C2    C40   A    
C20   C21   A    
C27   C28   A    
C24   H3    S    
C13   C14   A    
C25   H6    S    
C32   N1    A    
C29   Cl1   S    
