data_mof_unit_4508.cif
_audit_creation_date              2012-12-10T17:46:19-0500
_audit_creation_method            fapswitch 2.2
_symmetry_space_group_name_H-M    P1
_symmetry_Int_Tables_number       1
_space_group_crystal_system       triclinic
_cell_length_a                    14.131313
_cell_length_b                    10.639095
_cell_length_c                    9.991677
_cell_angle_alpha                 91.334969
_cell_angle_beta                  89.638967
_cell_angle_gamma                 92.268436
_cell_volume                      1500.58614216

loop_
_atom_site_label
_atom_site_type_symbol
_atom_type_description
_atom_site_fract_x
_atom_site_fract_y
_atom_site_fract_z
_atom_type_partial_charge
C1    C     C_R   0.504413 0.260937 0.497968 1.108133
C2    C     C_1   0.772182 0.503298 0.499213 -0.135585
C3    C     C_R   0.682083 0.128196 0.449078 0.388367
C4    C     C_R   0.767540 0.064167 0.461571 0.426701
C5    C     C_R   0.763653 0.936469 0.488316 -0.199112
C6    C     C_R   0.676930 0.871913 0.501768 -0.219606
C7    C     C_R   0.591246 0.935736 0.496775 -0.021142
C8    C     C_R   0.593537 0.066030 0.479977 -0.148648
C9    C     C_R   0.506567 0.127785 0.491592 -0.202600
C10   C     C_R   0.418849 0.062854 0.503009 0.356909
C11   C     C_R   0.417155 0.932544 0.512373 0.384675
C12   C     C_R   0.329468 0.499994 0.500378 0.954915
C13   C     C_R   0.502808 0.871481 0.506262 -0.200198
C14   C     C_R   0.346537 0.379679 0.135743 0.479774
C15   C     C_R   0.258957 0.366699 0.070260 0.327198
C16   C     C_R   0.258872 0.368049 0.931505 -0.487781
C17   C     C_R   0.344985 0.381718 0.862509 0.462561
C18   C     C_R   0.424363 0.442494 0.927456 0.042020
C19   C     C_R   0.424662 0.442111 0.071315 -0.119812
C20   C     C_R   0.571550 0.557013 0.072670 0.490210
C21   C     C_R   0.571277 0.555966 0.929149 -0.238995
C22   C     C_R   0.498418 0.738881 0.501702 0.938841
C23   C     C_R   0.670581 0.502466 0.499755 0.911517
C24   C     C_1   0.227961 0.500296 0.500987 -0.156560
C25   C     C_1   0.142659 0.500792 0.500835 0.020540
C26   C     C_1   0.042732 0.501628 0.500220 0.038185
C27   C     C_1   0.957428 0.502421 0.499652 0.017900
C28   C     C_1   0.857499 0.503187 0.499210 -0.024384
H1    H     H_    0.195286 0.336876 0.878280 0.171492
H2    H     H_    0.629027 0.602013 0.875291 0.146135
H3    H     H_    0.828447 0.886005 0.495409 0.182699
H4    H     H_    0.677769 0.771940 0.518493 0.144230
N1    N     N_R   0.499190 0.498800 0.142780 -0.095854
N2    N     N_R   0.499160 0.498720 0.857170 -0.093908
O1    O     O_R   0.500000 0.316780 0.614690 -0.553666
O2    O     O_R   0.499990 0.316750 0.385360 -0.538745
O3    O     O_R   0.373720 0.500010 0.614690 -0.575688
O4    O     O_R   0.373710 0.499990 0.385360 -0.563709
O5    O     O_R   0.500010 0.683250 0.614640 -0.641342
O6    O     O_R   0.500000 0.683220 0.385310 -0.578573
O7    O     O_R   0.626290 0.500010 0.614640 -0.629941
O8    O     O_R   0.626280 0.499990 0.385310 -0.536274
Zn1   Zn    Zn3+2 0.500010 0.500020 0.653130 0.984305
Zn2   Zn    Zn3+2 0.499990 0.499980 0.346870 1.051111
O9    O     O_3   0.336767 0.129870 0.502594 -0.781495
H5    H     H_    0.280636 0.071381 0.497238 0.373010
O10   O     O_3   0.356065 0.312443 0.746493 -0.687862
H6    H     H_    0.294596 0.272119 0.718446 0.342143
O11   O     O_3   0.685378 0.246974 0.396607 -0.663468
C29   C     C_3   0.687238 0.234462 0.255485 -0.258920
H7    H     H_    0.689072 0.329561 0.212241 0.213164
H8    H     H_    0.622468 0.182853 0.217239 0.175733
H9    H     H_    0.751728 0.187130 0.219350 0.168012
O12   O     O_3   0.855665 0.122427 0.444122 -0.760595
H10   H     H_    0.848697 0.214328 0.437668 0.365687
O13   O     O_3   0.332096 0.863459 0.518957 -0.624817
C30   C     C_3   0.304323 0.855060 0.654468 -0.325772
H11   H     H_    0.291772 0.949458 0.699945 0.180640
H12   H     H_    0.357358 0.806443 0.714248 0.183794
H13   H     H_    0.236758 0.798594 0.659674 0.197782
O14   O     O_3   0.644033 0.617336 0.143589 -0.743628
H14   H     H_    0.690538 0.654634 0.079677 0.311260
O15   O     O_3   0.361283 0.308772 0.246057 -0.702387
H15   H     H_    0.302861 0.260079 0.271043 0.381553
O16   O     O_3   0.178119 0.333934 0.142013 -0.759953
H16   H     H_    0.123315 0.327599 0.080347 0.349819

loop_
_geom_bond_atom_site_label_1
_geom_bond_atom_site_label_2
_ccdc_geom_bond_type
O3    Zn1   S    
C29   H8    S    
O4    Zn2   S    
C6    C7    A    
C8    C9    A    
O1    Zn1   S    
C9    C10   A    
C12   C24   S    
C6    H4    S    
O10   H6    S    
C23   O7    A    
C7    C13   A    
C1    O2    A    
C22   O6    A    
C20   C21   A    
C10   O9    S    
C29   H7    S    
C3    O11   S    
C7    C8    A    
O16   H16   S    
C12   O3    A    
O9    H5    S    
C24   C25   T    
C20   O14   S    
C11   C13   A    
C26   C27   T    
C5    C6    A    
C23   O8    A    
O8    Zn2   S    
C14   O15   S    
C25   C26   S    
C5    H3    S    
C13   C22   S    
C3    C8    A    
C30   H11   S    
C18   N2    A    
N2    Zn1   S    
C12   O4    A    
O14   H14   S    
C30   H12   S    
C29   H9    S    
O2    Zn2   S    
C10   C11   A    
C20   N1    A    
O15   H15   S    
C15   O16   S    
C17   O10   S    
O6    Zn2   S    
C1    C9    S    
O13   C30   S    
C1    O1    A    
O7    Zn1   S    
C17   C18   A    
O11   C29   S    
C21   H2    S    
C2    C23   S    
C2    C28   T    
C14   C15   A    
C18   C19   A    
C30   H13   S    
O5    Zn1   S    
C21   N2    A    
C4    O12   S    
C16   H1    S    
O12   H10   S    
N1    Zn2   S    
C22   O5    A    
C14   C19   A    
C11   O13   S    
C15   C16   A    
C16   C17   A    
C19   N1    A    
C4    C5    A    
C27   C28   S    
C3    C4    A    
