data_mof_unit_4838.cif
_audit_creation_date              2012-12-10T17:23:39-0500
_audit_creation_method            fapswitch 2.2
_symmetry_space_group_name_H-M    P1
_symmetry_Int_Tables_number       1
_space_group_crystal_system       triclinic
_cell_length_a                    9.581065
_cell_length_b                    10.868064
_cell_length_c                    17.308389
_cell_angle_alpha                 93.088674
_cell_angle_beta                  85.301515
_cell_angle_gamma                 90.963973
_cell_volume                      1793.47624776

loop_
_atom_site_label
_atom_site_type_symbol
_atom_type_description
_atom_site_fract_x
_atom_site_fract_y
_atom_site_fract_z
_atom_type_partial_charge
C1    C     C_R   0.501746 0.736549 0.493751 0.798177
C2    C     C_R   0.367623 0.438248 0.775334 -0.200351
C3    C     C_R   0.458698 0.572646 0.147136 -0.199314
C4    C     C_R   0.442282 0.569580 0.227553 -0.182287
C5    C     C_R   0.638540 0.430676 0.223987 -0.214653
C6    C     C_R   0.652376 0.430711 0.143459 -0.154051
C7    C     C_R   0.562867 0.501847 0.104275 0.149020
C8    C     C_2   0.461812 0.504975 0.979770 -0.317778
C9    C     C_2   0.578545 0.500933 0.018569 0.239868
C10   C     C_R   0.532769 0.499222 0.266129 -0.009590
C11   C     C_R   0.278911 0.869332 0.423390 -0.169607
C12   C     C_R   0.480940 0.501798 0.649677 0.795647
C13   C     C_R   0.150490 0.925683 0.416176 0.305884
C14   C     C_R   0.124666 0.040486 0.454043 -0.230215
C15   C     C_R   0.231443 0.104861 0.489348 -0.222494
C16   C     C_R   0.368305 0.056486 0.486468 0.095323
C17   C     C_R   0.383675 0.930371 0.464912 0.041347
C18   C     C_R   0.503494 0.869614 0.485558 -0.101377
C19   C     C_R   0.619332 0.938262 0.508282 -0.210134
C20   C     C_R   0.614884 0.065526 0.513833 -0.214899
C21   C     C_R   0.490498 0.126728 0.503833 -0.101986
C22   C     C_R   0.868558 0.341192 0.393073 -0.152755
C23   C     C_R   0.497272 0.261957 0.502638 0.780367
C24   C     C_R   0.947357 0.266499 0.339057 -0.242944
C25   C     C_R   0.091243 0.267114 0.338685 -0.193640
C26   C     C_R   0.156935 0.341430 0.392878 -0.142741
C27   C     C_R   0.081147 0.422343 0.447150 0.179899
C28   C     C_R   0.931503 0.422372 0.447169 0.214689
C29   C     C_R   0.919893 0.572577 0.551070 -0.083401
C30   C     C_R   0.067965 0.572825 0.550892 -0.066697
C31   C     C_R   0.519195 0.499368 0.350315 0.758442
C32   C     C_R   0.469579 0.508039 0.733938 -0.017623
C33   C     C_R   0.562615 0.583892 0.773448 -0.209994
C34   C     C_R   0.556574 0.587283 0.853885 -0.151921
C35   C     C_R   0.462438 0.509929 0.895246 0.175326
C36   C     C_R   0.364551 0.438829 0.855971 -0.161194
Cu1   Cu    Cu3+1 0.359340 0.500010 0.500010 0.919513
Cu2   Cu    Cu3+1 0.640660 0.499990 0.499990 0.925502
H1    H     H_    0.639122 0.641052 0.742042 0.136784
H2    H     H_    0.732644 0.374699 0.111804 0.158186
H3    H     H_    0.713563 0.893638 0.522414 0.158417
H4    H     H_    0.298449 0.780141 0.394027 0.153680
H5    H     H_    0.022434 0.081745 0.454627 0.153029
H6    H     H_    0.201751 0.189863 0.520654 0.187832
H7    H     H_    0.708609 0.116023 0.528147 0.165716
H8    H     H_    0.859572 0.632732 0.592507 0.134304
H9    H     H_    0.758881 0.330348 0.390187 0.197212
H10   H     H_    0.895987 0.205926 0.298151 0.147553
H11   H     H_    0.361389 0.624355 0.259744 0.144823
H12   H     H_    0.152386 0.206435 0.297834 0.156926
H13   H     H_    0.266716 0.328481 0.391181 0.203825
H14   H     H_    0.118412 0.633050 0.592246 0.145748
H15   H     H_    0.708778 0.375466 0.253227 0.138090
H16   H     H_    0.288401 0.381593 0.887537 0.129693
H17   H     H_    0.390563 0.631031 0.118661 0.133063
H18   H     H_    0.293982 0.380495 0.745211 0.142465
H19   H     H_    0.359287 0.500695 0.011484 0.133595
H20   H     H_    0.626736 0.648792 0.883572 0.146727
N1    N     N_R   0.852190 0.498790 0.499250 -0.197287
N2    N     N_R   0.148060 0.498710 0.499220 -0.206450
O1    O     O_R   0.381190 0.680360 0.500010 -0.583346
O2    O     O_R   0.618760 0.680340 0.500000 -0.585665
O3    O     O_R   0.367440 0.500030 0.613600 -0.580320
O4    O     O_R   0.605010 0.500010 0.613590 -0.577082
O5    O     O_R   0.381240 0.319660 0.500000 -0.613029
O6    O     O_R   0.618810 0.319640 0.499990 -0.597151
O7    O     O_R   0.394990 0.499990 0.386410 -0.606424
O8    O     O_R   0.632560 0.499970 0.386400 -0.596820
N3    N     N_2   0.049150 0.869221 0.369392 -0.450086
H21   H     H_    0.972930 0.928140 0.355236 0.248287
C37   C     C_3   0.991406 0.753243 0.394940 -0.651694
H22   H     H_    0.915876 0.716422 0.353855 0.232999
H23   H     H_    0.935166 0.767270 0.453344 0.224769
H24   H     H_    0.075222 0.684426 0.396343 0.236642
N4    N     N_2   0.714254 0.480333 0.979157 -0.434982
H25   H     H_    0.718662 0.445519 0.922472 0.266413
C38   C     C_3   0.820940 0.571995 0.995251 -0.711950
H26   H     H_    0.921784 0.544916 0.963130 0.225345
H27   H     H_    0.837047 0.579426 0.058096 0.241653
H28   H     H_    0.790880 0.663386 0.976700 0.221155

loop_
_geom_bond_atom_site_label_1
_geom_bond_atom_site_label_2
_ccdc_geom_bond_type
C16   C21   A    
C35   C36   A    
C1    O2    A    
C38   H26   S    
C31   O7    A    
C1    C18   S    
Cu1   Cu2   S    
C23   O6    A    
C5    H15   S    
C15   H6    S    
C18   C19   A    
C3    C7    A    
C27   N2    A    
C5    C6    A    
C12   O4    A    
C28   N1    A    
C15   C16   A    
C11   H4    S    
C2    C32   A    
C34   C35   A    
N3    C37   S    
C25   H12   S    
C3    H17   S    
C10   C31   S    
Cu2   O6    S    
C8    C9    D    
C30   N2    A    
C20   H7    S    
C22   H9    S    
C22   C28   A    
C13   C14   A    
C12   C32   S    
Cu1   O3    S    
C33   C34   A    
Cu2   O4    S    
C38   H27   S    
C31   O8    A    
C24   H10   S    
C29   N1    A    
C24   C25   A    
C37   H23   S    
C12   O3    A    
C16   C17   A    
C25   C26   A    
Cu1   O5    S    
C8    C35   S    
N4    H25   S    
C29   C30   A    
C8    H19   S    
C17   C18   A    
C26   C27   A    
C33   H1    S    
N4    C38   S    
Cu2   O8    S    
C21   C23   S    
C22   C24   A    
C4    C10   A    
C3    C4    A    
C38   H28   S    
C2    C36   A    
C7    C9    S    
C30   H14   S    
C11   C17   A    
C1    O1    A    
C37   H24   S    
Cu1   O1    S    
C6    C7    A    
C4    H11   S    
C29   H8    S    
C32   C33   A    
C23   O5    A    
C19   C20   A    
C37   H22   S    
C2    H18   S    
C26   H13   S    
C11   C13   A    
C13   N3    S    
Cu1   O7    S    
C6    H2    S    
N3    H21   S    
Cu1   N2    S    
C36   H16   S    
Cu2   N1    S    
C5    C10   A    
C20   C21   A    
C27   C28   A    
C34   H20   S    
C14   C15   A    
C9    N4    S    
C19   H3    S    
C14   H5    S    
Cu2   O2    S    
