data_mof_unit_892.cif
_audit_creation_date              2012-12-11T15:23:35-0500
_audit_creation_method            fapswitch 2.2
_symmetry_space_group_name_H-M    P1
_symmetry_Int_Tables_number       1
_space_group_crystal_system       triclinic
_cell_length_a                    6.933946
_cell_length_b                    17.510506
_cell_length_c                    19.28274
_cell_angle_alpha                 109.417383
_cell_angle_beta                  90.298872
_cell_angle_gamma                 90.580883
_cell_volume                      2207.87954622

loop_
_atom_site_label
_atom_site_type_symbol
_atom_type_description
_atom_site_fract_x
_atom_site_fract_y
_atom_site_fract_z
_atom_type_partial_charge
O1    O     O_R   0.505810 0.439670 0.562310 -0.539363
O2    O     O_R   0.169070 0.404920 0.411210 -0.541809
O3    O     O_R   0.005550 0.560330 0.437690 -0.539697
C1    C     C_R   0.338389 0.381667 0.383025 0.716657
O4    O     O_R   0.175650 0.430000 0.560110 -0.542547
O5    O     O_R   0.012170 0.585580 0.587650 -0.539937
C2    C     C_R   0.344624 0.414681 0.581617 0.709584
O6    O     O_R   0.499180 0.414420 0.412350 -0.540295
O7    O     O_3   0.341430 0.551020 0.508860 -0.370033
V1    V     V_3+5 0.063930 0.490540 0.498360 1.394924
O8    O     O_R   0.682850 0.595080 0.588790 -0.541425
C3    C     C_R   0.853120 0.618378 0.616926 0.679501
O9    O     O_R   0.676280 0.570000 0.439890 -0.542920
C4    C     C_R   0.845142 0.585220 0.418300 0.708814
V2    V     V_3+5 0.564760 0.509460 0.501640 1.395226
O10   O     O_3   0.837130 0.448980 0.491140 -0.369017
C5    C     C_R   0.068963 0.865579 0.178805 -0.217757
C6    C     C_R   0.914792 0.865115 0.130853 -0.087026
C7    C     C_R   0.748956 0.818013 0.130846 -0.224988
C8    C     C_R   0.737235 0.771210 0.177432 0.090589
C9    C     C_R   0.891296 0.772947 0.226082 0.052857
C10   C     C_R   0.057224 0.820690 0.227041 0.089683
C11   C     C_R   0.574162 0.722614 0.176241 -0.189183
C12   C     C_R   0.562504 0.676928 0.223479 -0.181228
C13   C     C_R   0.713388 0.679191 0.272962 0.090744
C14   C     C_R   0.879304 0.726943 0.273922 0.053321
C15   C     C_R   0.033360 0.728693 0.322578 0.089924
C16   C     C_R   0.196453 0.777271 0.323757 -0.191559
C17   C     C_R   0.208126 0.822942 0.276512 -0.183899
C18   C     C_R   0.701654 0.634310 0.321210 -0.223759
C19   C     C_R   0.855812 0.634814 0.369183 -0.083896
C20   C     C_R   0.021629 0.681919 0.369181 -0.222176
H1    H     H_    0.196622 0.902157 0.179597 0.123672
H2    H     H_    0.629849 0.816991 0.093873 0.125003
H3    H     H_    0.454812 0.720325 0.139067 0.133584
H4    H     H_    0.434571 0.640225 0.221658 0.135792
H5    H     H_    0.574029 0.597711 0.320412 0.121984
H6    H     H_    0.140737 0.682960 0.406160 0.127189
H7    H     H_    0.315805 0.779558 0.360930 0.133119
H8    H     H_    0.336077 0.859631 0.278323 0.134619
C21   C     C_3   0.709398 0.777589 0.773093 -0.112340
C22   C     C_3   0.799173 0.774923 0.698943 -0.144941
H9    H     H_    0.727542 0.795056 0.656493 0.102021
H10   H     H_    0.563619 0.800499 0.792299 0.109612
C23   C     C_3   0.869192 0.688587 0.687628 -0.006433
C24   C     C_3   0.779553 0.690440 0.760983 -0.144447
C25   C     C_3   0.971878 0.725000 0.801110 -0.144672
C26   C     C_3   0.061652 0.722334 0.726959 -0.111847
C27   C     C_3   0.991498 0.809482 0.739070 -0.145273
C28   C     C_3   0.901859 0.811336 0.812424 -0.002105
H11   H     H_    0.691582 0.641050 0.769530 0.101618
H12   H     H_    0.043508 0.704867 0.843560 0.102195
H13   H     H_    0.207432 0.699424 0.707753 0.111530
H14   H     H_    0.079468 0.858873 0.730522 0.099764
C29   C     C_3   0.556820 0.284372 0.276927 -0.148507
C30   C     C_3   0.499132 0.194496 0.263935 -0.246537
H15   H     H_    0.594094 0.149165 0.275065 0.134300
H16   H     H_    0.698402 0.313269 0.297876 0.120178
C31   C     C_3   0.413968 0.188407 0.187937 -0.046824
C32   C     C_3   0.467775 0.277180 0.201687 0.352020
C33   C     C_3   0.270399 0.306395 0.236723 -0.264018
C34   C     C_3   0.218541 0.217099 0.224738 0.379707
C35   C     C_3   0.300304 0.222466 0.300643 -0.194501
C36   C     C_3   0.356790 0.311537 0.312359 -0.107576
H17   H     H_    0.175170 0.351184 0.224833 0.127718
H18   H     H_    0.226502 0.199704 0.340985 0.117616
C37   C     C_R   0.568719 0.135064 0.821300 -0.222918
C38   C     C_R   0.416664 0.135311 0.869478 -0.077217
C39   C     C_R   0.252677 0.182219 0.869707 -0.207975
C40   C     C_R   0.240493 0.228863 0.823025 0.084793
C41   C     C_R   0.392177 0.227244 0.774069 0.052753
C42   C     C_R   0.556371 0.179824 0.772956 0.091722
C43   C     C_R   0.079162 0.277106 0.824361 -0.184765
C44   C     C_R   0.066849 0.322572 0.776970 -0.183520
C45   C     C_R   0.215276 0.320427 0.727163 0.090369
C46   C     C_R   0.379485 0.273019 0.726058 0.053793
C47   C     C_R   0.531161 0.271396 0.677098 0.089188
C48   C     C_R   0.692509 0.223164 0.675773 -0.191758
C49   C     C_R   0.704816 0.177694 0.723160 -0.185152
C50   C     C_R   0.202872 0.365147 0.678786 -0.224449
C51   C     C_R   0.354882 0.364871 0.630581 -0.084560
C52   C     C_R   0.518928 0.318007 0.630387 -0.221250
H19   H     H_    0.694911 0.098665 0.820337 0.120176
H20   H     H_    0.135203 0.183109 0.906855 0.135072
H21   H     H_    0.961627 0.279280 0.861765 0.139935
H22   H     H_    0.940295 0.359012 0.778933 0.135371
H23   H     H_    0.076648 0.401523 0.679734 0.122988
H24   H     H_    0.636386 0.317107 0.593230 0.128247
H25   H     H_    0.810044 0.220991 0.638369 0.133418
H26   H     H_    0.831367 0.141251 0.721195 0.133131
O11   O     O_R   0.271890 0.085690 0.087580 -0.515988
O12   O     O_R   0.595690 0.070020 0.939870 -0.541315
O13   O     O_R   0.758900 0.914390 0.912370 -0.545964
C53   C     C_R   0.426778 0.085420 0.918372 0.711810
O14   O     O_R   0.602020 0.095100 0.088770 -0.523441
O15   O     O_R   0.765280 0.939660 0.062330 -0.543332
C54   C     C_R   0.432586 0.118422 0.116976 0.743973
O16   O     O_R   0.265520 0.060430 0.937620 -0.544254
O17   O     O_3   0.429560 0.949050 0.991100 -0.383804
V3    V     V_3+5 0.707160 0.009450 0.001650 1.466135
O18   O     O_R   0.094540 0.929890 0.060190 -0.544671
C55   C     C_R   0.925598 0.914715 0.081743 0.719033
O19   O     O_R   0.088200 0.904800 0.911290 -0.546649
C56   C     C_R   0.917938 0.881548 0.883123 0.660341
V4    V     V_3+5 0.206300 0.990390 0.998440 1.441517
O20   O     O_3   0.934030 0.050940 0.008900 -0.348805
O21   O     O_3   0.557977 0.304879 0.149739 -0.640760
H27   H     H_    0.576744 0.363958 0.174358 0.283025
O22   O     O_3   0.040338 0.181272 0.197376 -0.628116
H28   H     H_    0.944515 0.210114 0.234520 0.281347

loop_
_geom_bond_atom_site_label_1
_geom_bond_atom_site_label_2
_ccdc_geom_bond_type
C9    C14   A    
C37   H19   S    
O18   C55   A    
C10   C17   A    
O15   C55   A    
C21   C22   S    
O11   V4    S    
C7    C8    A    
C4    C19   S    
C1    O6    A    
C51   C52   A    
C47   C48   A    
C28   C56   S    
C14   C15   A    
C12   H4    S    
O16   V4    S    
C6    C55   S    
C16   C17   A    
C6    C7    A    
C42   C49   A    
O5    C3    A    
C41   C46   A    
C53   O16   A    
V2    O10   S    
C30   H15   S    
C37   C42   A    
C43   C44   A    
C49   H26   S    
O9    C4    A    
O8    V2    S    
C25   C26   S    
C38   C39   A    
C21   C24   S    
C40   C41   A    
O1    V2    S    
C20   H6    S    
O7    V1    S    
C35   H18   S    
C31   C32   S    
O1    C2    A    
C29   C32   S    
C39   C40   A    
C5    H1    S    
C40   C43   A    
O13   C56   A    
C25   C28   S    
C48   H25   S    
O18   V4    S    
C26   H13   S    
O17   V4    S    
C44   C45   A    
C37   C38   A    
C12   C13   A    
O4    C2    A    
C48   C49   A    
C50   C51   A    
C22   C27   S    
C16   H7    S    
C13   C14   A    
C23   C24   S    
C24   H11   S    
O11   C54   A    
C18   H5    S    
C32   C33   S    
C22   C23   S    
C33   C36   S    
O2    C1    A    
C45   C46   A    
C34   C35   S    
O17   V3    S    
C8    C11   A    
O21   H27   S    
C29   C36   S    
C29   C30   S    
O12   C53   A    
C5    C6    A    
C30   C35   S    
O19   V4    S    
C46   C47   A    
C32   O21   S    
O13   V3    S    
C43   H21   S    
O3    C4    A    
C50   H23   S    
C26   C27   S    
C2    C51   S    
O6    V2    S    
C11   H3    S    
O9    V2    S    
C31   C54   S    
C21   H10   S    
C22   H9    S    
O2    V1    S    
C21   C28   S    
O19   C56   A    
O12   V3    S    
C45   C50   A    
C23   C26   S    
C13   C18   A    
C24   C25   S    
C31   C34   S    
C15   C20   A    
O14   V3    S    
C19   C20   A    
C3    C23   S    
C7    H2    S    
O5    V1    S    
O8    C3    A    
O14   C54   A    
C25   H12   S    
C44   H22   S    
V4    O20   S    
C1    C36   S    
V3    O20   S    
C5    C10   A    
C30   C31   S    
O7    V2    S    
C41   C42   A    
O3    V1    S    
V1    O10   S    
O22   H28   S    
C18   C19   A    
C34   O22   S    
C47   C52   A    
C52   H24   S    
O15   V3    S    
C17   H8    S    
C33   C34   S    
C38   C53   S    
C11   C12   A    
C35   C36   S    
C33   H17   S    
O4    V1    S    
C8    C9    A    
C27   C28   S    
C29   H16   S    
C15   C16   A    
C39   H20   S    
C9    C10   A    
C27   H14   S    
