data_mof_unit_3948.cif
_audit_creation_date              2012-12-11T15:09:41-0500
_audit_creation_method            fapswitch 2.2
_symmetry_space_group_name_H-M    P1
_symmetry_Int_Tables_number       1
_space_group_crystal_system       triclinic
_cell_length_a                    20.946494
_cell_length_b                    7.123595
_cell_length_c                    14.085798
_cell_angle_alpha                 89.366487
_cell_angle_beta                  98.252058
_cell_angle_gamma                 90.80054
_cell_volume                      2079.75143392

loop_
_atom_site_label
_atom_site_type_symbol
_atom_type_description
_atom_site_fract_x
_atom_site_fract_y
_atom_site_fract_z
_atom_type_partial_charge
O1    O     O_R   0.447130 0.507140 0.597350 -0.535082
O2    O     O_R   0.552870 0.007140 0.402650 -0.533508
O3    O     O_R   0.578910 0.181280 0.586990 -0.536729
O4    O     O_R   0.421090 0.681280 0.413010 -0.538753
C1    C     C_R   0.604554 0.344910 0.607301 0.731340
C2    C     C_R   0.395437 0.844078 0.392743 0.729185
O5    O     O_R   0.449230 0.177860 0.608640 -0.542549
O6    O     O_R   0.550770 0.677860 0.391360 -0.544067
O7    O     O_R   0.422260 0.000770 0.424450 -0.537306
O8    O     O_R   0.577740 0.500770 0.575550 -0.537552
C3    C     C_R   0.432450 0.344759 0.633963 0.680697
C4    C     C_R   0.566926 0.848088 0.365449 0.682844
O9    O     O_3   0.491310 0.336980 0.439550 -0.376297
O10   O     O_3   0.508690 0.836980 0.560450 -0.375178
V1    V     V_3+5 0.501610 0.064760 0.511210 1.439275
V2    V     V_3+5 0.498390 0.564760 0.488790 1.430994
C5    C     C_R   0.625521 0.967401 0.134484 -0.170163
C6    C     C_R   0.376359 0.379188 0.872675 -0.171181
H1    H     H_    0.533467 0.943944 0.182531 0.122094
H2    H     H_    0.467057 0.402911 0.820403 0.121294
H3    H     H_    0.712254 0.061463 0.022584 0.123515
H4    H     H_    0.293500 0.359949 0.997306 0.122761
H5    H     H_    0.604762 0.021714 0.064837 0.125598
H6    H     H_    0.398429 0.396305 0.946573 0.124888
C7    C     C_R   0.610441 0.863816 0.293611 -0.107827
C8    C     C_R   0.389018 0.348583 0.706163 -0.102846
C9    C     C_R   0.918994 0.736721 0.292152 0.412401
C10   C     C_R   0.075824 0.407307 0.693071 0.311326
C11   C     C_R   0.878212 0.657299 0.352417 0.289385
C12   C     C_R   0.112311 0.398310 0.616532 0.241713
C13   C     C_R   0.812442 0.700097 0.337703 -0.261877
C14   C     C_R   0.179091 0.382316 0.635911 -0.166528
C15   C     C_R   0.785988 0.823132 0.263380 0.063643
C16   C     C_R   0.211494 0.354149 0.730193 0.024902
C17   C     C_R   0.826354 0.886181 0.196146 -0.010580
C18   C     C_R   0.173817 0.350718 0.806637 -0.015988
C19   C     C_R   0.718932 0.867343 0.247719 0.081302
C20   C     C_R   0.280385 0.343140 0.751849 0.081969
C21   C     C_R   0.692174 0.943674 0.157295 0.079958
C22   C     C_R   0.309401 0.359083 0.849210 0.085758
C23   C     C_R   0.732223 0.998584 0.090656 -0.185558
C24   C     C_R   0.271476 0.354493 0.922856 -0.181003
C25   C     C_R   0.798466 0.976530 0.111069 -0.152263
C26   C     C_R   0.204879 0.343564 0.902130 -0.151955
C27   C     C_R   0.677960 0.843078 0.319309 0.277245
C28   C     C_R   0.321674 0.316955 0.681229 0.271791
C29   C     C_R   0.584909 0.923177 0.201340 -0.217144
C30   C     C_R   0.415500 0.381790 0.801161 -0.214437
C31   C     C_R   0.892881 0.843556 0.211543 -0.241790
C32   C     C_R   0.105970 0.368540 0.786783 -0.193648
H7    H     H_    0.781964 0.622474 0.380066 0.182968
H8    H     H_    0.204168 0.403667 0.575134 0.208688
H9    H     H_    0.827177 0.024152 0.057306 0.125285
H10   H     H_    0.177956 0.340674 0.962235 0.115783
C33   C     C_1   0.166667 0.858098 0.168145 -0.181055
C34   C     C_1   0.833578 0.356055 0.831245 -0.184149
C35   C     C_1   0.218936 0.855393 0.219549 0.009159
C36   C     C_1   0.781227 0.354294 0.780049 0.008211
C37   C     C_1   0.280611 0.853011 0.279757 0.007474
C38   C     C_1   0.719466 0.353868 0.720066 0.010280
C39   C     C_1   0.332972 0.850169 0.330929 -0.188362
C40   C     C_1   0.667054 0.352084 0.669009 -0.188544
O11   O     O_R   0.922300 0.202240 0.924350 -0.539062
O12   O     O_R   0.077700 0.702240 0.075650 -0.525436
O13   O     O_R   0.050780 0.535130 0.891350 -0.552754
O14   O     O_R   0.949220 0.035130 0.108650 -0.548624
C41   C     C_R   0.066688 0.369832 0.864760 0.766617
C42   C     C_R   0.932373 0.865870 0.134112 0.766764
O15   O     O_R   0.921100 0.531560 0.912990 -0.544855
O16   O     O_R   0.078900 0.031560 0.087010 -0.542880
O17   O     O_R   0.947120 0.708470 0.097370 -0.520073
O18   O     O_R   0.052880 0.208470 0.902630 -0.545717
C43   C     C_R   0.895949 0.363102 0.893216 0.722515
C44   C     C_R   0.104326 0.864010 0.106065 0.714392
O19   O     O_3   0.008710 0.375800 0.060400 -0.363373
O20   O     O_3   0.991290 0.875800 0.939600 -0.391220
V3    V     V_3+5 0.998380 0.648080 0.988790 1.439599
V4    V     V_3+5 0.001620 0.148080 0.011210 1.429063
O21   O     O_3   0.705533 0.823055 0.414324 -0.659560
H11   H     H_    0.672480 0.798078 0.456469 0.283396
O22   O     O_3   0.296172 0.244498 0.592827 -0.663212
H12   H     H_    0.329273 0.235946 0.549777 0.286572
O23   O     O_3   0.982557 0.679964 0.300573 -0.553541
C45   C     C_3   0.020138 0.773261 0.377734 0.087626
H13   H     H_    0.062343 0.683466 0.401683 0.199453
H14   H     H_    0.994437 0.791575 0.440903 0.116045
C46   C     C_3   0.044443 0.964056 0.345531 -0.382199
H15   H     H_    0.058735 0.951949 0.273189 0.206735
H16   H     H_    0.005099 0.068180 0.341631 0.206593
C47   C     C_3   0.102612 0.033309 0.414560 -0.724185
H17   H     H_    0.117788 0.174343 0.391229 0.265288
H18   H     H_    0.143708 0.936324 0.414703 0.226400
H19   H     H_    0.090213 0.041706 0.488445 0.238729
O24   O     O_3   0.010404 0.448313 0.677861 -0.581703
C48   C     C_3   0.999748 0.632370 0.639153 0.026077
H20   H     H_    0.953766 0.628405 0.589265 0.182738
H21   H     H_    0.037600 0.685132 0.597277 0.128224
C49   C     C_3   0.993062 0.773961 0.717712 -0.297059
H22   H     H_    0.956108 0.722381 0.761190 0.223440
H23   H     H_    0.040131 0.790242 0.764545 0.205883
C50   C     C_3   0.973130 0.966057 0.675137 -0.786468
H24   H     H_    0.009894 0.021816 0.632288 0.229732
H25   H     H_    0.968815 0.065676 0.733887 0.254332
H26   H     H_    0.925744 0.955723 0.628505 0.231276
O25   O     O_3   0.903247 0.527453 0.420778 -0.647008
H27   H     H_    0.868668 0.482757 0.457052 0.288379
O26   O     O_3   0.084628 0.410298 0.521773 -0.665760
H28   H     H_    0.037770 0.383214 0.517308 0.329013

loop_
_geom_bond_atom_site_label_1
_geom_bond_atom_site_label_2
_ccdc_geom_bond_type
O14   C42   A    
C46   H15   S    
C50   H24   S    
C31   C42   S    
C12   O26   S    
C9    C11   A    
O12   V3    S    
O15   V3    S    
C48   H20   S    
O1    C3    A    
C45   C46   S    
O2    C4    A    
C2    O7    A    
O22   H12   S    
C48   C49   S    
O3    V1    S    
C21   C23   A    
O5    C3    A    
C5    H5    S    
C6    H6    S    
C2    C39   S    
C38   C40   T    
O20   V4    S    
H1    C29   S    
C35   C37   S    
O16   V4    S    
C36   C38   S    
C10   O24   S    
C41   O18   A    
C5    C21   A    
C6    C22   A    
C14   H8    S    
O18   V4    S    
C33   C44   S    
C10   C32   A    
C25   H9    S    
O13   C41   A    
O16   C44   A    
O26   H28   S    
C13   C15   A    
O15   C43   A    
C12   C14   A    
C17   C25   A    
C32   C41   S    
C7    C29   A    
C8    C30   A    
O5    V1    S    
O6    V2    S    
C23   C25   A    
C11   O25   S    
C24   C26   A    
O14   V4    S    
C37   C39   T    
O13   V3    S    
O20   V3    S    
O4    C2    A    
O11   C43   A    
C3    C8    S    
C15   C19   A    
C14   C16   A    
O4    V2    S    
C17   C31   A    
C28   O22   S    
C47   H18   S    
O23   C45   S    
O6    C4    A    
C27   O21   S    
O1    V2    S    
C45   H13   S    
O2    V1    S    
O19   V3    S    
H2    C30   S    
H3    C23   S    
C50   H26   S    
C49   H23   S    
C33   C35   T    
C18   C26   A    
C19   C27   A    
C7    C27   A    
O17   V3    S    
C18   C32   A    
C47   H19   S    
C50   H25   S    
C34   C43   S    
C16   C20   A    
C5    C29   A    
C13   H7    S    
C22   C24   A    
O3    C1    A    
C6    C30   A    
C48   H21   S    
O9    V2    S    
C49   C50   S    
O25   H27   S    
C4    C7    S    
C9    O23   S    
O7    V1    S    
C1    O8    A    
C11   C13   A    
O8    V2    S    
C20   C22   A    
C47   H17   S    
H4    C24   S    
C42   O17   A    
C10   C12   A    
C15   C17   A    
C34   C36   T    
C1    C40   S    
C16   C18   A    
O24   C48   S    
O19   V4    S    
C20   C28   A    
C8    C28   A    
O21   H11   S    
C26   H10   S    
C19   C21   A    
C49   H22   S    
C46   C47   S    
C46   H16   S    
O12   C44   A    
O10   V1    S    
C45   H14   S    
C9    C31   A    
O11   V4    S    
