data_mof_unit_2611.cif
_audit_creation_date              2013-03-05T16:11:55-0500
_audit_creation_method            fapswitch 2.2
_symmetry_space_group_name_H-M    P1
_symmetry_Int_Tables_number       1
_space_group_crystal_system       triclinic
_cell_length_a                    15.742198
_cell_length_b                    10.62759
_cell_length_c                    9.912164
_cell_angle_alpha                 90.472353
_cell_angle_beta                  90.04501
_cell_angle_gamma                 90.04743
_cell_volume                      1658.26371204

loop_
_atom_site_label
_atom_site_type_symbol
_atom_site_description
_atom_site_fract_x
_atom_site_fract_y
_atom_site_fract_z
_atom_type_partial_charge
O1    O     O_R   0.499990 0.316750 0.614620 -0.583373
O2    O     O_R   0.500010 0.683250 0.385380 -0.583357
O3    O     O_R   0.500000 0.316780 0.385290 -0.595723
O4    O     O_R   0.500000 0.683220 0.614710 -0.595721
C1    C     C_R   0.502661 0.260549 0.499511 0.909593
C2    C     C_R   0.497337 0.739451 0.500489 0.909606
O5    O     O_R   0.376780 0.499970 0.614640 -0.598166
O6    O     O_R   0.623220 0.500030 0.385360 -0.598175
O7    O     O_R   0.376780 0.500000 0.385310 -0.566596
O8    O     O_R   0.623220 0.500000 0.614690 -0.566599
C3    C     C_R   0.338169 0.499074 0.499941 0.935450
C4    C     C_R   0.661830 0.500926 0.500059 0.935447
Zn1   Zn    Zn3+2 0.500000 0.499980 0.653120 1.090770
Zn2   Zn    Zn3+2 0.500000 0.500020 0.346880 1.090773
C5    C     C_3   0.972773 0.401918 0.568152 0.310712
C6    C     C_3   0.027226 0.598086 0.431850 0.310714
C7    C     C_3   0.027482 0.394009 0.440527 -0.155426
C8    C     C_3   0.972518 0.605995 0.559475 -0.155427
H1    H     H_    0.945836 0.489776 0.266100 0.217678
H2    H     H_    0.054163 0.510228 0.733902 0.217678
C9    C     C_1   0.249525 0.499339 0.499806 0.009023
C10   C     C_1   0.750475 0.500662 0.500194 0.009024
C11   C     C_3   0.029579 0.506413 0.628922 -0.291451
C12   C     C_3   0.970421 0.493591 0.371080 -0.291451
C13   C     C_3   0.083729 0.499596 0.498911 -0.036739
C14   C     C_3   0.916270 0.500408 0.501091 -0.036739
C15   C     C_1   0.174415 0.499669 0.499431 0.157582
C16   C     C_1   0.825585 0.500333 0.500570 0.157583
C17   C     C_R   0.438017 0.067966 0.431126 -0.122405
C18   C     C_R   0.561981 0.932035 0.568871 -0.122404
H3    H     H_    0.388850 0.123146 0.382791 0.214106
H4    H     H_    0.611149 0.876857 0.617204 0.214092
C19   C     C_R   0.431997 0.938605 0.431995 -0.051303
C20   C     C_R   0.568000 0.061396 0.568003 -0.051285
C21   C     C_R   0.495362 0.872012 0.501747 -0.092162
C22   C     C_R   0.504636 0.127989 0.498251 -0.092165
C23   C     C_R   0.547889 0.585027 0.072747 0.225563
C24   C     C_R   0.452111 0.414972 0.927252 0.225568
C25   C     C_R   0.547796 0.585101 0.929041 0.228590
C26   C     C_R   0.452204 0.414900 0.070958 0.228589
N1    N     N_R   0.499980 0.499970 0.857200 -0.224784
N2    N     N_R   0.500020 0.500030 0.142800 -0.224782
C27   C     C_2   0.056384 0.273840 0.374949 1.036717
O9    O     O_2   0.003646 0.198361 0.333640 -0.529251
O10   O     O_R   0.143047 0.248556 0.361348 -0.760547
H5    H     H_    0.154355 0.164527 0.315641 0.386382
C28   C     C_2   0.943616 0.726163 0.625053 1.036717
O11   O     O_2   0.996354 0.801643 0.666362 -0.529252
O12   O     O_R   0.856953 0.751447 0.638654 -0.760549
H6    H     H_    0.845645 0.835476 0.684361 0.386378
N3    N     N_R   0.944020 0.292699 0.643579 0.235698
O13   O     O_R   0.999462 0.216689 0.695923 -0.300447
O14   O     O_R   0.863428 0.270782 0.659769 -0.341158
N4    N     N_R   0.055980 0.707305 0.356423 0.235698
O15   O     O_R   0.000538 0.783315 0.304079 -0.300448
O16   O     O_R   0.136572 0.729222 0.340235 -0.341173
C29   C     C_2   0.357958 0.878315 0.363800 0.981407
O17   O     O_2   0.331101 0.776635 0.401516 -0.617537
O18   O     O_R   0.317079 0.940435 0.258161 -0.721408
H7    H     H_    0.267245 0.890930 0.220406 0.391658
C30   C     C_2   0.642036 0.121687 0.636201 0.981392
O19   O     O_2   0.668909 0.223348 0.598456 -0.617535
O20   O     O_R   0.682892 0.059592 0.741878 -0.721384
H8    H     H_    0.732726 0.109096 0.779633 0.391647
N5    N     N_R   0.599769 0.673424 0.144259 0.259761
O21   O     O_R   0.574459 0.789420 0.156655 -0.303950
O22   O     O_R   0.679178 0.646784 0.166108 -0.326176
N6    N     N_R   0.400235 0.326572 0.855739 0.259767
O23   O     O_R   0.425543 0.210573 0.843354 -0.303942
O24   O     O_R   0.320831 0.353218 0.833857 -0.326179
N7    N     N_R   0.598006 0.675676 0.859543 0.251171
O25   O     O_R   0.573977 0.792715 0.860131 -0.306793
O26   O     O_R   0.676339 0.648834 0.829451 -0.316473
N8    N     N_R   0.401990 0.324327 0.140453 0.251162
O27   O     O_R   0.426016 0.207287 0.139860 -0.306796
O28   O     O_R   0.323654 0.351170 0.170520 -0.316466

loop_
_geom_bond_atom_site_label_1
_geom_bond_atom_site_label_2
_geom_bond_distance
_ccdc_geom_bond_type
C24   C26   1.424446 A    
C4    C10   1.395467 S    
C8    C14   1.537845 S    
O7    Zn2   1.977098 S    
C8    C28   1.499424 S    
Zn1   N1    2.022876 S    
C28   O12   1.397105 S    
O10   H5    1.013983 S    
O5    C3    1.288733 A    
C17   C22   1.392920 A    
N8    O28   1.300273 A    
C18   C21   1.392922 A    
O1    C1    1.284227 A    
C12   C14   1.546911 S    
C29   O18   1.399088 S    
C1    C22   1.409117 S    
C17   C19   1.378081 A    
C23   N2    1.369688 A    
C2    C21   1.409118 S    
O4    Zn1   1.987346 S    
C30   O20   1.399087 S    
N6    O23   1.300747 A    
N5    O22   1.300342 A    
C23   N5    1.427882 S    
O6    Zn2   1.976602 S    
C5    N3    1.457788 S    
Zn2   N2    2.022876 S    
C5    C11   1.543461 S    
C9    C15   1.182398 T    
O18   H7    1.013848 S    
C6    C12   1.543461 S    
C10   C16   1.182400 T    
C17   H3    1.085043 S    
O2    C2    1.284226 A    
N4    O16   1.300008 A    
C7    C12   1.553511 S    
N8    O27   1.300352 A    
C18   C20   1.378075 A    
C8    C11   1.553514 S    
C24   N1    1.369682 A    
C25   N1    1.371000 A    
N7    O26   1.300270 A    
C5    C14   1.529934 S    
C3    C9    1.395469 S    
C20   C30   1.488713 S    
N3    O13   1.300329 A    
N3    O14   1.300009 A    
C27   O9    1.222014 D    
C7    C27   1.499425 S    
O7    C3    1.289122 A    
C28   O11   1.222015 D    
H2    C11   1.110345 S    
O6    C4    1.288734 A    
C27   O10   1.397106 S    
O3    Zn2   1.987346 S    
O8    C4    1.289122 A    
O4    C2    1.285237 A    
C24   N6    1.427883 S    
O12   H6    1.013982 S    
O1    Zn1   1.981244 S    
C6    C13   1.529933 S    
C5    C7    1.532702 S    
N4    O15   1.300328 A    
C19   C29   1.488724 S    
O3    C1    1.285233 A    
O8    Zn1   1.977096 S    
C13   C15   1.427599 S    
C14   C16   1.427597 S    
C7    C13   1.537845 S    
H1    C12   1.110345 S    
N7    O25   1.300356 A    
C23   C25   1.424448 A    
C18   H4    1.085042 S    
C29   O17   1.221633 D    
C26   N2    1.371004 A    
C19   C21   1.407858 A    
C26   N8    1.427031 S    
C20   C22   1.407848 A    
C11   C13   1.546910 S    
C30   O19   1.221634 D    
O2    Zn2   1.981243 S    
C6    N4    1.457788 S    
O20   H8    1.013848 S    
O5    Zn1   1.976605 S    
C6    C8    1.532704 S    
N5    O21   1.300744 A    
N6    O24   1.300342 A    
C25   N7    1.427032 S    
