data_mof_unit_2220.cif
_audit_creation_date              2012-12-10T18:47:47-0500
_audit_creation_method            fapswitch 2.2
_symmetry_space_group_name_H-M    P1
_symmetry_Int_Tables_number       1
_space_group_crystal_system       triclinic
_cell_length_a                    9.925042
_cell_length_b                    10.672264
_cell_length_c                    15.464213
_cell_angle_alpha                 91.676889
_cell_angle_beta                  67.390776
_cell_angle_gamma                 91.221648
_cell_volume                      1511.38927569

loop_
_atom_site_label
_atom_site_type_symbol
_atom_type_description
_atom_site_fract_x
_atom_site_fract_y
_atom_site_fract_z
_atom_type_partial_charge
C1    C     C_R   0.500603 0.739823 0.500667 0.868534
C2    C     C_R   0.367498 0.934654 0.538539 -0.190996
C3    C     C_R   0.499055 0.127601 0.498614 -0.006561
C4    C     C_R   0.500945 0.872399 0.501386 -0.006561
C5    C     C_R   0.950346 0.406678 0.455834 -0.125935
C6    C     C_R   0.049654 0.593322 0.544166 -0.125937
C7    C     C_R   0.094628 0.405262 0.454514 0.150805
C8    C     C_R   0.905372 0.594738 0.545486 0.150805
C9    C     C_R   0.408116 0.500524 0.675917 0.872923
C10   C     C_R   0.591884 0.499476 0.324083 0.872923
C11   C     C_R   0.349964 0.493733 0.777349 -0.063463
C12   C     C_R   0.499396 0.260177 0.499333 0.868534
C13   C     C_R   0.650036 0.506268 0.222651 -0.063463
C14   C     C_R   0.171434 0.424929 0.924843 -0.211292
C15   C     C_R   0.828567 0.575075 0.075157 -0.211293
C16   C     C_R   0.213004 0.440812 0.828737 -0.213943
C17   C     C_R   0.786997 0.559189 0.171263 -0.213942
C18   C     C_R   0.442642 0.529235 0.821958 -0.244085
C19   C     C_R   0.557358 0.470769 0.178041 -0.244087
C20   C     C_R   0.415319 0.491146 0.912049 0.083757
C21   C     C_R   0.584682 0.508859 0.087951 0.083757
C22   C     C_R   0.271651 0.452206 0.967140 0.147629
C23   C     C_R   0.321817 0.494886 0.106227 0.095292
C24   C     C_R   0.728350 0.547799 0.032860 0.147628
C25   C     C_R   0.523850 0.499629 0.950270 -0.000382
C26   C     C_R   0.476151 0.500377 0.049730 -0.000380
C27   C     C_3   0.249279 0.550635 0.205598 -0.410689
C28   C     C_3   0.292278 0.688691 0.211594 -0.323457
C29   C     C_3   0.217997 0.741989 0.311156 -0.865278
C30   C     C_3   0.750722 0.449372 0.794402 -0.410690
C31   C     C_3   0.707726 0.311315 0.788407 -0.323469
C32   C     C_3   0.782002 0.258016 0.688846 -0.865287
C33   C     C_3   0.191165 0.294464 0.407402 -0.383941
C34   C     C_R   0.678184 0.505122 0.893773 0.095293
C35   C     C_3   0.153411 0.221472 0.332075 -0.453431
C36   C     C_3   0.275027 0.130965 0.276446 -0.863784
C37   C     C_3   0.808835 0.705537 0.592597 -0.383940
C38   C     C_3   0.846591 0.778531 0.667923 -0.453432
C39   C     C_3   0.724976 0.869040 0.723549 -0.863782
C40   C     C_R   0.226330 0.453915 0.063909 -0.287602
C41   C     C_R   0.773671 0.546092 0.936092 -0.287601
C42   C     C_R   0.633408 0.937013 0.462822 -0.207601
C43   C     C_R   0.366592 0.062987 0.537178 -0.207600
C44   C     C_R   0.632502 0.065346 0.461461 -0.190996
H1    H     H_    0.111820 0.437531 0.106249 0.143570
H2    H     H_    0.263509 0.111416 0.567666 0.142983
H3    H     H_    0.735396 0.115664 0.430838 0.140884
H4    H     H_    0.264604 0.884336 0.569162 0.140883
H5    H     H_    0.910174 0.333084 0.422514 0.141829
H6    H     H_    0.089825 0.666916 0.577486 0.141829
H7    H     H_    0.097391 0.733853 0.334925 0.252603
H8    H     H_    0.254301 0.691138 0.359835 0.293192
H9    H     H_    0.248090 0.842382 0.313090 0.245478
H10   H     H_    0.412061 0.699055 0.190544 0.235438
H11   H     H_    0.259451 0.744277 0.163333 0.217762
H12   H     H_    0.888180 0.562476 0.893751 0.143571
H13   H     H_    0.128445 0.547724 0.227940 0.189547
H14   H     H_    0.266980 0.495787 0.259375 0.211454
H15   H     H_    0.745693 0.308867 0.640169 0.293196
H16   H     H_    0.902606 0.266154 0.665075 0.252609
H17   H     H_    0.751909 0.157622 0.686910 0.245477
H18   H     H_    0.740558 0.255731 0.836666 0.217767
H19   H     H_    0.587944 0.300949 0.809460 0.235442
H20   H     H_    0.733019 0.504219 0.740626 0.211454
H21   H     H_    0.871557 0.452286 0.772060 0.189546
H22   H     H_    0.376219 0.183669 0.235544 0.255100
H23   H     H_    0.465528 0.410630 0.213682 0.142928
H24   H     H_    0.298138 0.067419 0.324570 0.265882
H25   H     H_    0.241179 0.073680 0.226985 0.254060
H26   H     H_    0.051816 0.165393 0.365895 0.224674
H27   H     H_    0.137245 0.287370 0.282628 0.229080
H28   H     H_    0.304080 0.327894 0.372254 0.256432
H29   H     H_    0.185187 0.227832 0.462470 0.210344
H30   H     H_    0.701863 0.932583 0.675424 0.265883
H31   H     H_    0.623784 0.816337 0.764454 0.255100
H32   H     H_    0.758825 0.926328 0.773009 0.254061
H33   H     H_    0.862757 0.712635 0.717370 0.229080
H34   H     H_    0.534471 0.589374 0.786317 0.142926
H35   H     H_    0.948186 0.834609 0.634101 0.224674
H36   H     H_    0.814812 0.772167 0.537529 0.210346
H37   H     H_    0.695921 0.672107 0.627746 0.256431
H38   H     H_    0.861286 0.586559 0.204773 0.151696
H39   H     H_    0.138715 0.413442 0.795227 0.151697
H40   H     H_    0.062214 0.391236 0.965750 0.148630
H41   H     H_    0.937786 0.608768 0.034251 0.148630
H42   H     H_    0.736491 0.888583 0.432334 0.142983
N1    N     N_R   0.142780 0.500030 0.500020 -0.113790
N2    N     N_R   0.857220 0.499970 0.499980 -0.113789
O1    O     O_R   0.385370 0.683250 0.500010 -0.626233
O2    O     O_R   0.614630 0.316750 0.499990 -0.626233
O3    O     O_R   0.614700 0.683220 0.500000 -0.643967
O4    O     O_R   0.385300 0.316780 0.500000 -0.643967
O5    O     O_R   0.319830 0.500020 0.632250 -0.611698
O6    O     O_R   0.680170 0.499980 0.367750 -0.611699
O7    O     O_R   0.549160 0.499990 0.632240 -0.631203
O8    O     O_R   0.450840 0.500010 0.367760 -0.631203
Zn1   Zn    Zn3+2 0.346870 0.500020 0.500000 0.906826
Zn2   Zn    Zn3+2 0.653130 0.499980 0.500000 0.906826

loop_
_geom_bond_atom_site_label_1
_geom_bond_atom_site_label_2
_ccdc_geom_bond_type
C21   C26   A    
C11   C18   A    
C30   H20   S    
C35   C36   S    
C14   H40   S    
C5    H5    S    
O7    Zn2   S    
C3    C43   A    
C29   H9    S    
C12   O2    A    
C28   C29   S    
C19   C21   A    
C32   H17   S    
C30   C31   S    
C36   H22   S    
C23   C26   A    
C38   H35   S    
C10   O6    A    
C23   C40   A    
C17   H38   S    
C39   H30   S    
C3    C12   S    
C33   H28   S    
C5    N2    A    
C7    N1    A    
C35   H26   S    
C19   H23   S    
C42   H42   S    
C39   H31   S    
C9    O7    A    
C44   H3    S    
C25   C34   A    
C15   H41   S    
C35   H27   S    
C1    O3    A    
C24   C41   A    
C7    C33   S    
C31   H18   S    
C37   H37   S    
C34   C41   A    
C42   C44   A    
C28   H11   S    
O4    Zn1   S    
C40   H1    S    
C37   H36   S    
C3    C44   A    
C30   C34   S    
C31   H19   S    
C27   H13   S    
C5    C7    A    
C28   H10   S    
C13   C19   A    
C6    C8    A    
C2    H4    S    
C25   C26   A    
C10   C13   S    
C16   H39   S    
C6    N1    A    
O1    Zn1   S    
C8    N2    A    
C2    C4    A    
C41   H12   S    
C37   C38   S    
C11   C16   A    
O5    Zn1   S    
C31   C32   S    
C10   O8    A    
C2    C43   A    
C18   H34   S    
C22   C40   A    
O8    Zn1   S    
C39   H32   S    
C6    H6    S    
C9    C11   S    
C33   H29   S    
C15   C24   A    
C20   C22   A    
C23   C27   S    
C14   C16   A    
C8    C37   S    
C32   H16   S    
C9    O5    A    
C36   H25   S    
C29   H7    S    
C15   C17   A    
C1    O1    A    
C12   O4    A    
C27   H14   S    
C36   H24   S    
C38   H33   S    
C13   C17   A    
C1    C4    S    
C14   C22   A    
C38   C39   S    
C4    C42   A    
C33   C35   S    
C18   C20   A    
O3    Zn2   S    
C43   H2    S    
C30   H21   S    
C20   C25   A    
C21   C24   A    
C27   C28   S    
O6    Zn2   S    
C32   H15   S    
O2    Zn2   S    
N2    Zn2   S    
N1    Zn1   S    
C29   H8    S    
