data_mof_unit_431.cif
_audit_creation_date              2012-12-10T18:54:23-0500
_audit_creation_method            fapswitch 2.2
_symmetry_space_group_name_H-M    P1
_symmetry_Int_Tables_number       1
_space_group_crystal_system       triclinic
_cell_length_a                    10.89879
_cell_length_b                    9.858276
_cell_length_c                    22.565546
_cell_angle_alpha                 90.005428
_cell_angle_beta                  90.425259
_cell_angle_gamma                 89.999493
_cell_volume                      2424.4494824

loop_
_atom_site_label
_atom_site_type_symbol
_atom_type_description
_atom_site_fract_x
_atom_site_fract_y
_atom_site_fract_z
_atom_type_partial_charge
C1    C     C_R   0.259898 0.500003 0.504226 1.001148
C2    C     C_R   0.740102 0.500000 0.495774 1.001116
C3    C     C_R   0.616996 0.518945 0.233723 -0.001253
C4    C     C_R   0.382850 0.519240 0.766243 -0.001367
C5    C     C_R   0.613070 0.499000 0.295079 -0.226140
C6    C     C_R   0.386821 0.499298 0.704886 -0.226117
C7    C     C_R   0.501109 0.502559 0.324455 -0.116917
C8    C     C_R   0.498826 0.502601 0.675544 -0.116920
C9    C     C_R   0.391100 0.504661 0.292107 0.316528
C10   C     C_R   0.608797 0.504468 0.707924 0.316461
C11   C     C_R   0.395592 0.521668 0.230328 -0.087237
C12   C     C_R   0.604258 0.521489 0.769703 -0.087160
C13   C     C_R   0.508344 0.562932 0.204054 0.099937
C14   C     C_R   0.491540 0.562982 0.795950 0.099957
C15   C     C_R   0.062221 0.375697 0.506279 0.361874
C16   C     C_R   0.937775 0.624321 0.493728 0.359563
C17   C     C_R   0.937781 0.375693 0.493722 0.361899
C18   C     C_R   0.062223 0.624325 0.506272 0.359597
C19   C     C_R   0.873289 0.500004 0.492072 -0.395711
C20   C     C_R   0.126712 0.500009 0.507928 -0.395694
C21   C     C_R   0.572407 0.071877 0.539020 0.348279
C22   C     C_R   0.427620 0.928078 0.460964 0.348304
C23   C     C_R   0.427594 0.071864 0.460979 0.348254
C24   C     C_R   0.572379 0.928092 0.539037 0.348277
C25   C     C_R   0.500596 0.500169 0.388616 0.940805
C26   C     C_R   0.499405 0.500181 0.611384 0.940819
C27   C     C_R   0.595089 0.699487 0.873611 0.628332
C28   C     C_R   0.404936 0.699591 0.126410 0.628391
C29   C     C_R   0.383973 0.687703 0.876941 0.489147
C30   C     C_R   0.616041 0.687521 0.123081 0.489098
C31   C     C_R   0.382959 0.706481 0.939105 -0.063828
C32   C     C_R   0.617078 0.706338 0.060920 -0.063957
C33   C     C_R   0.497516 0.706851 0.968884 -0.012852
C34   C     C_R   0.502518 0.706845 0.031140 -0.012896
C35   C     C_R   0.606838 0.711793 0.935655 -0.064762
C36   C     C_R   0.393197 0.711913 0.064368 -0.064683
C37   C     C_R   0.273450 0.717424 0.972195 -0.099358
C38   C     C_R   0.726599 0.717175 0.027829 -0.099389
C39   C     C_R   0.278498 0.723873 0.034720 -0.066293
C40   C     C_R   0.721545 0.723626 0.965304 -0.066404
H1    H     H_    0.696370 0.477698 0.319970 0.200663
H2    H     H_    0.303515 0.478176 0.679968 0.200621
N1    N     N_R   0.489673 0.646128 0.850146 -0.314668
N2    N     N_R   0.510293 0.646081 0.149868 -0.314695
N3    N     N_R   0.500000 0.857200 0.500000 -0.207224
N4    N     N_R   0.500000 0.142800 0.500000 -0.207406
O1    O     O_R   0.316770 0.614620 0.500000 -0.551784
O2    O     O_R   0.683230 0.385380 0.500000 -0.550552
O3    O     O_R   0.683230 0.614620 0.500000 -0.551806
O4    O     O_R   0.316770 0.385380 0.500000 -0.550560
O5    O     O_R   0.499970 0.614690 0.416160 -0.573717
O6    O     O_R   0.500030 0.385310 0.583840 -0.576551
O7    O     O_R   0.500030 0.614690 0.583840 -0.573766
O8    O     O_R   0.499970 0.385310 0.416160 -0.576588
O9    O     O_2   0.682920 0.745891 0.837128 -0.510238
O10   O     O_2   0.317167 0.746139 0.162897 -0.510199
O11   O     O_2   0.285539 0.720830 0.843590 -0.542765
O12   O     O_2   0.714519 0.720454 0.156440 -0.542819
Zn1   Zn    Zn3+2 0.500000 0.653120 0.500000 1.125945
Zn2   Zn    Zn3+2 0.500000 0.346880 0.500000 1.123230
C41   C     C_2   0.152704 0.700957 0.942941 0.452966
H3    H     H_    0.117207 0.779282 0.913756 0.119358
O13   O     O_2   0.093829 0.597326 0.950825 -0.462209
C42   C     C_2   0.847353 0.700685 0.057079 0.452908
H4    H     H_    0.882777 0.778902 0.086346 0.119669
O14   O     O_2   0.906337 0.597168 0.049090 -0.462196
C43   C     C_2   0.161361 0.735588 0.067314 0.643798
H5    H     H_    0.098102 0.816737 0.056133 -0.025450
O15   O     O_2   0.131588 0.650485 0.103745 -0.456547
C44   C     C_2   0.838674 0.735248 0.932703 0.644293
H6    H     H_    0.901938 0.816415 0.943854 -0.025509
O16   O     O_2   0.868422 0.650063 0.896295 -0.456376
C45   C     C_2   0.726390 0.470420 0.201119 0.595228
H7    H     H_    0.720610 0.451619 0.153796 0.070036
O17   O     O_2   0.823533 0.448796 0.226758 -0.495573
C46   C     C_2   0.273337 0.470916 0.798805 0.595305
H8    H     H_    0.279036 0.452045 0.846123 0.070172
O18   O     O_2   0.176181 0.449537 0.773135 -0.495484
Cl1   Cl    Cl    0.249806 0.482184 0.329079 -0.497374
Cl2   Cl    Cl    0.750102 0.481737 0.670989 -0.497240
C47   C     C_2   0.289499 0.475867 0.193769 0.607985
H9    H     H_    0.197215 0.477426 0.211366 0.163562
O19   O     O_2   0.305082 0.430513 0.144019 -0.540814
C48   C     C_2   0.710252 0.475520 0.806288 0.607824
H10   H     H_    0.802554 0.476893 0.788709 0.163587
O20   O     O_2   0.694559 0.430237 0.856037 -0.540936
Cl3   Cl    Cl    0.130105 0.217472 0.525616 -0.357007
Cl4   Cl    Cl    0.869873 0.782562 0.474422 -0.355680
Cl5   Cl    Cl    0.869900 0.217457 0.474386 -0.356992
Cl6   Cl    Cl    0.130123 0.782577 0.525574 -0.355679
Cl7   Cl    Cl    0.666811 0.158956 0.589905 -0.359266
Cl8   Cl    Cl    0.333361 0.840882 0.410008 -0.360432
Cl9   Cl    Cl    0.333202 0.158929 0.410090 -0.359376
Cl10  Cl    Cl    0.666627 0.840912 0.589994 -0.360516

loop_
_geom_bond_atom_site_label_1
_geom_bond_atom_site_label_2
_ccdc_geom_bond_type
C30   C32   A    
C8    C26   S    
C45   H7    S    
C47   H9    S    
C28   O10   S    
O8    Zn2   S    
C11   C47   S    
C40   C44   S    
C24   N3    A    
C46   O18   D    
C24   Cl10  S    
C27   O9    S    
C12   C48   S    
C7    C9    A    
C9    Cl1   S    
C41   O13   D    
O6    Zn2   S    
C33   C35   A    
C48   H10   S    
C31   C33   A    
C44   H6    S    
C32   C38   A    
C1    O4    A    
C18   C20   A    
C3    C13   A    
C23   N4    A    
C29   N1    A    
C45   O17   D    
C30   N2    A    
C47   O19   D    
O2    Zn2   S    
C38   C42   S    
O7    Zn1   S    
C15   C20   A    
C43   H5    S    
C18   Cl6   S    
C17   Cl5   S    
C25   O8    A    
C4    C6    A    
C5    C7    A    
C10   Cl2   S    
C1    O1    A    
C6    C8    A    
C2    O2    A    
C28   N2    A    
C31   C37   A    
C43   O15   D    
C42   O14   D    
C25   O5    A    
C2    O3    A    
C26   O6    A    
C27   C35   A    
C29   C31   A    
C33   C34   A    
C46   H8    S    
C9    C11   A    
C10   C12   A    
C16   C18   A    
C12   C14   A    
O5    Zn1   S    
C26   O7    A    
C15   Cl3   S    
C21   N4    A    
C21   Cl7   S    
C15   C17   A    
C27   N1    A    
C5    H1    S    
N3    Zn1   S    
C1    C20   S    
N4    Zn2   S    
C2    C19   S    
C39   C43   S    
C36   C39   A    
C29   O11   S    
C3    C5    A    
C7    C25   S    
C37   C41   S    
O3    Zn1   S    
O4    Zn2   S    
C42   H4    S    
C35   C40   A    
C37   C39   A    
C38   C40   A    
C11   C13   A    
C16   C19   A    
C30   O12   S    
C17   C19   A    
C34   C36   A    
C4    C14   A    
C41   H3    S    
C3    C45   S    
C4    C46   S    
O1    Zn1   S    
C23   Cl9   S    
C22   N3    A    
C28   C36   A    
C8    C10   A    
C6    H2    S    
C21   C24   A    
C16   Cl4   S    
C22   Cl8   S    
C22   C23   A    
C48   O20   D    
C44   O16   D    
C13   N2    S    
C32   C34   A    
C14   N1    S    
