data_mof_unit_2825.cif
_audit_creation_date              2012-12-10T18:11:37-0500
_audit_creation_method            fapswitch 2.2
_symmetry_space_group_name_H-M    P1
_symmetry_Int_Tables_number       1
_space_group_crystal_system       triclinic
_cell_length_a                    10.485033
_cell_length_b                    12.713694
_cell_length_c                    13.060735
_cell_angle_alpha                 81.610365
_cell_angle_beta                  92.164302
_cell_angle_gamma                 102.094669
_cell_volume                      1684.13099396

loop_
_atom_site_label
_atom_site_type_symbol
_atom_type_description
_atom_site_fract_x
_atom_site_fract_y
_atom_site_fract_z
_atom_type_partial_charge
C1    C     C_R   0.488591 0.438638 0.691391 0.891102
C2    C     C_3   0.067315 0.598489 0.517376 -0.167928
C3    C     C_3   0.967959 0.521053 0.593034 -0.277542
C4    C     C_3   0.877256 0.500513 0.500159 -0.023535
C5    C     C_R   0.702781 0.694742 0.070073 -0.201071
C6    C     C_R   0.548921 0.596449 0.200880 -0.070939
C7    C     C_R   0.394463 0.299959 0.838581 0.549539
C8    C     C_R   0.365253 0.275345 0.943657 -0.236947
C9    C     C_R   0.416933 0.348656 0.010996 -0.281709
C10   C     C_R   0.504238 0.447170 0.975146 0.094475
C11   C     C_R   0.548520 0.464551 0.872603 0.023019
C12   C     C_R   0.741864 0.500436 0.500335 0.845284
C13   C     C_R   0.549392 0.529007 0.037899 0.108666
C14   C     C_R   0.653904 0.616774 0.004799 0.175832
C15   C     C_R   0.709451 0.623841 0.908205 -0.247663
C16   C     C_R   0.657197 0.548839 0.842589 -0.178166
C17   C     C_R   0.491882 0.526370 0.132555 -0.260053
C18   C     C_R   0.652180 0.683156 0.169292 -0.207177
C19   C     C_R   0.481357 0.398229 0.802059 -0.245732
C20   C     C_R   0.272727 0.082924 0.388327 -0.272220
C21   C     C_R   0.665282 0.800325 0.623199 -0.119311
C22   C     C_R   0.700508 0.904173 0.652410 0.421129
C23   C     C_R   0.518021 0.560863 0.309106 0.861451
C24   C     C_R   0.632903 0.983606 0.609587 -0.183147
C25   C     C_R   0.530401 0.960608 0.537828 -0.148214
C26   C     C_R   0.496973 0.853822 0.510587 0.105071
C27   C     C_R   0.461000 0.040274 0.490826 0.004041
C28   C     C_R   0.344623 0.007755 0.434982 0.122292
C29   C     C_R   0.305583 0.901752 0.418500 -0.398056
C30   C     C_R   0.392209 0.831319 0.437904 0.543242
C31   C     C_R   0.502571 0.151712 0.494764 -0.037594
C32   C     C_R   0.320176 0.191408 0.393305 0.037613
C33   C     C_R   0.258196 0.499672 0.499498 0.934872
C34   C     C_3   0.932311 0.401987 0.481305 -0.202602
C35   C     C_3   0.025154 0.424844 0.572257 0.465790
C36   C     C_3   0.122977 0.500332 0.498729 -0.007279
C37   C     C_3   0.031852 0.480069 0.406235 -0.240917
C38   C     C_3   0.973726 0.578064 0.424721 -0.146587
H1    H     H_    0.405572 0.466592 0.157667 0.141438
H2    H     H_    0.389456 0.324814 0.091128 0.158599
H3    H     H_    0.297368 0.201168 0.972460 0.160488
H4    H     H_    0.703777 0.556450 0.768575 0.144653
H5    H     H_    0.265786 0.251413 0.359134 0.126431
H6    H     H_    0.215090 0.878336 0.376990 0.158565
H7    H     H_    0.183008 0.058325 0.346041 0.140297
H8    H     H_    0.588939 0.184794 0.536331 0.116034
H9    H     H_    0.716372 0.737308 0.655251 0.129423
H10   H     H_    0.874417 0.321237 0.468301 0.156649
H11   H     H_    0.660405 0.062001 0.635733 0.152539
H12   H     H_    0.062578 0.463993 0.330574 0.144964
H13   H     H_    0.947693 0.641197 0.364256 0.134089
H14   H     H_    0.125688 0.678732 0.531350 0.168462
H15   H     H_    0.937551 0.536268 0.669139 0.139198
H16   H     H_    0.697713 0.737810 0.222632 0.156083
H17   H     H_    0.791857 0.688279 0.882674 0.138515
H18   H     H_    0.783583 0.761345 0.046195 0.143756
N1    N     N_R   0.432930 0.222190 0.444670 -0.104608
N2    N     N_R   0.566370 0.776980 0.554790 -0.125463
O1    O     O_R   0.467970 0.366730 0.627150 -0.564635
O2    O     O_R   0.510820 0.544830 0.662520 -0.618243
O3    O     O_R   0.664630 0.410960 0.482340 -0.633856
O4    O     O_R   0.707470 0.589060 0.517710 -0.632388
O5    O     O_R   0.489180 0.455170 0.337480 -0.624712
O6    O     O_R   0.532030 0.633270 0.372850 -0.549199
O7    O     O_R   0.292530 0.410940 0.482290 -0.604520
O8    O     O_R   0.335370 0.589040 0.517660 -0.572929
Zn1   Zn    Zn3+2 0.471390 0.381080 0.476380 0.966575
Zn2   Zn    Zn3+2 0.528610 0.618920 0.523620 0.977026
O9    O     O_3   0.058356 0.345541 0.648370 -0.728165
H19   H     H_    0.975405 0.308792 0.683481 0.331770
O10   O     O_3   0.327294 0.233673 0.770749 -0.557249
C39   C     C_3   0.386214 0.143368 0.772309 -0.244685
H20   H     H_    0.374008 0.090974 0.848789 0.140236
H21   H     H_    0.491481 0.168987 0.751931 0.141376
H22   H     H_    0.337475 0.093709 0.713282 0.200398
O11   O     O_3   0.799604 0.930323 0.722597 -0.764158
H23   H     H_    0.837515 0.865432 0.745305 0.318125
O12   O     O_3   0.376101 0.743004 0.384968 -0.554308
C40   C     C_3   0.333075 0.764154 0.281093 -0.329692
H24   H     H_    0.382966 0.845274 0.241771 0.162494
H25   H     H_    0.225346 0.754540 0.277478 0.152176
H26   H     H_    0.355649 0.702680 0.236783 0.179428

loop_
_geom_bond_atom_site_label_1
_geom_bond_atom_site_label_2
_ccdc_geom_bond_type
O8    Zn2   S    
C12   O3    A    
C34   C37   S    
C5    H18   S    
C35   C36   S    
C22   O11   S    
C33   O7    A    
C7    C8    A    
C11   C19   A    
C29   C30   A    
O6    Zn2   S    
C36   C37   S    
C1    O1    A    
C7    O10   S    
C15   C16   A    
C33   C36   S    
C34   C35   S    
C17   H1    S    
C2    C38   S    
O1    Zn1   S    
C8    C9    A    
O7    Zn1   S    
C31   H8    S    
C4    C12   S    
C9    C10   A    
C20   H7    S    
C23   O5    A    
C21   C22   A    
C32   N1    A    
N1    Zn1   S    
C39   H22   S    
C33   O8    A    
O5    Zn1   S    
O11   H23   S    
C6    C18   A    
C4    C34   S    
C1    C19   S    
C27   C31   A    
C24   C25   A    
C39   H21   S    
C1    O2    A    
C40   H25   S    
O12   C40   S    
C5    C18   A    
C20   C28   A    
C25   C26   A    
C9    H2    S    
C15   H17   S    
C37   C38   S    
C12   O4    A    
C11   C16   A    
O3    Zn1   S    
C3    C35   S    
C8    H3    S    
C26   N2    A    
C35   O9    S    
C5    C14   A    
C2    H14   S    
N2    Zn2   S    
C23   O6    A    
C4    C38   S    
C26   C30   A    
C7    C19   A    
C29   H6    S    
C22   C24   A    
C34   H10   S    
C3    C4    S    
C16   H4    S    
C20   C32   A    
C2    C36   S    
C24   H11   S    
C6    C17   A    
C28   C29   A    
C39   H20   S    
C10   C13   A    
C40   H26   S    
C38   H13   S    
C13   C17   A    
C25   C27   A    
O4    Zn2   S    
C31   N1    A    
C2    C3    S    
C21   N2    A    
C37   H12   S    
C3    H15   S    
C6    C23   S    
C32   H5    S    
O9    H19   S    
C10   C11   A    
C18   H16   S    
C40   H24   S    
C30   O12   S    
O10   C39   S    
O2    Zn2   S    
C27   C28   A    
C14   C15   A    
C13   C14   A    
C21   H9    S    
