data_mof_unit_3525.cif
_audit_creation_date              2012-12-11T16:58:25-0500
_audit_creation_method            fapswitch 2.2
_symmetry_space_group_name_H-M    P1
_symmetry_Int_Tables_number       1
_space_group_crystal_system       triclinic
_cell_length_a                    16.945899
_cell_length_b                    7.256381
_cell_length_c                    16.822731
_cell_angle_alpha                 89.978384
_cell_angle_beta                  100.440204
_cell_angle_gamma                 90.025181
_cell_volume                      2034.37500842

loop_
_atom_site_label
_atom_site_type_symbol
_atom_type_description
_atom_site_fract_x
_atom_site_fract_y
_atom_site_fract_z
_atom_type_partial_charge
O1    O     O_R   0.413450 0.494370 0.415710 -0.535404
O2    O     O_R   0.586550 0.994370 0.584290 -0.535425
O3    O     O_R   0.578420 0.819350 0.429360 -0.541113
O4    O     O_R   0.421580 0.319350 0.570640 -0.540853
C1    C     C_R   0.605307 0.656816 0.414635 0.717946
C2    C     C_R   0.394730 0.156692 0.585402 0.717919
O5    O     O_R   0.413570 0.823780 0.406240 -0.541673
O6    O     O_R   0.586430 0.323780 0.593760 -0.541700
O7    O     O_R   0.420530 0.998740 0.561000 -0.536126
O8    O     O_R   0.579470 0.498740 0.439000 -0.536218
C3    C     C_R   0.385762 0.655398 0.383994 0.685482
C4    C     C_R   0.614239 0.155405 0.616004 0.685220
O9    O     O_3   0.502480 0.662320 0.550800 -0.378447
O10   O     O_3   0.497520 0.162320 0.449200 -0.378570
V1    V     V_3+5 0.499540 0.935370 0.490580 1.383864
V2    V     V_3+5 0.500460 0.435370 0.509420 1.384043
C5    C     C_R   0.735331 0.991415 0.693911 0.107964
C6    C     C_R   0.264658 0.491335 0.306094 0.107727
C7    C     C_R   0.685673 0.147336 0.681871 -0.108623
C8    C     C_R   0.314327 0.647317 0.318131 -0.108584
C9    C     C_R   0.709131 0.300241 0.732337 -0.190238
C10   C     C_R   0.290872 0.800280 0.267673 -0.190061
H1    H     H_    0.674261 0.425717 0.724687 0.145040
H2    H     H_    0.325749 0.925805 0.275323 0.144999
C11   C     C_R   0.774935 0.289014 0.796810 -0.184478
C12   C     C_R   0.225060 0.789061 0.203208 -0.184629
H3    H     H_    0.788377 0.406982 0.836233 0.138881
H4    H     H_    0.211621 0.907078 0.163788 0.138864
C13   C     C_R   0.819367 0.124193 0.813134 -0.110219
C14   C     C_R   0.180619 0.624193 0.186881 -0.110321
C15   C     C_R   0.800201 0.980073 0.757643 0.110140
C16   C     C_R   0.199784 0.479999 0.242366 0.110244
C17   C     C_3   0.785744 0.780685 0.770856 -0.420704
C18   C     C_3   0.214224 0.280657 0.229149 -0.420600
C19   C     C_3   0.714903 0.792997 0.701139 -0.408118
C20   C     C_3   0.285070 0.292962 0.298862 -0.408170
H5    H     H_    0.767749 0.753639 0.830155 0.169204
H6    H     H_    0.232212 0.253749 0.169847 0.169271
H7    H     H_    0.835268 0.692777 0.757083 0.175277
H8    H     H_    0.164694 0.192646 0.242925 0.174965
H9    H     H_    0.655932 0.772882 0.720089 0.173391
H10   H     H_    0.344037 0.272974 0.279907 0.173435
H11   H     H_    0.723707 0.712223 0.647281 0.169128
H12   H     H_    0.276264 0.212077 0.352720 0.169067
C21   C     C_R   0.329129 0.160027 0.633107 -0.096433
C22   C     C_R   0.670863 0.660639 0.366866 -0.096611
C23   C     C_R   0.163198 0.113113 0.858000 -0.130699
C24   C     C_R   0.836898 0.612677 0.142143 -0.131253
C25   C     C_R   0.274217 0.948828 0.816055 -0.172787
C26   C     C_R   0.727064 0.445989 0.185361 -0.173689
C27   C     C_R   0.221777 0.974056 0.869851 -0.203217
C28   C     C_R   0.779241 0.471424 0.131320 -0.202346
C29   C     C_R   0.157926 0.230694 0.789581 0.226611
C30   C     C_R   0.841395 0.732428 0.209729 0.225876
C31   C     C_R   0.213658 0.209539 0.735453 0.066316
C32   C     C_R   0.785894 0.710939 0.264076 0.066650
C33   C     C_R   0.271161 0.064303 0.749083 0.056302
C34   C     C_R   0.729394 0.563450 0.251525 0.056469
C35   C     C_R   0.326821 0.038157 0.697009 -0.232142
C36   C     C_R   0.673944 0.537031 0.303808 -0.232708
C37   C     C_R   0.273226 0.304263 0.619846 -0.242970
C38   C     C_R   0.725872 0.806894 0.379133 -0.243080
C39   C     C_R   0.215103 0.329181 0.668645 0.291613
C40   C     C_R   0.783710 0.832393 0.330066 0.290843
H13   H     H_    0.371087 0.928994 0.708793 0.124775
H14   H     H_    0.630404 0.426163 0.292796 0.125120
H15   H     H_    0.275654 0.401777 0.571524 0.133235
H16   H     H_    0.722910 0.905655 0.426823 0.133877
H17   H     H_    0.317924 0.838500 0.827319 0.123601
H18   H     H_    0.684121 0.333924 0.174911 0.123475
H19   H     H_    0.226193 0.881159 0.920926 0.133304
H20   H     H_    0.775346 0.376947 0.080877 0.133789
O11   O     O_R   0.920630 0.775410 0.061150 -0.537768
O12   O     O_R   0.079370 0.275410 0.938850 -0.537848
O13   O     O_R   0.086500 0.441450 0.093690 -0.535590
O14   O     O_R   0.913500 0.941450 0.906310 -0.535752
C41   C     C_R   0.114037 0.610286 0.116197 0.676674
C42   C     C_R   0.885954 0.110280 0.883814 0.676684
O15   O     O_R   0.921670 0.445960 0.070740 -0.538082
O16   O     O_R   0.078330 0.945960 0.929260 -0.537787
O17   O     O_R   0.913380 0.271130 0.915780 -0.538137
O18   O     O_R   0.086620 0.771130 0.084220 -0.538289
C43   C     C_R   0.897035 0.613540 0.087416 0.701446
C44   C     C_R   0.102958 0.113634 0.912594 0.701717
O19   O     O_3   0.997500 0.603030 0.949220 -0.377026
O20   O     O_3   0.002500 0.103030 0.050780 -0.377100
V3    V     V_3+5 0.000470 0.329940 0.009420 1.384511
V4    V     V_3+5 0.999530 0.829940 0.990580 1.384523
N1    N     N_2   0.163359 0.484669 0.653907 -0.474306
H21   H     H_    0.193757 0.608119 0.663830 0.255795
C45   C     C_3   0.107928 0.482309 0.577529 -0.531177
H22   H     H_    0.063023 0.593827 0.577111 0.196602
H23   H     H_    0.075667 0.348522 0.568773 0.196695
H24   H     H_    0.140268 0.505693 0.526570 0.170521
N2    N     N_2   0.834321 0.990080 0.343643 -0.474462
H25   H     H_    0.803001 0.112171 0.333093 0.255903
C46   C     C_3   0.890010 0.991563 0.419858 -0.530412
H26   H     H_    0.934001 0.104822 0.419446 0.196629
H27   H     H_    0.923323 0.859256 0.429263 0.196638
H28   H     H_    0.857707 0.014790 0.470844 0.170443
N3    N     N_2   0.094828 0.362443 0.772657 -0.482972
H29   H     H_    0.090889 0.452186 0.819175 0.272695
C47   C     C_3   0.018255 0.288554 0.733506 -0.476678
H30   H     H_    0.975720 0.403479 0.714720 0.188805
H31   H     H_    0.992749 0.197494 0.775356 0.159464
H32   H     H_    0.025130 0.208333 0.678984 0.189433
N4    N     N_2   0.903434 0.867068 0.225596 -0.482651
H33   H     H_    0.906341 0.956271 0.178595 0.272881
C48   C     C_3   0.980723 0.797370 0.264902 -0.474604
H34   H     H_    0.022240 0.914554 0.282979 0.188372
H35   H     H_    0.006921 0.706824 0.223421 0.160079
H36   H     H_    0.974727 0.717789 0.319883 0.188409

loop_
_geom_bond_atom_site_label_1
_geom_bond_atom_site_label_2
_ccdc_geom_bond_type
C14   C16   A    
N3    H29   S    
C2    C21   S    
C20   H10   S    
N2    H25   S    
O1    C3    A    
O16   C44   A    
O2    C4    A    
C2    O7    A    
O15   V3    S    
C46   H26   S    
C24   C30   A    
C17   H7    S    
C30   N4    S    
C22   C38   A    
C18   H8    S    
C7    C9    A    
O14   C42   A    
C48   H35   S    
C33   C35   A    
C34   C36   A    
C25   C33   A    
O6    V2    S    
C37   C39   A    
C38   C40   A    
C17   C19   S    
C14   C41   S    
C13   C42   S    
C29   N3    S    
C25   C27   A    
C31   C39   A    
C26   C28   A    
N4    H33   S    
C32   C40   A    
O12   V3    S    
N1    C45   S    
C19   H11   S    
O14   V4    S    
C18   C20   S    
C23   C29   A    
O5    V1    S    
C36   H14   S    
N3    C47   S    
C25   H17   S    
N4    C48   S    
C27   H19   S    
C46   H27   S    
C29   C31   A    
C11   C13   A    
C30   C32   A    
C3    C8    S    
C26   C34   A    
O4    C2    A    
C48   H36   S    
C45   H22   S    
O20   V3    S    
C23   C27   A    
C17   H5    S    
C16   C18   S    
O4    V2    S    
O5    C3    A    
O11   V4    S    
C28   H20   S    
C45   H23   S    
C37   H15   S    
O6    C4    A    
C39   N1    S    
C15   C17   S    
C47   H31   S    
O1    V2    S    
C23   C44   S    
O2    V1    S    
O13   C41   A    
O17   V3    S    
O13   V3    S    
C8    C10   A    
C12   C14   A    
C31   C33   A    
C5    C15   A    
C10   H2    S    
C20   H12   S    
C6    C16   A    
C46   H28   S    
O3    V1    S    
O19   V4    S    
C9    C11   A    
C21   C35   A    
C22   C36   A    
C18   H6    S    
C40   N2    S    
O12   C44   A    
O3    C1    A    
N2    C46   S    
C11   H3    S    
C1    C22   S    
C12   H4    S    
C24   C43   S    
C38   H16   S    
C9    H1    S    
C26   H18   S    
C1    O8    A    
O16   V4    S    
O8    V2    S    
C48   H34   S    
C35   H13   S    
C45   H24   S    
O15   C43   A    
C42   O17   A    
C41   O18   A    
O18   V4    S    
C4    C7    S    
C21   C37   A    
C5    C7    A    
C32   C34   A    
C47   H32   S    
C6    C8    A    
O7    V1    S    
C19   H9    S    
C24   C28   A    
C13   C15   A    
C10   C12   A    
O9    V2    S    
C47   H30   S    
O10   V1    S    
C5    C19   S    
N1    H21   S    
C6    C20   S    
O11   C43   A    
