data_mof_unit_1549.cif
_audit_creation_date              2012-12-10T16:51:13-0500
_audit_creation_method            fapswitch 2.2
_symmetry_space_group_name_H-M    P1
_symmetry_Int_Tables_number       1
_space_group_crystal_system       triclinic
_cell_length_a                    27.778133
_cell_length_b                    8.672169
_cell_length_c                    7.432671
_cell_angle_alpha                 102.975604
_cell_angle_beta                  93.958303
_cell_angle_gamma                 92.398196
_cell_volume                      1737.59344909

loop_
_atom_site_label
_atom_site_type_symbol
_atom_type_description
_atom_site_fract_x
_atom_site_fract_y
_atom_site_fract_z
_atom_type_partial_charge
C1    C     C_R   0.498543 0.199655 0.453203 0.892499
C2    C     C_R   0.501457 0.800345 0.546797 0.892488
C3    C     C_R   0.102259 0.498659 0.515905 -0.043168
C4    C     C_R   0.897744 0.501632 0.484174 -0.043170
C5    C     C_R   0.125205 0.354339 0.479275 -0.020719
C6    C     C_R   0.874797 0.645951 0.520656 -0.020699
C7    C     C_R   0.097322 0.211496 0.437520 -0.151800
C8    C     C_R   0.902678 0.788795 0.562298 -0.151789
C9    C     C_R   0.130787 0.642251 0.559331 -0.021401
C10   C     C_R   0.869218 0.358038 0.440830 -0.021381
C11   C     C_R   0.354642 0.498826 0.509270 -0.036439
C12   C     C_R   0.645359 0.501258 0.490726 -0.036456
C13   C     C_R   0.971507 0.353846 0.455126 0.043959
C14   C     C_R   0.028497 0.646447 0.545037 0.043941
C15   C     C_R   0.977196 0.647204 0.536064 0.045165
C16   C     C_R   0.022808 0.353089 0.464000 0.045158
C17   C     C_R   0.949049 0.500894 0.491696 0.068554
C18   C     C_R   0.050955 0.499399 0.508416 0.068565
C19   C     C_R   0.941537 0.212037 0.410254 -0.215916
C20   C     C_R   0.058468 0.788255 0.590045 -0.215941
C21   C     C_R   0.891546 0.214505 0.403610 -0.143732
C22   C     C_R   0.108460 0.785784 0.596677 -0.143727
C23   C     C_R   0.407494 0.499636 0.502844 0.798864
C24   C     C_R   0.592507 0.500377 0.497156 0.798845
C25   C     C_R   0.047259 0.210465 0.430168 -0.214147
C26   C     C_R   0.952742 0.789827 0.569712 -0.214120
C27   C     C_2   0.497843 0.031737 0.426802 -0.362845
C28   C     C_2   0.502157 0.968263 0.573198 -0.362843
C29   C     C_R   0.175825 0.356327 0.484115 0.535469
C30   C     C_R   0.824174 0.643960 0.515756 0.535440
C31   C     C_R   0.181302 0.638908 0.563004 0.539213
C32   C     C_R   0.818701 0.361377 0.437115 0.539196
C33   C     C_R   0.283671 0.519820 0.684792 -0.098358
C34   C     C_R   0.716321 0.479935 0.315160 -0.098325
C35   C     C_R   0.333780 0.520519 0.679681 -0.212873
C36   C     C_R   0.666210 0.479145 0.320270 -0.212950
C37   C     C_R   0.324495 0.475905 0.344404 -0.204671
C38   C     C_R   0.675514 0.524705 0.655622 -0.204725
C39   C     C_R   0.274474 0.474697 0.349961 -0.102172
C40   C     C_R   0.725536 0.526004 0.650067 -0.102197
C41   C     C_R   0.253997 0.496809 0.519929 0.363655
C42   C     C_R   0.746005 0.503465 0.480057 0.363564
Cu1   Cu    Cu3+1 0.505380 0.517380 0.684380 0.956513
Cu2   Cu    Cu3+1 0.494620 0.482620 0.315620 0.956511
H1    H     H_    0.462194 0.378204 0.948557 0.225801
H2    H     H_    0.537806 0.621796 0.051443 0.225809
H3    H     H_    0.114112 0.098919 0.409444 0.186547
H4    H     H_    0.885888 0.901370 0.590229 0.186494
H5    H     H_    0.732114 0.462414 0.183387 0.134893
H6    H     H_    0.267870 0.537010 0.816534 0.134785
H7    H     H_    0.870392 0.102481 0.369189 0.193165
H8    H     H_    0.129614 0.897807 0.631178 0.193180
H9    H     H_    0.955249 0.095735 0.378791 0.138492
H10   H     H_    0.044757 0.904553 0.621655 0.138562
H11   H     H_    0.493776 0.960034 0.285766 0.179840
H12   H     H_    0.506224 0.039966 0.714234 0.179838
N1    N     N_R   0.202606 0.497312 0.524453 -0.473915
N2    N     N_R   0.797395 0.502972 0.475532 -0.473909
N3    N     N_2   0.486510 0.456430 0.038510 -0.218485
N4    N     N_2   0.513490 0.543570 0.961490 -0.218481
O1    O     O_R   0.503500 0.286120 0.619780 -0.583100
O2    O     O_R   0.496500 0.713880 0.380220 -0.583103
O3    O     O_R   0.494410 0.256780 0.308360 -0.583366
O4    O     O_R   0.505590 0.743220 0.691640 -0.583370
O5    O     O_R   0.434810 0.514700 0.655690 -0.591946
O6    O     O_R   0.565190 0.485300 0.344310 -0.591950
O7    O     O_R   0.425720 0.485350 0.344280 -0.584418
O8    O     O_R   0.574280 0.514650 0.655720 -0.584411
O9    O     O_2   0.198155 0.218706 0.448357 -0.515407
O10   O     O_2   0.801841 0.781581 0.551327 -0.515409
O11   O     O_2   0.791072 0.224405 0.397346 -0.512421
O12   O     O_2   0.208934 0.775875 0.602864 -0.512428
H13   H     H_    0.339477 0.458775 0.211089 0.158367
H14   H     H_    0.660536 0.542187 0.788964 0.158409
H15   H     H_    0.251548 0.457246 0.222277 0.136100
H16   H     H_    0.748469 0.543844 0.777770 0.136191
H17   H     H_    0.643886 0.460905 0.191082 0.158849
H18   H     H_    0.356094 0.538348 0.808857 0.158763
H19   H     H_    0.029027 0.094603 0.397014 0.135527
H20   H     H_    0.970974 0.905687 0.602715 0.135470

loop_
_geom_bond_atom_site_label_1
_geom_bond_atom_site_label_2
_ccdc_geom_bond_type
C8    C26   A    
C14   C18   A    
Cu2   O6    S    
C34   C42   A    
C32   N2    A    
C42   N2    S    
C28   H12   S    
C39   C41   A    
C19   C21   A    
C36   H17   S    
C27   H11   S    
C9    C22   A    
Cu2   N3    S    
C3    C18   A    
C23   O7    A    
C11   C37   A    
Cu1   O8    S    
C39   H15   S    
C12   C36   A    
C29   O9    S    
C24   O6    A    
C19   H9    S    
C40   C42   A    
N3    N4    D    
Cu2   O3    S    
C1    O3    A    
C30   O10   S    
C2    O4    A    
Cu1   O4    S    
C32   O11   S    
C5    C29   A    
C10   C21   A    
C13   C19   A    
C14   C20   A    
C4    C6    A    
C5    C7    A    
C24   O8    A    
C15   C26   A    
C6    C8    A    
Cu2   O2    S    
C33   H6    S    
C26   H20   S    
C40   H16   S    
C7    H3    S    
Cu1   Cu2   S    
C8    H4    S    
C3    C9    A    
Cu1   O5    S    
Cu1   N4    S    
C4    C17   A    
C20   H10   S    
C31   O12   S    
C6    C30   A    
C20   C22   A    
C4    C10   A    
C21   H7    S    
Cu1   O1    S    
C22   H8    S    
C38   H14   S    
C16   C25   A    
C15   C17   A    
C37   H13   S    
H1    N3    S    
C34   H5    S    
H2    N4    S    
C25   H19   S    
C29   N1    A    
C3    C5    A    
C1    O1    A    
C12   C24   S    
C35   H18   S    
C7    C25   A    
C13   C17   A    
C33   C41   A    
C23   O5    A    
C11   C35   A    
C41   N1    S    
C37   C39   A    
C38   C40   A    
C31   N1    A    
C30   N2    A    
C11   C23   S    
C33   C35   A    
C34   C36   A    
C12   C38   A    
C9    C31   A    
C10   C32   A    
C16   C18   A    
C13   C16   A    
C27   C28   D    
C1    C27   S    
C14   C15   A    
Cu2   O7    S    
C2    C28   S    
C2    O2    A    
