data_mof_unit_1364.cif
_audit_creation_date              2013-03-05T15:45:18-0500
_audit_creation_method            fapswitch 2.2
_symmetry_space_group_name_H-M    P1
_symmetry_Int_Tables_number       1
_space_group_crystal_system       triclinic
_cell_length_a                    23.355604
_cell_length_b                    10.631555
_cell_length_c                    10.025126
_cell_angle_alpha                 90.92858
_cell_angle_beta                  91.385035
_cell_angle_gamma                 90.209034
_cell_volume                      2488.22840833

loop_
_atom_site_label
_atom_site_type_symbol
_atom_site_description
_atom_site_fract_x
_atom_site_fract_y
_atom_site_fract_z
_atom_type_partial_charge
O1    O     O_R   0.499990 0.319060 0.613040 -0.657047
O2    O     O_R   0.500010 0.319100 0.386900 -0.565916
C1    C     C_R   0.499846 0.261470 0.497839 0.812054
O3    O     O_R   0.416150 0.499940 0.613100 -0.587548
O4    O     O_R   0.416160 0.499980 0.386960 -0.575745
C2    C     C_R   0.389445 0.494957 0.499159 0.941233
Zn1   Zn    Zn3+2 0.499990 0.499970 0.650990 1.007499
Zn2   Zn    Zn3+2 0.500010 0.500030 0.349010 1.039981
O5    O     O_R   0.499990 0.680900 0.613100 -0.570131
O6    O     O_R   0.500010 0.680940 0.386960 -0.589304
O7    O     O_R   0.583840 0.500020 0.613040 -0.583688
O8    O     O_R   0.583850 0.500060 0.386900 -0.614088
C3    C     C_R   0.492756 0.736100 0.500795 1.003288
C4    C     C_R   0.610626 0.501721 0.501741 0.922384
C5    C     C_R   0.882645 0.604238 0.532042 0.619909
N1    N     N_R   0.852653 0.495383 0.548849 -0.329500
C6    C     C_R   0.878827 0.384208 0.577574 0.633616
C7    C     C_R   0.938718 0.377821 0.585380 -0.163635
C8    C     C_R   0.970434 0.489859 0.568946 -0.100120
C9    C     C_R   0.942334 0.606373 0.551996 -0.107510
C10   C     C_R   0.968041 0.263212 0.606757 0.519568
C11   C     C_R   0.026961 0.257800 0.588205 -0.212272
C12   C     C_R   0.058348 0.367741 0.566833 -0.126844
C13   C     C_R   0.030513 0.484791 0.566200 -0.017240
C14   C     C_R   0.062675 0.596286 0.558937 -0.052401
C15   C     C_R   0.034847 0.712528 0.554800 -0.201400
C16   C     C_R   0.975108 0.719079 0.550575 0.308213
C17   C     C_R   0.117201 0.363948 0.545604 0.654637
N2    N     N_R   0.148004 0.473534 0.540307 -0.318123
C18   C     C_R   0.122283 0.588389 0.554411 0.606963
O9    O     O_2   0.854445 0.708291 0.492793 -0.477962
O10   O     O_2   0.846612 0.280373 0.594770 -0.493221
H1    H     H_    0.048167 0.167558 0.595032 0.216534
O11   O     O_2   0.143354 0.251968 0.528851 -0.512560
O12   O     O_2   0.154306 0.694395 0.560739 -0.529917
H2    H     H_    0.059422 0.799135 0.553308 0.219882
C19   C     C_R   0.233257 0.527759 0.410364 0.308780
C20   C     C_R   0.292909 0.532320 0.402513 -0.338812
H3    H     H_    0.312472 0.581466 0.321351 0.247132
C21   C     C_R   0.327553 0.477268 0.500638 -0.256783
C22   C     C_R   0.302727 0.409755 0.605066 0.373139
C23   C     C_R   0.243414 0.411235 0.618481 0.392991
C24   C     C_R   0.208521 0.468359 0.520826 0.021867
C25   C     C_R   0.764781 0.443186 0.422882 0.516689
C26   C     C_R   0.704962 0.445254 0.410515 -0.324877
H4    H     H_    0.683631 0.396604 0.327406 0.174151
C27   C     C_R   0.672874 0.504844 0.508659 -0.152156
C28   C     C_R   0.700158 0.562102 0.619664 -0.267877
H5    H     H_    0.675029 0.607113 0.695724 0.247096
C29   C     C_R   0.759457 0.559382 0.635819 0.280037
C30   C     C_R   0.791701 0.498347 0.536744 0.096801
C31   C     C_2   0.459812 0.930198 0.397141 0.308292
C32   C     C_2   0.475418 0.865096 0.505547 -0.439653
H6    H     H_    0.478488 0.911367 0.603060 0.173365
C33   C     C_2   0.459938 0.067462 0.408595 0.137771
C34   C     C_2   0.500574 0.125984 0.487568 0.139497
C35   C     C_2   0.515353 0.596929 0.928450 0.317927
N3    N     N_2   0.500610 0.501330 0.852150 -0.243564
H7    H     H_    0.479371 0.428187 0.895284 0.146769
C36   C     C_2   0.507207 0.600142 0.077041 -0.140187
N4    N     N_2   0.500630 0.501360 0.147810 -0.202201
H8    H     H_    0.511091 0.690227 0.128528 0.236115
H9    H     H_    0.502395 0.415193 0.100181 0.181206
O13   O     O_3   0.939664 0.153727 0.638541 -0.534608
C37   C     C_3   0.929808 0.153125 0.777551 0.201425
H10   H     H_    0.891356 0.093800 0.793053 0.222384
H11   H     H_    0.919647 0.248110 0.819731 0.099467
C38   C     C_3   0.980755 0.095999 0.854219 -0.428475
H12   H     H_    0.991400 0.002909 0.809522 0.274926
H13   H     H_    0.018744 0.158498 0.847334 0.216935
C39   C     C_3   0.967349 0.079590 0.001173 -0.813029
H14   H     H_    0.957134 0.171905 0.048190 0.260866
H15   H     H_    0.005130 0.039342 0.054313 0.286411
H16   H     H_    0.930424 0.014593 0.011455 0.280771
N5    N     N_R   0.785919 0.617348 0.753163 0.230072
O14   O     O_R   0.834999 0.578469 0.800357 -0.418714
O15   O     O_R   0.758889 0.703875 0.819692 -0.344150
N6    N     N_R   0.441530 0.870470 0.273265 0.240222
O16   O     O_R   0.453620 0.922000 0.160484 -0.308767
O17   O     O_R   0.404476 0.778726 0.273483 -0.371285
N7    N     N_R   0.416340 0.134581 0.334484 0.185042
O18   O     O_R   0.363183 0.099452 0.343415 -0.391455
O19   O     O_R   0.430584 0.196832 0.229575 -0.333734
O20   O     O_3   0.549843 0.059750 0.525850 -0.649504
C40   C     C_3   0.570301 0.092458 0.655912 0.110480
H17   H     H_    0.584038 0.004418 0.705375 0.209650
H18   H     H_    0.536722 0.132544 0.721024 0.151367
C41   C     C_3   0.622840 0.178524 0.647969 -0.305944
H19   H     H_    0.659838 0.122993 0.612205 0.243049
H20   H     H_    0.614454 0.253547 0.574825 0.218479
C42   C     C_3   0.638436 0.239065 0.783006 -0.879534
H21   H     H_    0.602220 0.296516 0.819576 0.270676
H22   H     H_    0.676099 0.301750 0.772303 0.265805
H23   H     H_    0.649235 0.165689 0.857005 0.272696
N8    N     N_R   0.540103 0.706434 0.871193 0.235084
O21   O     O_R   0.523987 0.817883 0.910043 -0.382584
O22   O     O_R   0.585968 0.695717 0.801236 -0.382853
N9    N     N_R   0.949003 0.840985 0.552046 0.246109
O23   O     O_R   0.913456 0.870424 0.645409 -0.310200
O24   O     O_R   0.968676 0.929286 0.477113 -0.340292
N10   N     N_R   0.198560 0.586812 0.308460 0.232958
O25   O     O_R   0.147602 0.544216 0.277065 -0.405322
O26   O     O_R   0.219373 0.678345 0.239611 -0.341069
O27   O     O_3   0.335917 0.353920 0.704090 -0.630062
C43   C     C_3   0.357426 0.236955 0.658660 0.087978
H24   H     H_    0.396290 0.216505 0.720509 0.173865
H25   H     H_    0.371537 0.239756 0.553784 0.135890
C44   C     C_3   0.313630 0.130669 0.676032 -0.297541
H26   H     H_    0.294241 0.139131 0.775558 0.245418
H27   H     H_    0.278936 0.138146 0.598780 0.265563
C45   C     C_3   0.341202 0.001019 0.665207 -0.853666
H28   H     H_    0.359745 0.986402 0.565632 0.283674
H29   H     H_    0.308284 0.927187 0.679677 0.288093
H30   H     H_    0.375467 0.990734 0.743018 0.264784
O28   O     O_3   0.218666 0.347974 0.722247 -0.619055
C46   C     C_3   0.225756 0.416080 0.844033 0.133942
H31   H     H_    0.183018 0.451713 0.872720 0.166458
H32   H     H_    0.255100 0.499143 0.839721 0.149383
C47   C     C_3   0.248495 0.326884 0.951289 -0.344359
H33   H     H_    0.223305 0.237892 0.947425 0.246350
H34   H     H_    0.293990 0.304385 0.932828 0.260591
C48   C     C_3   0.244858 0.384780 0.090386 -0.809304
H35   H     H_    0.268154 0.476029 0.095830 0.279672
H36   H     H_    0.264393 0.320390 0.164659 0.282830
H37   H     H_    0.199293 0.398956 0.114792 0.296380
O29   O     O_3   0.797445 0.373542 0.334965 -0.615932
C49   C     C_3   0.791066 0.415860 0.202262 0.096181
H38   H     H_    0.832405 0.458871 0.174046 0.188368
H39   H     H_    0.757352 0.488693 0.186690 0.143080
C50   C     C_3   0.778177 0.302570 0.110177 -0.348075
H40   H     H_    0.809995 0.227226 0.130232 0.258001
H41   H     H_    0.734851 0.265228 0.131069 0.227706
C51   C     C_3   0.780663 0.337300 0.963402 -0.864111
H42   H     H_    0.749652 0.413370 0.940414 0.281732
H43   H     H_    0.769770 0.253602 0.900005 0.270429
H44   H     H_    0.824576 0.368614 0.939421 0.289279

loop_
_geom_bond_atom_site_label_1
_geom_bond_atom_site_label_2
_geom_bond_distance
_ccdc_geom_bond_type
C20   C21   1.395921 A    
C33   C34   1.363118 D    
C16   N9    1.434324 S    
N10   O25   1.301525 A    
C7    C10   1.416725 A    
C22   C23   1.395161 A    
C8    C9    1.414713 A    
N1    C30   1.426316 S    
N7    O18   1.300741 A    
C40   H17   1.111071 S    
C46   H31   1.111611 S    
Zn1   O7    2.003989 S    
C43   H25   1.110234 S    
C25   O29   1.386553 S    
C15   C16   1.396874 A    
O29   C49   1.415914 S    
C18   O12   1.350104 S    
C22   O27   1.387090 S    
C17   N2    1.369493 A    
C20   H3    1.083426 S    
O7    C4    1.292672 A    
N6    O17   1.301668 A    
C47   C48   1.519512 S    
O28   C46   1.415294 S    
C44   H26   1.108111 S    
C36   H8    1.083058 S    
C7    C8    1.414375 A    
N4    H9    1.027600 S    
O5    C3    1.285880 A    
C10   O13   1.382861 S    
C45   H28   1.106607 S    
C46   H32   1.117882 S    
N1    C6    1.364352 A    
C37   H11   1.116995 S    
C51   H44   1.110214 S    
C12   C13   1.406136 A    
C33   N7    1.443583 S    
N2    C18   1.369587 A    
Zn1   N3    2.016174 S    
C31   C33   1.461975 S    
Zn2   N4    2.017735 S    
C28   C29   1.390984 A    
C17   O11   1.349981 S    
N10   O26   1.301626 A    
C10   C11   1.394325 A    
N2    C24   1.432662 S    
O3    Zn1   1.985598 S    
C31   N6    1.440345 S    
O27   C43   1.415422 S    
N7    O19   1.301033 A    
C34   O20   1.400198 S    
C3    C32   1.431755 S    
C26   C27   1.396419 A    
C5    C9    1.403604 A    
C43   C44   1.536243 S    
C40   H18   1.113985 S    
C13   C14   1.404835 A    
O3    C2    1.288392 A    
C42   H21   1.111069 S    
C39   H15   1.110392 S    
N6    O16   1.300996 A    
C38   H12   1.111262 S    
C35   C36   1.506160 S    
C29   C30   1.411921 A    
C14   C15   1.399156 A    
C26   H4    1.083515 S    
C36   N4    1.287674 D    
O1    C1    1.298297 A    
C19   C24   1.417673 A    
C50   H41   1.111514 S    
N5    O14   1.300874 A    
C49   H39   1.116412 S    
C19   C20   1.398044 A    
C42   H22   1.109961 S    
C1    C34   1.442627 S    
C27   C28   1.398555 A    
C41   C42   1.525066 S    
Zn2   O8    1.985601 S    
C37   C38   1.533507 S    
C6    C7    1.401041 A    
C45   H29   1.110381 S    
C44   C45   1.526892 S    
C12   C17   1.396627 A    
O20   C40   1.415380 S    
C5    O9    1.348803 S    
N5    O15   1.301663 A    
C47   H34   1.109251 S    
C25   C30   1.408231 A    
C15   H2    1.083736 S    
C21   C22   1.413536 A    
O8    C4    1.296670 A    
C37   H10   1.110982 S    
N9    O24   1.301205 A    
C51   H42   1.110852 S    
C2    C21   1.457479 S    
C50   C51   1.525259 S    
C23   C24   1.405604 A    
C48   H36   1.110678 S    
C49   H38   1.111522 S    
C31   C32   1.341669 D    
C40   C41   1.532399 S    
C14   C18   1.396819 A    
Zn1   O5    1.966745 S    
C11   H1    1.083708 S    
C28   H5    1.080152 S    
O1    Zn1   1.954563 S    
C8    C13   1.405336 A    
Zn2   O6    1.954564 S    
O2    Zn2   1.966744 S    
C25   C26   1.399895 A    
C41   H20   1.106981 S    
O6    C3    1.289709 A    
C39   H16   1.110914 S    
C47   H33   1.111937 S    
N8    O22   1.298831 A    
C32   H6    1.087923 S    
C4    C27   1.454050 S    
C9    C16   1.419976 A    
C43   H24   1.110955 S    
C46   C47   1.531855 S    
O13   C37   1.418069 S    
C48   H37   1.107996 S    
C50   H40   1.112039 S    
N3    H7    1.027710 S    
C49   C50   1.530163 S    
C39   H14   1.111072 S    
C29   N5    1.443677 S    
C42   H23   1.110708 S    
C19   N10   1.441873 S    
C35   N3    1.302375 D    
O4    C2    1.301149 A    
C38   C39   1.526149 S    
C44   H27   1.111221 S    
O2    C1    1.278528 A    
C45   H30   1.110927 S    
C23   O28   1.384728 S    
C41   H19   1.111592 S    
C38   H13   1.110689 S    
N9    O23   1.301248 A    
C35   N8    1.432397 S    
N8    O21   1.301033 A    
C51   H43   1.110264 S    
C6    O10   1.349384 S    
O4    Zn2   2.003985 S    
C11   C12   1.399625 A    
C48   H35   1.110468 S    
C5    N1    1.365472 A    
