data_mof_unit_2480.cif
_audit_creation_date              2013-03-05T16:01:37-0500
_audit_creation_method            fapswitch 2.2
_symmetry_space_group_name_H-M    P1
_symmetry_Int_Tables_number       1
_space_group_crystal_system       triclinic
_cell_length_a                    14.025339
_cell_length_b                    15.011155
_cell_length_c                    15.472636
_cell_angle_alpha                 89.996284
_cell_angle_beta                  67.61064
_cell_angle_gamma                 90.031063
_cell_volume                      3011.98965

loop_
_atom_site_label
_atom_site_type_symbol
_atom_site_description
_atom_site_fract_x
_atom_site_fract_y
_atom_site_fract_z
_atom_type_partial_charge
O1    O     O_R   0.419720 0.632140 0.499980 -0.622168
O2    O     O_R   0.580280 0.367860 0.500020 -0.620849
O3    O     O_R   0.580270 0.632160 0.499970 -0.621252
O4    O     O_R   0.419730 0.367840 0.500030 -0.620148
C1    C     C_R   0.500036 0.673512 0.499912 0.900597
C2    C     C_R   0.499951 0.326484 0.500116 0.901208
O5    O     O_R   0.373870 0.499980 0.632250 -0.616092
O6    O     O_R   0.626130 0.500020 0.367750 -0.616244
O7    O     O_R   0.534420 0.500000 0.632240 -0.624488
O8    O     O_R   0.465580 0.500000 0.367760 -0.624552
C3    C     C_R   0.435666 0.500580 0.676383 0.903571
C4    C     C_R   0.564395 0.501449 0.323654 0.906382
Zn1   Zn    Zn3+2 0.392800 0.499980 0.500010 0.952053
Zn2   Zn    Zn3+2 0.607200 0.500020 0.499990 0.951027
C5    C     C_R   0.396494 0.513062 0.777488 -0.128723
C6    C     C_R   0.605276 0.509623 0.221971 -0.125677
C7    C     C_R   0.268986 0.569378 0.922632 0.312557
C8    C     C_R   0.743773 0.497388 0.069319 0.316387
C9    C     C_R   0.297214 0.544856 0.828584 -0.242780
C10   C     C_R   0.709283 0.495344 0.167035 -0.249956
C11   C     C_R   0.466676 0.503793 0.820285 -0.244779
C12   C     C_R   0.536647 0.531470 0.180096 -0.253236
C13   C     C_R   0.446087 0.537579 0.909216 0.060624
C14   C     C_R   0.568398 0.537684 0.083425 0.059186
C15   C     C_R   0.344753 0.567975 0.962879 0.032301
C16   C     C_R   0.672761 0.517706 0.026838 0.034908
C17   C     C_R   0.524149 0.539472 0.946219 0.100279
C18   C     C_R   0.496065 0.556370 0.042192 0.104262
C19   C     C_R   0.396698 0.591101 0.093544 -0.240947
C20   C     C_R   0.629701 0.527019 0.889993 -0.247954
C21   C     C_R   0.323414 0.598656 0.053776 -0.166108
C22   C     C_R   0.702933 0.518775 0.929632 -0.162124
H1    H     H_    0.250130 0.628443 0.095466 0.189354
H2    H     H_    0.782643 0.510897 0.883138 0.200492
H3    H     H_    0.456472 0.539109 0.224290 0.161781
H4    H     H_    0.538914 0.470951 0.781880 0.155880
H5    H     H_    0.762651 0.478211 0.199855 0.193762
H6    H     H_    0.241928 0.550657 0.795490 0.198296
H7    H     H_    0.374797 0.616288 0.163820 0.135236
H8    H     H_    0.658283 0.526132 0.814574 0.150029
C23   C     C_R   0.580872 0.184874 0.512179 -0.247452
C24   C     C_R   0.419058 0.815109 0.487957 -0.247100
C25   C     C_R   0.499853 0.230605 0.500278 -0.078880
C26   C     C_R   0.500089 0.769382 0.499838 -0.077289
C27   C     C_R   0.418778 0.184796 0.488475 -0.246422
C28   C     C_R   0.581119 0.815184 0.511722 -0.246867
C29   C     C_R   0.418228 0.092640 0.488272 0.116030
C30   C     C_R   0.581644 0.907339 0.511971 0.116133
C31   C     C_R   0.499894 0.046337 0.500198 0.063306
C32   C     C_R   0.499977 0.953642 0.500046 0.063327
C33   C     C_R   0.581490 0.092718 0.512253 0.116956
C34   C     C_R   0.418399 0.907262 0.487959 0.117265
C35   C     C_R   0.337564 0.046192 0.476251 -0.204933
C36   C     C_R   0.662299 0.953785 0.524008 -0.205611
C37   C     C_R   0.337657 0.953631 0.476080 -0.205829
C38   C     C_R   0.662220 0.046347 0.524152 -0.205528
H9    H     H_    0.643282 0.220820 0.521712 0.164419
H10   H     H_    0.356677 0.779163 0.478372 0.163414
H11   H     H_    0.356338 0.220682 0.479001 0.166761
H12   H     H_    0.643555 0.779295 0.521200 0.165991
H13   H     H_    0.274651 0.081401 0.467010 0.152282
H14   H     H_    0.725209 0.918576 0.533253 0.151840
H15   H     H_    0.274810 0.918361 0.466720 0.150833
H16   H     H_    0.725077 0.081616 0.533495 0.151675
C39   C     C_R   0.172197 0.458042 0.570440 -0.053595
C40   C     C_R   0.827762 0.542078 0.429624 -0.051527
N1    N     N_R   0.249980 0.499930 0.499960 -0.101917
N2    N     N_R   0.750020 0.500070 0.500040 -0.101554
C41   C     C_R   0.231140 0.542424 0.429890 -0.048356
C42   C     C_R   0.768740 0.458043 0.570408 -0.058105
C43   C     C_R   0.131365 0.543171 0.428015 0.009659
C44   C     C_R   0.868461 0.457504 0.572394 0.008686
C45   C     C_R   0.050500 0.500282 0.500183 0.086436
C46   C     C_R   0.949350 0.500297 0.500159 0.088820
C47   C     C_R   0.070723 0.457439 0.572410 0.008566
C48   C     C_R   0.929148 0.543041 0.427871 0.006244
C49   C     C_R   0.110634 0.585611 0.356030 -0.193515
C50   C     C_R   0.889121 0.415337 0.644545 -0.209086
C51   C     C_R   0.010442 0.585504 0.355936 -0.164410
C52   C     C_R   0.989356 0.415262 0.644522 -0.171176
H17   H     H_    0.189365 0.425249 0.625149 0.139746
H18   H     H_    0.810614 0.574745 0.374838 0.140449
H19   H     H_    0.293868 0.575894 0.375441 0.125122
H20   H     H_    0.705950 0.424793 0.625016 0.129680
H21   H     H_    0.171891 0.618795 0.299758 0.140311
H22   H     H_    0.827790 0.382412 0.700978 0.153890
H23   H     H_    0.996575 0.618622 0.299609 0.172044
H24   H     H_    0.003206 0.382211 0.700890 0.173393
N3    N     N_R   0.164295 0.595856 0.975226 0.211647
O9    O     O_R   0.113573 0.640890 0.934809 -0.356897
O10   O     O_R   0.114117 0.562019 0.057578 -0.362534
N4    N     N_R   0.849115 0.474182 0.015206 0.200875
O11   O     O_R   0.921869 0.502465 0.041034 -0.301899
O12   O     O_R   0.870098 0.411204 0.952924 -0.407409

loop_
_geom_bond_atom_site_label_1
_geom_bond_atom_site_label_2
_geom_bond_distance
_ccdc_geom_bond_type
C15   C21   1.399734 A    
C40   N2    1.366655 A    
C24   C26   1.398767 A    
C16   C22   1.398780 A    
C45   C47   1.408735 A    
C45   C46   1.418799 A    
C8    C16   1.419871 A    
C48   C51   1.406227 A    
C24   H10   1.084892 S    
C51   H23   1.083384 S    
C29   C31   1.411008 A    
C11   H4    1.079159 S    
C30   C36   1.400036 A    
C12   H3    1.076840 S    
C46   C48   1.408735 A    
O1    C1    1.285675 A    
C18   C19   1.415166 A    
C14   C16   1.422406 A    
C50   C52   1.405701 A    
C33   C38   1.400039 A    
C27   C29   1.383396 A    
O4    Zn1   2.019438 S    
C41   C43   1.410725 A    
C44   C50   1.406207 A    
C5    C9    1.397795 A    
C35   H13   1.083961 S    
C4    C6    1.460069 S    
C39   N1    1.366598 A    
C37   H15   1.083971 S    
C32   C34   1.411018 A    
C21   H1    1.080712 S    
C13   C17   1.415897 A    
N3    O10   1.301246 A    
C42   H20   1.082222 S    
C47   C52   1.406146 A    
C34   C37   1.400022 A    
C6    C10   1.397190 A    
C29   C35   1.400051 A    
C50   H22   1.083481 S    
C49   C51   1.405780 A    
C49   H21   1.083498 S    
C17   C20   1.415132 A    
C23   C25   1.398791 A    
O2    C2    1.285714 A    
C3    C5    1.459315 S    
C26   C28   1.398739 A    
C28   C30   1.383373 A    
C35   C37   1.389454 A    
C36   C38   1.389459 A    
C7    N3    1.437560 S    
C44   C46   1.407852 A    
C43   C45   1.407847 A    
C36   H14   1.083963 S    
C31   C33   1.411017 A    
C6    C12   1.388978 A    
N1    C41   1.367652 A    
C22   H2    1.081118 S    
O5    C3    1.291661 A    
O7    Zn2   1.907333 S    
C41   H19   1.082137 S    
C9    H6    1.083324 S    
C40   H18   1.082712 S    
C25   C27   1.398772 A    
C39   H17   1.082672 S    
C5    C11   1.386872 A    
O6    C4    1.290628 A    
C40   C48   1.411941 A    
C19   H7    1.079534 S    
N4    O12   1.301301 A    
C20   H8    1.079939 S    
O7    C3    1.290085 A    
O3    Zn2   2.019436 S    
O8    C4    1.290899 A    
O4    C2    1.285767 A    
C1    C26   1.439112 S    
C2    C25   1.439263 S    
C11   C13   1.389794 A    
C12   C14   1.391690 A    
O1    Zn1   2.019247 S    
C43   C49   1.406334 A    
Zn1   N1    2.003393 S    
C27   H11   1.084848 S    
O6    Zn2   1.960403 S    
C28   H12   1.084854 S    
C14   C18   1.417123 A    
O3    C1    1.285754 A    
O8    Zn1   1.907335 S    
C39   C47   1.411908 A    
C8    N4    1.436477 S    
C7    C15   1.421834 A    
C19   C21   1.389178 A    
C20   C22   1.387952 A    
C10   H5    1.083527 S    
C38   H16   1.083968 S    
C30   C32   1.411013 A    
N4    O11   1.300517 A    
C7    C9    1.403956 A    
C8    C10   1.401304 A    
C13   C15   1.421029 A    
O2    Zn2   2.019249 S    
C23   H9    1.084884 S    
O5    Zn1   1.960403 S    
C52   H24   1.083349 S    
C31   C32   1.391468 A    
C17   C18   1.406827 A    
N2    C42   1.367568 A    
Zn2   N2    2.003394 S    
C42   C44   1.410640 A    
N3    O9    1.301358 A    
C23   C33   1.383394 A    
C24   C34   1.383353 A    
