data_mof_unit_1585.cif
_audit_creation_date              2012-12-11T15:27:21-0500
_audit_creation_method            fapswitch 2.2
_symmetry_space_group_name_H-M    P1
_symmetry_Int_Tables_number       1
_space_group_crystal_system       triclinic
_cell_length_a                    13.92489
_cell_length_b                    13.95579
_cell_length_c                    27.362961
_cell_angle_alpha                 90.003865
_cell_angle_beta                  90.081655
_cell_angle_gamma                 120.154257
_cell_volume                      4597.92768433

loop_
_atom_site_label
_atom_site_type_symbol
_atom_type_description
_atom_site_fract_x
_atom_site_fract_y
_atom_site_fract_z
_atom_type_partial_charge
C1    C     C_R   0.233882 0.787478 0.568519 0.555216
C2    C     C_1   0.709590 0.862875 0.858299 -0.078674
C3    C     C_1   0.136619 0.846706 0.858259 -0.078640
C4    C     C_1   0.153356 0.290015 0.858272 -0.078681
C5    C     C_1   0.633482 0.818046 0.657496 -0.077473
C6    C     C_1   0.182067 0.815244 0.657504 -0.077856
C7    C     C_1   0.184652 0.366869 0.657514 -0.077929
C8    C     C_1   0.604139 0.798712 0.615561 -0.016975
C9    C     C_1   0.201397 0.805268 0.615590 -0.017695
C10   C     C_1   0.194614 0.396159 0.615594 -0.017642
C11   C     C_R   0.107114 0.220210 0.948924 0.551199
C12   C     C_R   0.212455 0.446441 0.568517 0.555153
C13   C     C_R   0.779695 0.886693 0.948949 0.550119
C14   C     C_R   0.113216 0.892878 0.948946 0.550635
C15   C     C_R   0.581929 0.786024 0.379508 0.024968
C16   C     C_R   0.241072 0.773384 0.374092 0.018330
C17   C     C_R   0.228353 0.468991 0.373719 0.017731
C18   C     C_R   0.648908 0.893272 0.361350 -0.134455
C19   C     C_R   0.135099 0.745267 0.357155 -0.126214
C20   C     C_R   0.279326 0.412064 0.354842 -0.130349
C21   C     C_R   0.663429 0.909598 0.310949 -0.118459
C22   C     C_R   0.116591 0.747588 0.307317 -0.126659
C23   C     C_R   0.553622 0.766103 0.568488 0.546141
C24   C     C_R   0.277252 0.393325 0.304815 -0.128590
C25   C     C_R   0.607304 0.819197 0.278783 0.025520
C26   C     C_R   0.203506 0.776983 0.273852 0.025906
C27   C     C_R   0.226462 0.433469 0.272861 0.028977
C28   C     C_R   0.261769 0.765413 0.425667 0.531195
C29   C     C_R   0.234605 0.495835 0.425621 0.531716
C30   C     C_R   0.550855 0.764538 0.430594 0.524597
C31   C     C_R   0.535514 0.713570 0.297476 -0.129743
C32   C     C_R   0.309029 0.803318 0.291081 -0.115017
C33   C     C_R   0.179582 0.494235 0.291958 -0.113700
C34   C     C_3   0.707481 0.759070 0.784878 -0.191858
C35   C     C_R   0.525580 0.696801 0.347235 -0.128764
C36   C     C_R   0.327834 0.803026 0.340954 -0.136072
C37   C     C_R   0.177508 0.508515 0.342041 -0.132805
C38   C     C_R   0.643637 0.748298 0.202589 -0.120342
C39   C     C_R   0.268064 0.885565 0.197212 -0.117461
C40   C     C_R   0.106855 0.371406 0.199184 -0.119746
C41   C     C_R   0.682138 0.763703 0.155230 -0.133049
C42   C     C_R   0.245342 0.913003 0.151706 -0.132293
C43   C     C_R   0.079048 0.320229 0.154077 -0.132340
C44   C     C_R   0.694383 0.943951 0.153243 -0.021531
C45   C     C_3   0.240937 0.948637 0.784878 -0.191807
C46   C     C_R   0.061091 0.749162 0.152998 -0.022169
C47   C     C_R   0.255895 0.325168 0.150288 -0.023050
C48   C     C_R   0.653549 0.926770 0.200961 -0.126547
C49   C     C_R   0.085250 0.721548 0.198711 -0.124417
C50   C     C_R   0.284525 0.379335 0.195584 -0.121526
C51   C     C_R   0.632453 0.831036 0.226420 0.019319
C52   C     C_R   0.186745 0.792170 0.221955 0.018834
C53   C     C_R   0.208223 0.398487 0.221212 0.021488
C54   C     C_R   0.713644 0.863521 0.130961 0.003806
C55   C     C_R   0.140335 0.848684 0.130084 0.001783
C56   C     C_3   0.051009 0.291296 0.784740 -0.191763
C57   C     C_R   0.150239 0.291736 0.130068 0.002255
C58   C     C_R   0.105919 0.221006 0.086522 0.551729
C59   C     C_R   0.778290 0.884826 0.086059 0.550453
C60   C     C_R   0.115059 0.894144 0.086591 0.550907
C61   C     C_3   0.549182 0.812309 0.737184 -0.171513
C62   C     C_3   0.187417 0.737008 0.737390 -0.171461
C63   C     C_3   0.262895 0.450984 0.737450 -0.171258
C64   C     C_3   0.751691 0.951207 0.723114 0.124980
C65   C     C_3   0.048513 0.799807 0.722859 0.125290
C66   C     C_3   0.200614 0.249441 0.722982 0.125350
C67   C     C_3   0.686419 0.746315 0.729080 -0.191353
C68   C     C_3   0.770060 0.961827 0.779419 -0.180322
C69   C     C_3   0.037695 0.807612 0.779133 -0.180264
C70   C     C_3   0.192849 0.230832 0.779257 -0.180264
C71   C     C_1   0.735517 0.872725 0.900701 -0.020576
C72   C     C_1   0.126847 0.862737 0.900661 -0.020857
C73   C     C_1   0.137310 0.264135 0.900663 -0.020713
C74   C     C_3   0.656043 0.832512 0.710225 0.045360
C75   C     C_3   0.167444 0.823381 0.710219 0.045128
C76   C     C_3   0.176568 0.344141 0.710232 0.045044
C77   C     C_3   0.567383 0.823260 0.793412 0.140600
C78   C     C_3   0.253897 0.940271 0.729120 -0.191170
C79   C     C_3   0.176268 0.744318 0.793585 0.140772
C80   C     C_3   0.255630 0.432551 0.793648 0.140991
C81   C     C_3   0.688075 0.851606 0.805465 0.042983
C82   C     C_3   0.148014 0.836427 0.805431 0.042883
C83   C     C_3   0.163606 0.311703 0.805446 0.042692
C84   C     C_1   0.719502 0.046064 0.129192 0.203675
C85   C     C_1   0.953174 0.676568 0.131904 0.205186
C86   C     C_1   0.334709 0.302424 0.126411 0.203397
C87   C     C_3   0.059313 0.312581 0.728977 -0.191232
Cr1   Cr    Cr6+3 0.164410 0.584450 0.499910 1.017470
Cr2   Cr    Cr6+3 0.415550 0.579960 0.499910 1.014872
Cr3   Cr    Cr6+3 0.420040 0.835590 0.499910 1.017289
Cr4   Cr    Cr6+3 0.156760 0.076070 0.017830 1.060106
Cr5   Cr    Cr6+3 0.923930 0.080690 0.017830 1.059340
Cr6   Cr    Cr6+3 0.919310 0.843240 0.017830 1.059892
H1    H     H_    0.554778 0.892041 0.806421 0.120485
H2    H     H_    0.689971 0.963283 0.385968 0.120607
H3    H     H_    0.067118 0.722288 0.382401 0.134884
H4    H     H_    0.319243 0.380589 0.378707 0.136835
H5    H     H_    0.629224 0.673974 0.221398 0.114594
H6    H     H_    0.346877 0.941887 0.214294 0.115244
H7    H     H_    0.045009 0.382893 0.217946 0.112489
H8    H     H_    0.694419 0.699946 0.138868 0.158248
H9    H     H_    0.308450 0.988746 0.134700 0.151448
H10   H     H_    0.997929 0.297053 0.139362 0.157394
H11   H     H_    0.720091 0.991903 0.297294 0.114583
H12   H     H_    0.107196 0.662717 0.806543 0.120175
H13   H     H_    0.035174 0.729613 0.295151 0.114204
H14   H     H_    0.311794 0.343954 0.291556 0.112341
H15   H     H_    0.641551 0.989386 0.218768 0.105087
H16   H     H_    0.023212 0.647211 0.217080 0.103929
H17   H     H_    0.364725 0.403085 0.211566 0.103291
H18   H     H_    0.488161 0.643193 0.273616 0.115797
H19   H     H_    0.377219 0.825303 0.266077 0.117626
H20   H     H_    0.141684 0.528288 0.268373 0.114005
H21   H     H_    0.525237 0.873244 0.724462 0.072372
H22   H     H_    0.126294 0.651903 0.724651 0.072515
H23   H     H_    0.337521 0.445913 0.806723 0.120536
H24   H     H_    0.348259 0.475771 0.724822 0.072619
H25   H     H_    0.469809 0.614129 0.360557 0.136640
H26   H     H_    0.409688 0.824461 0.353733 0.128853
H27   H     H_    0.136679 0.551055 0.356147 0.127937
H28   H     H_    0.727914 0.013107 0.711276 0.090996
H29   H     H_    0.986407 0.713906 0.711004 0.091139
H30   H     H_    0.286781 0.274062 0.711241 0.091339
H31   H     H_    0.758162 0.030112 0.793334 0.060163
H32   H     H_    0.969128 0.727218 0.793002 0.060111
H33   H     H_    0.273529 0.243473 0.793240 0.060301
H34   H     H_    0.478780 0.728543 0.727775 0.168493
H35   H     H_    0.857137 0.984741 0.788319 0.173755
H36   H     H_    0.014827 0.871585 0.787865 0.174208
H37   H     H_    0.128946 0.143669 0.787960 0.174185
H38   H     H_    0.617650 0.660937 0.720909 0.103501
H39   H     H_    0.339445 0.957268 0.721153 0.103560
H40   H     H_    0.041973 0.380654 0.720925 0.103584
H41   H     H_    0.761780 0.756960 0.710069 0.175503
H42   H     H_    0.243438 0.004814 0.709969 0.175628
H43   H     H_    0.994793 0.237183 0.709791 0.175388
H44   H     H_    0.651571 0.678813 0.803249 0.154495
H45   H     H_    0.271348 0.750755 0.728182 0.168867
H46   H     H_    0.321283 0.973417 0.803422 0.154582
H47   H     H_    0.025924 0.346384 0.803199 0.154610
H48   H     H_    0.479147 0.741914 0.849853 0.333477
H49   H     H_    0.257486 0.737842 0.850237 0.333049
H50   H     H_    0.261743 0.519934 0.850246 0.333138
H51   H     H_    0.848272 0.998849 0.666177 0.330189
H52   H     H_    0.001098 0.848328 0.665715 0.330099
H53   H     H_    0.152261 0.153371 0.665835 0.330267
H54   H     H_    0.248824 0.520728 0.728164 0.168881
H55   H     H_    0.794290 0.779435 0.792475 0.114085
H56   H     H_    0.220633 0.014907 0.792301 0.114435
H57   H     H_    0.984798 0.204386 0.792136 0.114402
N1    N     N_1   0.739622 0.127964 0.109997 -0.294401
N2    N     N_1   0.866617 0.618294 0.115084 -0.292058
N3    N     N_1   0.397946 0.284182 0.107325 -0.289975
O1    O     O_R   0.137310 0.468260 0.552980 -0.502096
O2    O     O_R   0.139940 0.470480 0.446230 -0.504737
O3    O     O_R   0.529520 0.669460 0.446230 -0.520065
O4    O     O_R   0.330540 0.860060 0.446230 -0.494068
O5    O     O_R   0.176560 0.690850 0.450770 -0.516209
O6    O     O_R   0.309150 0.485710 0.450770 -0.504404
O7    O     O_R   0.514290 0.823440 0.450770 -0.518277
O8    O     O_3   0.333333 0.666667 0.499990 -0.308374
O9    O     O_3   0.000000 1.000000 0.017910 -0.234134
O10   O     O_R   0.149710 0.171070 0.967700 -0.496852
O11   O     O_R   0.828930 0.978640 0.967700 -0.497106
O12   O     O_R   0.531740 0.669050 0.552980 -0.503753
O13   O     O_R   0.021360 0.850290 0.967700 -0.496991
O14   O     O_R   0.178510 0.985930 0.071830 -0.509280
O15   O     O_R   0.014070 0.192580 0.071830 -0.508892
O16   O     O_R   0.807420 0.821490 0.071830 -0.506062
O17   O     O_R   0.147830 0.173300 0.066650 -0.483121
O18   O     O_R   0.826700 0.974530 0.066650 -0.484898
O19   O     O_R   0.025470 0.852170 0.066650 -0.483131
O20   O     O_3   0.489544 0.723467 0.815957 -0.681449
O21   O     O_3   0.276147 0.766772 0.816356 -0.681769
O22   O     O_3   0.232778 0.509420 0.816322 -0.681416
O23   O     O_R   0.330950 0.862690 0.552980 -0.500943
O24   O     O_3   0.850987 0.973889 0.699857 -0.650458
O25   O     O_3   0.026018 0.876157 0.699416 -0.650623
O26   O     O_3   0.124339 0.150175 0.699499 -0.650810
O27   O     O_R   0.180530 0.983530 0.965090 -0.507277
O28   O     O_R   0.016470 0.197000 0.965090 -0.506653
O29   O     O_R   0.803000 0.819470 0.965090 -0.507281
O30   O     O_R   0.174120 0.688790 0.549730 -0.493762
O31   O     O_R   0.311210 0.485330 0.549730 -0.491314
O32   O     O_R   0.514670 0.825880 0.549730 -0.496534

loop_
_geom_bond_atom_site_label_1
_geom_bond_atom_site_label_2
_ccdc_geom_bond_type
C25   C31   A    
C15   C18   A    
C44   C48   A    
Cr6   O19   S    
C26   C32   A    
C7    C10   T    
C18   C21   A    
C17   C29   S    
C87   H40   S    
C45   C82   S    
C11   O28   A    
C24   C27   A    
H50   O22   S    
C38   H5    S    
C8    C23   S    
C6    C9    T    
C25   C51   S    
C1    O30   A    
C6    C75   S    
C1    O23   A    
C12   O31   A    
C27   C33   A    
C30   O7    A    
C4    C83   S    
C46   C49   A    
Cr6   O16   S    
C28   O5    A    
C34   C67   S    
C13   O11   A    
C68   C81   S    
C64   C68   S    
Cr4   O14   S    
C58   O17   A    
C86   N3    T    
Cr5   O28   S    
C63   H24   S    
C65   C69   S    
C63   C76   S    
Cr5   O18   S    
C64   H28   S    
Cr3   O23   S    
C77   H1    S    
C50   H17   S    
C17   C20   A    
C79   H12   S    
Cr2   O8    S    
C5    C74   S    
C15   C35   A    
C36   H26   S    
C78   H39   S    
C39   C42   A    
C69   C82   S    
C23   O12   A    
C21   H11   S    
C34   H55   S    
C45   H46   S    
C20   H4    S    
C80   H23   S    
C61   C77   S    
H52   O25   S    
Cr4   O9    S    
C45   C78   S    
C34   C81   S    
Cr1   O5    S    
C14   O13   A    
C58   O15   A    
C78   H42   S    
C68   H35   S    
C16   C28   S    
C29   O2    A    
C46   C85   S    
C70   H33   S    
C30   O3    A    
C39   C52   A    
C69   H32   S    
C55   C60   S    
H48   O20   S    
C18   H2    S    
C79   O21   S    
Cr4   O10   S    
C80   C83   S    
C59   O18   A    
C42   H9    S    
C63   H54   S    
Cr2   O6    S    
C47   C50   A    
C54   C59   S    
C40   C43   A    
C48   C51   A    
C50   C53   A    
Cr3   O8    S    
C60   O19   A    
Cr1   O2    S    
C20   C24   A    
C62   C79   S    
C67   H41   S    
C1    C9    S    
C38   C41   A    
C29   O6    A    
C11   C73   S    
C23   O32   A    
C56   C87   S    
C38   C51   A    
C13   C71   S    
C22   H13   S    
C33   C37   A    
Cr1   O1    S    
C2    C81   S    
C46   C55   A    
Cr2   O31   S    
C26   C52   S    
C42   C55   A    
C47   C57   A    
Cr6   O29   S    
Cr5   O15   S    
C39   H6    S    
C15   C30   S    
C77   C81   S    
C49   C52   A    
C66   C76   S    
Cr4   O27   S    
C19   C22   A    
C3    C82   S    
C11   O10   A    
C61   H34   S    
C24   H14   S    
C17   C37   A    
C65   H29   S    
C62   H45   S    
C70   C83   S    
C76   C87   S    
Cr2   O12   S    
C4    C73   T    
C48   H15   S    
C10   C12   S    
C68   H31   S    
Cr6   O13   S    
C40   C53   A    
C22   C26   A    
C31   C35   A    
C62   C75   S    
C5    C8    T    
C56   H57   S    
C2    C71   T    
C70   H37   S    
C32   C36   A    
C56   C83   S    
C49   H16   S    
Cr5   O9    S    
C21   C25   A    
Cr1   O30   S    
C77   O20   S    
C32   H19   S    
Cr4   O17   S    
C14   C72   S    
C87   H43   S    
C67   H38   S    
C80   O22   S    
C12   O1    A    
C44   C84   S    
C60   O14   A    
C40   H7    S    
C79   C82   S    
C27   C53   S    
C7    C76   S    
Cr3   O32   S    
Cr2   O3    S    
C61   C74   S    
C63   C80   S    
C66   O26   S    
C34   H44   S    
C33   H20   S    
C65   C75   S    
Cr3   O4    S    
C3    C72   T    
C85   N2    T    
C62   H22   S    
C16   C36   A    
C67   C74   S    
C64   O24   S    
Cr5   O11   S    
C57   C58   S    
C66   C70   S    
C37   H27   S    
Cr6   O9    S    
C16   C19   A    
C56   H47   S    
C28   O4    A    
C41   H8    S    
H53   O26   S    
C31   H18   S    
C45   H56   S    
Cr3   O7    S    
C75   C78   S    
C43   H10   S    
C41   C54   A    
H49   O21   S    
C43   C57   A    
C84   N1    T    
C44   C54   A    
H51   O24   S    
C69   H36   S    
C13   O29   A    
C65   O25   S    
C61   H21   S    
C47   C86   S    
C64   C74   S    
C66   H30   S    
C35   H25   S    
C59   O16   A    
C14   O27   A    
C19   H3    S    
Cr1   O8    S    
