data_mof_unit_1159.cif
_audit_creation_date              2012-12-11T14:06:42-0500
_audit_creation_method            fapswitch 2.2
_symmetry_space_group_name_H-M    P1
_symmetry_Int_Tables_number       1
_space_group_crystal_system       triclinic
_cell_length_a                    6.91863
_cell_length_b                    17.35467
_cell_length_c                    24.099216
_cell_angle_alpha                 104.480648
_cell_angle_beta                  90.386108
_cell_angle_gamma                 89.942957
_cell_volume                      2801.61793487

loop_
_atom_site_label
_atom_site_type_symbol
_atom_type_description
_atom_site_fract_x
_atom_site_fract_y
_atom_site_fract_z
_atom_type_partial_charge
O1    O     O_R   0.494290 0.391990 0.999150 -0.536090
O2    O     O_R   0.827170 0.534410 0.082350 -0.546301
O3    O     O_R   0.994360 0.608010 0.000850 -0.536286
C1    C     C_R   0.658583 0.549620 0.106188 0.726063
O4    O     O_R   0.824210 0.388010 0.004470 -0.530493
O5    O     O_R   0.991370 0.460560 0.922410 -0.540157
C2    C     C_R   0.653973 0.354682 0.000710 0.773508
O6    O     O_R   0.497270 0.539440 0.077590 -0.539913
O7    O     O_3   0.659770 0.523970 0.973170 -0.369626
V1    V     V_3+5 0.935840 0.495550 0.004980 1.469643
O8    O     O_R   0.320910 0.465590 0.917650 -0.546594
C3    C     C_R   0.151510 0.449937 0.893938 0.729492
O9    O     O_R   0.323870 0.611990 0.995530 -0.530788
C4    C     C_R   0.153804 0.645296 0.999269 0.773174
V2    V     V_3+5 0.435470 0.504450 0.995020 1.469319
O10   O     O_3   0.161670 0.476030 0.026830 -0.369789
C5    C     C_2   0.137766 0.729855 0.997662 -0.368001
H1    H     H_    0.266778 0.757126 0.985486 0.158255
C6    C     C_2   0.971399 0.773020 0.008667 -0.234205
C7    C     C_R   0.131548 0.247805 0.625604 0.663203
N1    N     N_R   0.097402 0.326989 0.648875 -0.576877
C8    C     C_R   0.046400 0.376690 0.615434 0.643442
C9    C     C_R   0.026692 0.347468 0.555782 -0.076616
C10   C     C_R   0.061457 0.266459 0.530315 -0.060360
C11   C     C_R   0.115684 0.214561 0.565281 -0.148599
C12   C     C_R   0.971647 0.398315 0.521635 -0.200199
C13   C     C_R   0.949174 0.371327 0.462103 0.463789
C14   C     C_R   0.986594 0.289456 0.434865 -0.150940
C15   C     C_R   0.042034 0.237708 0.469817 -0.058790
C16   C     C_R   0.078234 0.156832 0.444332 -0.076579
C17   C     C_R   0.131079 0.105781 0.478548 -0.206433
C18   C     C_R   0.150719 0.132508 0.538144 0.467114
C19   C     C_R   0.972742 0.256325 0.374448 0.666004
N2    N     N_R   0.010268 0.177357 0.351052 -0.575187
C20   C     C_R   0.061338 0.127782 0.384615 0.607332
O11   O     O_2   0.180579 0.202465 0.661284 -0.450979
O12   O     O_2   0.014243 0.454432 0.640024 -0.498965
H2    H     H_    0.944540 0.460331 0.541922 0.215172
O13   O     O_2   0.925051 0.301871 0.338790 -0.444182
O14   O     O_2   0.095136 0.050124 0.360123 -0.508950
H3    H     H_    0.157876 0.043724 0.458313 0.214750
C21   C     C_R   0.818176 0.135440 0.261601 -0.072694
H4    H     H_    0.686982 0.151643 0.285964 0.123212
C22   C     C_R   0.806635 0.103918 0.202152 -0.188460
H5    H     H_    0.665616 0.096930 0.181785 0.127543
C23   C     C_R   0.975289 0.082388 0.169473 -0.058771
C24   C     C_R   0.155471 0.093025 0.197956 -0.190496
H6    H     H_    0.288293 0.077212 0.174358 0.130254
C25   C     C_R   0.166545 0.124152 0.257391 -0.071034
H7    H     H_    0.306439 0.131749 0.278447 0.119801
C26   C     C_R   0.998159 0.145724 0.289633 0.367166
C27   C     C_R   0.284206 0.396075 0.735564 -0.010889
C28   C     C_R   0.297107 0.425305 0.795387 -0.228987
H8    H     H_    0.429493 0.453889 0.814333 0.133058
C29   C     C_R   0.139355 0.418790 0.830593 -0.061112
C30   C     C_R   0.969117 0.381681 0.804725 -0.185720
H9    H     H_    0.845453 0.375148 0.830497 0.133367
C31   C     C_R   0.957179 0.351336 0.745309 -0.066966
H10   H     H_    0.825808 0.322040 0.726400 0.141699
C32   C     C_R   0.113418 0.358536 0.710234 0.332518
C33   C     C_R   0.619939 0.865965 0.616875 0.607073
N3    N     N_R   0.508064 0.827045 0.648191 -0.559719
C34   C     C_R   0.415106 0.757363 0.622023 0.596346
C35   C     C_R   0.433657 0.724169 0.562559 -0.030857
C36   C     C_R   0.549105 0.763285 0.530146 -0.006129
C37   C     C_R   0.642716 0.834906 0.557370 -0.022897
C38   C     C_R   0.341319 0.652521 0.534892 -0.113850
C39   C     C_R   0.363418 0.620277 0.475983 -0.061660
C40   C     C_R   0.477961 0.658947 0.443156 -0.020679
C41   C     C_R   0.571219 0.730658 0.470382 -0.009492
C42   C     C_R   0.686346 0.769893 0.437970 -0.033001
C43   C     C_R   0.778942 0.841457 0.465641 -0.116225
C44   C     C_R   0.757311 0.873556 0.524559 -0.066292
C45   C     C_R   0.501052 0.627880 0.383639 0.628732
N4    N     N_R   0.611413 0.667278 0.352283 -0.566727
C46   C     C_R   0.704113 0.736994 0.378476 0.585223
O15   O     O_2   0.708695 0.934721 0.643135 -0.497087
O16   O     O_2   0.307455 0.719476 0.653486 -0.513651
H11   H     H_    0.251819 0.620987 0.558662 0.186430
H12   H     H_    0.290126 0.565002 0.456280 0.209815
O17   O     O_2   0.414336 0.558636 0.357422 -0.483648
O18   O     O_2   0.810737 0.775221 0.346996 -0.512810
H13   H     H_    0.868279 0.873044 0.441869 0.187847
H14   H     H_    0.830731 0.928787 0.544269 0.219700
C47   C     C_R   0.457590 0.629584 0.256331 -0.082693
H15   H     H_    0.318418 0.646850 0.275828 0.126719
C48   C     C_R   0.469041 0.601229 0.196728 -0.181972
H16   H     H_    0.337120 0.597025 0.171713 0.129896
C49   C     C_R   0.648102 0.579292 0.169823 -0.059654
C50   C     C_R   0.815364 0.586238 0.204430 -0.190712
H17   H     H_    0.955520 0.569805 0.185381 0.129815
C51   C     C_R   0.803473 0.614398 0.264217 -0.065812
H18   H     H_    0.933779 0.618970 0.289987 0.128438
C52   C     C_R   0.624422 0.636526 0.290702 0.368301
C53   C     C_R   0.659691 0.866077 0.744392 -0.079759
H19   H     H_    0.799147 0.848277 0.725275 0.132893
C54   C     C_R   0.647298 0.896027 0.803825 -0.190718
H20   H     H_    0.778820 0.900726 0.829065 0.131223
C55   C     C_R   0.467950 0.918887 0.830293 -0.060648
C56   C     C_R   0.301276 0.911099 0.795390 -0.194516
H21   H     H_    0.160921 0.928109 0.814111 0.133885
C57   C     C_R   0.314139 0.881354 0.735721 -0.060973
H22   H     H_    0.184354 0.876306 0.709689 0.147088
C58   C     C_R   0.493583 0.858457 0.709690 0.358391
C59   C     C_2   0.637937 0.270084 0.002307 -0.365300
H23   H     H_    0.767509 0.242708 0.014471 0.158776
C60   C     C_2   0.470919 0.227032 0.991349 -0.233848
O19   O     O_R   0.618210 0.960470 0.922400 -0.540916
O20   O     O_R   0.291310 0.111960 0.995450 -0.543503
O21   O     O_R   0.124210 0.039530 0.077580 -0.540733
C61   C     C_R   0.460983 0.144386 0.996975 0.731396
O22   O     O_R   0.288310 0.965490 0.917650 -0.543339
O23   O     O_R   0.121180 0.892010 0.999220 -0.537039
C62   C     C_R   0.456918 0.949865 0.893834 0.705335
O24   O     O_R   0.621230 0.107990 0.000760 -0.536738
O25   O     O_3   0.455770 0.976060 0.026840 -0.369460
V3    V     V_3+5 0.179680 0.004440 0.995020 1.433281
O26   O     O_R   0.791670 0.888040 0.004570 -0.544020
C63   C     C_R   0.961276 0.855633 0.003042 0.729114
O27   O     O_R   0.794680 0.034510 0.082370 -0.544066
C64   C     C_R   0.963994 0.050451 0.106092 0.705441
V4    V     V_3+5 0.680070 0.995560 0.005010 1.432282
O28   O     O_3   0.953840 0.023940 0.973160 -0.368561
C65   C     C_1   0.446404 0.405242 0.700490 0.332728
N5    N     N_1   0.575918 0.412678 0.672141 -0.303489
C66   C     C_1   0.798146 0.742571 0.029464 0.354409
N6    N     N_1   0.659880 0.718888 0.046345 -0.354623
C67   C     C_1   0.296760 0.257578 0.970518 0.356707
N7    N     N_1   0.157752 0.281331 0.953597 -0.353785
S1    S     S_3+6 0.871162 0.443709 0.425673 0.047644
O29   O     O_2   0.684213 0.417085 0.394653 -0.272053
O30   O     O_2   0.839475 0.523173 0.467167 -0.361511
O31   O     O_3   0.040352 0.454443 0.378348 -0.451263
H24   H     H_    0.988179 0.495617 0.360338 0.375581
S2    S     S_3+6 0.220539 0.059431 0.574896 0.043412
O32   O     O_2   0.065417 0.051890 0.616636 -0.285967
O33   O     O_2   0.249492 0.979520 0.533722 -0.354567
O34   O     O_3   0.429694 0.087023 0.610275 -0.457736
H25   H     H_    0.441941 0.052467 0.637179 0.398926

loop_
_geom_bond_atom_site_label_1
_geom_bond_atom_site_label_2
_ccdc_geom_bond_type
C39   H12   S    
S2    O34   S    
C48   H16   S    
C66   N6    T    
C27   C65   S    
S1    O30   D    
C53   H19   S    
C1    O6    A    
C67   N7    T    
C55   C62   S    
O22   C62   A    
C54   H20   S    
O20   V3    S    
S2    O32   D    
C24   C25   A    
C28   H8    S    
C27   C28   A    
C59   C60   D    
C12   C13   A    
C19   O13   S    
O25   V4    S    
C16   C20   A    
C14   C15   A    
C60   C67   S    
O20   C61   A    
O21   C64   A    
O5    C3    A    
C16   C17   A    
C7    C11   A    
C31   C32   A    
C36   C41   A    
C30   H9    S    
N2    C20   A    
O26   V4    S    
C9    C12   A    
O19   C62   A    
O26   C63   A    
C51   H18   S    
C27   C32   A    
O4    V1    S    
O23   C63   A    
O8    V2    S    
C33   C37   A    
N3    C34   A    
C24   H6    S    
C22   C23   A    
C39   C40   A    
C25   C26   A    
C9    C10   A    
C2    C59   S    
C23   C64   S    
C41   C42   A    
O1    V2    S    
O9    C4    A    
O7    V1    S    
C44   H14   S    
C33   N3    A    
C21   C26   A    
C11   C18   A    
C47   C48   A    
C6    C63   S    
O24   V4    S    
N1    C8    A    
C4    C5    S    
C57   H22   S    
C21   C22   A    
O21   V3    S    
C56   C57   A    
C54   C55   A    
O27   V4    S    
C19   N2    A    
N3    C58   S    
C28   C29   A    
C45   N4    A    
C38   C39   A    
C3    C29   S    
C35   C38   A    
C38   H11   S    
C10   C11   A    
N1    C32   S    
C46   O18   S    
O4    C2    A    
C12   H2    S    
C31   H10   S    
C47   H15   S    
C37   C44   A    
O2    C1    A    
N4    C46   A    
C15   C16   A    
C47   C52   A    
C50   C51   A    
C55   C56   A    
C29   C30   A    
C51   C52   A    
C5    H1    S    
N2    C26   S    
C40   C45   A    
C57   C58   A    
O3    C4    A    
O23   V3    S    
C14   C19   A    
C25   H7    S    
O6    V2    S    
C33   O15   S    
C48   C49   A    
O31   H24   S    
S1    O31   S    
C21   H4    S    
C45   O17   S    
O2    V1    S    
O27   C64   A    
C1    C49   S    
S2    O33   D    
C23   C24   A    
C17   H3    S    
O1    C2    A    
C60   C61   S    
C17   C18   A    
C22   H5    S    
O19   V4    S    
C43   C44   A    
O5    V1    S    
C18   S2    S    
O8    C3    A    
C53   C54   A    
C59   H23   S    
C6    C66   S    
O22   V3    S    
C35   C36   A    
O9    V2    S    
C20   O14   S    
V3    O28   S    
C42   C43   A    
O3    V1    S    
V1    O10   S    
C53   C58   A    
C8    O12   S    
C50   H17   S    
C42   C46   A    
C56   H21   S    
C5    C6    D    
C30   C31   A    
O25   V3    S    
S1    O29   D    
O7    V2    S    
C40   C41   A    
C43   H13   S    
O34   H25   S    
C34   C35   A    
C7    O11   S    
C10   C15   A    
C7    N1    A    
C36   C37   A    
C13   C14   A    
C13   S1    S    
C8    C9    A    
C61   O24   A    
V4    O28   S    
C49   C50   A    
V2    O10   S    
N4    C52   S    
C65   N5    T    
C34   O16   S    
