data_mof_unit_2871.cif
_audit_creation_date              2012-12-10T17:03:41-0500
_audit_creation_method            fapswitch 2.2
_symmetry_space_group_name_H-M    P1
_symmetry_Int_Tables_number       1
_space_group_crystal_system       triclinic
_cell_length_a                    10.032964
_cell_length_b                    10.748409
_cell_length_c                    13.144126
_cell_angle_alpha                 90.120701
_cell_angle_beta                  70.107113
_cell_angle_gamma                 90.117542
_cell_volume                      1332.85902193

loop_
_atom_site_label
_atom_site_type_symbol
_atom_type_description
_atom_site_fract_x
_atom_site_fract_y
_atom_site_fract_z
_atom_type_partial_charge
C1    C     C_R   0.501102 0.737302 0.498154 0.923224
C2    C     C_R   0.431960 0.526206 0.984540 0.087881
C3    C     C_R   0.461108 0.560065 0.875756 0.091302
C4    C     C_R   0.540184 0.541961 0.029755 0.078446
C5    C     C_R   0.665024 0.609683 0.973292 0.177759
C6    C     C_R   0.681685 0.659241 0.871919 -0.258997
C7    C     C_R   0.581016 0.634869 0.823572 -0.199366
C8    C     C_R   0.528648 0.489658 0.128987 -0.250843
C9    C     C_R   0.749240 0.585018 0.124371 -0.205687
C10   C     C_R   0.370250 0.516437 0.821730 -0.119833
C11   C     C_2   0.611126 0.067056 0.503257 -0.157366
C12   C     C_R   0.421367 0.506659 0.703966 0.854794
C13   C     C_2   0.493294 0.131309 0.514260 -0.335956
C14   C     C_2   0.607620 0.933167 0.509717 -0.165607
C15   C     C_2   0.505479 0.868880 0.489412 -0.327318
C16   C     C_2   0.099643 0.419859 0.445326 0.158894
C17   C     C_2   0.946131 0.415368 0.451974 -0.202099
C18   C     C_R   0.498693 0.262716 0.502808 0.938922
C19   C     C_R   0.578678 0.500650 0.295882 0.870857
C20   C     C_R   0.770119 0.628541 0.020181 -0.201245
C21   C     C_R   0.625778 0.518524 0.179618 -0.062240
C22   C     C_R   0.237073 0.466812 0.881014 -0.192912
C23   C     C_R   0.198397 0.452170 0.992204 -0.150526
C24   C     C_R   0.295789 0.478236 0.043581 -0.193669
H1    H     H_    0.825345 0.608338 0.163343 0.159014
H2    H     H_    0.389485 0.088664 0.534775 0.149129
H3    H     H_    0.691996 0.887378 0.529694 0.166437
H4    H     H_    0.424746 0.911547 0.463358 0.149515
H5    H     H_    0.078553 0.557855 0.552272 0.130980
H6    H     H_    0.913495 0.338196 0.412488 0.159372
H7    H     H_    0.884295 0.575826 0.530682 0.156703
H8    H     H_    0.773797 0.714962 0.829079 0.143532
H9    H     H_    0.865281 0.680959 0.978122 0.140555
H10   H     H_    0.441194 0.429337 0.170976 0.151575
H11   H     H_    0.164605 0.435877 0.841040 0.159819
H12   H     H_    0.260516 0.463409 0.129793 0.128575
H13   H     H_    0.094837 0.415380 0.038094 0.145751
H14   H     H_    0.597220 0.676673 0.745470 0.165355
H15   H     H_    0.712439 0.112694 0.489822 0.167998
N1    N     N_2   0.148270 0.498670 0.498870 -0.182629
N2    N     N_2   0.852610 0.498640 0.498840 -0.191908
O1    O     O_R   0.386950 0.680940 0.500020 -0.617503
O2    O     O_R   0.613110 0.680900 0.499980 -0.623477
O3    O     O_R   0.330780 0.500000 0.653640 -0.615456
O4    O     O_R   0.556930 0.499960 0.653610 -0.603397
O5    O     O_R   0.386890 0.319100 0.500020 -0.596127
O6    O     O_R   0.613050 0.319060 0.499980 -0.609872
O7    O     O_R   0.443070 0.500040 0.346390 -0.588967
O8    O     O_R   0.669220 0.500000 0.346360 -0.613139
Zn1   Zn    Zn3+2 0.349000 0.500030 0.500020 0.952095
Zn2   Zn    Zn3+2 0.651000 0.499970 0.499980 0.934054
N3    N     N_3   0.195186 0.330456 0.378072 -0.385715
H16   H     H_    0.192295 0.339634 0.299734 0.146760
H17   H     H_    0.156830 0.241860 0.405866 0.162557

loop_
_geom_bond_atom_site_label_1
_geom_bond_atom_site_label_2
_ccdc_geom_bond_type
C2    C4    A    
C23   C24   A    
C6    C7    A    
C1    C15   S    
C23   H13   S    
C14   H3    S    
C1    O2    A    
C19   O8    A    
C9    C20   A    
C6    H8    S    
O1    Zn1   S    
C4    C8    A    
C9    C21   A    
C18   O6    A    
O7    Zn1   S    
C2    C3    A    
C9    H1    S    
C12   O3    A    
C3    C10   A    
C8    H10   S    
C10   C22   A    
C11   H15   S    
C17   H6    S    
C11   C13   D    
O2    Zn2   S    
C15   H4    S    
C24   H12   S    
C10   C12   S    
C13   C18   S    
C16   N1    D    
N1    Zn1   S    
C20   H9    S    
C18   O5    A    
H5    N1    S    
C19   C21   S    
C7    H14   S    
N3    H17   S    
C8    C21   A    
C3    C7    A    
C2    C24   A    
C5    C6    A    
C11   C14   S    
C17   N2    D    
C13   H2    S    
C22   H11   S    
O4    Zn2   S    
C1    O1    A    
N3    H16   S    
O3    Zn1   S    
C5    C20   A    
O5    Zn1   S    
C22   C23   A    
C4    C5    A    
O6    Zn2   S    
H7    N2    S    
C14   C15   D    
N2    Zn2   S    
C16   N3    S    
C16   C17   S    
C19   O7    A    
C12   O4    A    
O8    Zn2   S    
