data_mof_unit_2093.cif
_audit_creation_date              2012-10-26T20:02:34-0400
_audit_creation_method            fapswitch 2.2
_symmetry_space_group_name_H-M    P1
_symmetry_Int_Tables_number       1
_space_group_crystal_system       triclinic
_cell_length_a                    19.057467
_cell_length_b                    18.460607
_cell_length_c                    12.352956
_cell_angle_alpha                 89.999223
_cell_angle_beta                  129.158515
_cell_angle_gamma                 90.00027
_cell_volume                      3369.83713718

loop_
_atom_site_label
_atom_site_type_symbol
_atom_type_description
_atom_site_fract_x
_atom_site_fract_y
_atom_site_fract_z
_atom_type_partial_charge
C1    C     C_R   0.612223 0.898223 0.652937 0.539899
C2    C     C_R   0.660297 0.721264 0.014724 0.054846
C3    C     C_R   0.160339 0.778725 0.014716 0.054846
C4    C     C_R   0.160316 0.221275 0.014727 0.054847
C5    C     C_R   0.583488 0.245532 0.897833 -0.135346
C6    C     C_R   0.583470 0.754518 0.897925 -0.135365
C7    C     C_R   0.083501 0.745523 0.897844 -0.135338
C8    C     C_R   0.083484 0.254511 0.897902 -0.135354
C9    C     C_R   0.587547 0.209776 0.803309 -0.118928
C10   C     C_R   0.587504 0.790258 0.803360 -0.118925
C11   C     C_R   0.087557 0.709776 0.803311 -0.118929
C12   C     C_R   0.612241 0.101763 0.652959 0.539886
C13   C     C_R   0.087525 0.290248 0.803342 -0.118921
C14   C     C_R   0.317176 0.814486 0.151135 -0.128591
C15   C     C_R   0.317135 0.185475 0.151058 -0.128598
C16   C     C_R   0.817168 0.314489 0.151124 -0.128586
C17   C     C_R   0.817114 0.685460 0.151030 -0.128600
C18   C     C_R   0.230781 0.849927 0.224796 -0.133714
C19   C     C_R   0.230786 0.150083 0.224827 -0.133717
C20   C     C_R   0.730771 0.349943 0.224776 -0.133712
C21   C     C_R   0.730782 0.650076 0.224833 -0.133717
C22   C     C_R   0.677833 0.159434 0.740447 0.005182
C23   C     C_R   0.112231 0.398229 0.652946 0.539887
C24   C     C_R   0.677756 0.840503 0.740349 0.005171
C25   C     C_R   0.177847 0.659417 0.740470 0.005192
C26   C     C_R   0.177789 0.340530 0.740388 0.005179
C27   C     C_R   0.684477 0.000002 0.286834 -0.117996
C28   C     C_R   0.184477 0.500001 0.286834 -0.117992
C29   C     C_R   0.343763 0.000001 0.627517 0.053670
C30   C     C_R   0.843763 0.500001 0.627517 0.053669
C31   C     C_R   0.309600 0.000003 0.699359 -0.153229
C32   C     C_R   0.809600 0.500004 0.699359 -0.153231
C33   C     C_R   0.384255 0.098695 0.342456 0.543014
C34   C     C_R   0.112242 0.601761 0.652960 0.539882
C35   C     C_R   0.384257 0.901303 0.342460 0.543003
C36   C     C_R   0.884252 0.598693 0.342452 0.543013
C37   C     C_R   0.884257 0.401303 0.342460 0.543002
C38   C     C_R   0.368367 0.000004 0.844981 -0.121652
C39   C     C_R   0.868367 0.500005 0.844981 -0.121664
C40   C     C_R   0.462847 0.000002 0.921438 -0.025777
C41   C     C_R   0.962847 0.500002 0.921438 -0.025782
C42   C     C_R   0.494745 0.000001 0.842883 0.116974
C43   C     C_R   0.994745 0.500001 0.842883 0.116979
C44   C     C_R   0.526690 0.000002 0.072196 -0.069121
C45   C     C_R   0.241883 0.779470 0.033260 0.036312
C46   C     C_R   0.026690 0.500002 0.072196 -0.069123
C47   C     C_R   0.620651 0.000002 0.140378 0.044195
C48   C     C_R   0.120650 0.500002 0.140378 0.044195
C49   C     C_R   0.650301 0.000002 0.062062 0.332501
C50   C     C_R   0.150301 0.500001 0.062062 0.332502
C51   C     C_R   0.588795 0.000000 0.917277 -0.055970
C52   C     C_R   0.088795 0.500000 0.917277 -0.055965
C53   C     C_R   0.501969 0.000001 0.159539 0.042370
C54   C     C_R   0.001969 0.500001 0.159539 0.042367
C55   C     C_R   0.655746 0.000001 0.365936 0.019641
C56   C     C_R   0.241830 0.220484 0.033188 0.036305
C57   C     C_R   0.155746 0.500000 0.365936 0.019650
C58   C     C_R   0.655919 0.312862 0.111757 -0.127759
C59   C     C_R   0.655927 0.687171 0.111843 -0.127761
C60   C     C_R   0.155932 0.812843 0.111779 -0.127756
C61   C     C_R   0.155934 0.187176 0.111830 -0.127759
C62   C     C_R   0.310823 0.852159 0.242354 -0.001332
C63   C     C_R   0.310810 0.147831 0.242335 -0.001340
C64   C     C_R   0.810817 0.352163 0.242346 -0.001334
C65   C     C_R   0.810802 0.647822 0.242324 -0.001341
C66   C     C_R   0.754805 0.164938 0.749448 -0.124481
C67   C     C_R   0.741865 0.279488 0.033233 0.036312
C68   C     C_R   0.754666 0.834898 0.749203 -0.124523
C69   C     C_R   0.254839 0.664889 0.749513 -0.124469
C70   C     C_R   0.254724 0.334968 0.749298 -0.124508
C71   C     C_R   0.325031 0.711018 0.845708 -0.135501
C72   C     C_R   0.324861 0.288766 0.845380 -0.135515
C73   C     C_R   0.824976 0.211096 0.845601 -0.135503
C74   C     C_R   0.824779 0.788666 0.845237 -0.135521
C75   C     C_R   0.321705 0.749682 0.938848 -0.114988
C76   C     C_R   0.321552 0.250132 0.938565 -0.115025
C77   C     C_R   0.821653 0.249751 0.938751 -0.115004
C78   C     C_R   0.741799 0.720458 0.033152 0.036304
C79   C     C_R   0.821475 0.750043 0.938437 -0.115042
C80   C     C_R   0.745543 0.244823 0.934193 0.042226
C81   C     C_R   0.745437 0.755081 0.934041 0.042200
C82   C     C_R   0.245571 0.744792 0.934240 0.042230
C83   C     C_R   0.245484 0.255122 0.934104 0.042206
C84   C     C_R   0.669652 0.204097 0.825319 0.031806
C85   C     C_R   0.669577 0.795864 0.825253 0.031816
C86   C     C_R   0.169669 0.704084 0.825340 0.031801
C87   C     C_R   0.169610 0.295882 0.825281 0.031809
C88   C     C_R   0.660324 0.278742 0.014695 0.054842
Cu1   Cu    Cu3+1 0.526340 0.000000 0.421010 0.928320
Cu2   Cu    Cu3+1 0.026340 0.500000 0.421010 0.928320
Cu3   Cu    Cu3+1 0.473640 0.000000 0.578990 0.913068
Cu4   Cu    Cu3+1 0.973640 0.500000 0.578990 0.913074
F1    F     F_    0.740140 0.000004 0.125982 -0.643689
F2    F     F_    0.240140 0.500002 0.125982 -0.643688
H1    H     H_    0.224900 0.879231 0.294711 0.122908
H2    H     H_    0.797474 0.500001 0.514588 0.120105
H3    H     H_    0.338093 0.000006 0.894894 0.103218
H4    H     H_    0.838094 0.500007 0.894895 0.103215
H5    H     H_    0.237159 0.000005 0.641846 0.108521
H6    H     H_    0.737159 0.500006 0.641846 0.108523
H7    H     H_    0.618482 0.999999 0.867681 0.209445
H8    H     H_    0.118482 0.499999 0.867681 0.209441
H9    H     H_    0.519834 0.247134 0.879260 0.099539
H10   H     H_    0.519844 0.752973 0.879445 0.099555
H11   H     H_    0.019846 0.747130 0.879268 0.099532
H12   H     H_    0.224923 0.120795 0.294776 0.122912
H13   H     H_    0.019849 0.252946 0.879391 0.099550
H14   H     H_    0.593793 0.312621 0.097900 0.107909
H15   H     H_    0.593828 0.687452 0.098066 0.107872
H16   H     H_    0.093807 0.812597 0.097926 0.107924
H17   H     H_    0.093827 0.187446 0.098028 0.107885
H18   H     H_    0.381910 0.814266 0.174225 0.119562
H19   H     H_    0.381858 0.185693 0.174108 0.119582
H20   H     H_    0.881907 0.314250 0.174228 0.119560
H21   H     H_    0.881840 0.685693 0.174083 0.119583
H22   H     H_    0.761938 0.132091 0.684225 0.127347
H23   H     H_    0.724890 0.379251 0.294687 0.122906
H24   H     H_    0.761791 0.867715 0.683938 0.127374
H25   H     H_    0.261972 0.632031 0.684298 0.127338
H26   H     H_    0.261850 0.367798 0.684048 0.127359
H27   H     H_    0.379047 0.784020 0.010880 0.102248
H28   H     H_    0.378839 0.215721 0.010497 0.102275
H29   H     H_    0.878969 0.284122 0.010743 0.102262
H30   H     H_    0.878735 0.715599 0.010326 0.102284
H31   H     H_    0.383802 0.715150 0.851073 0.107648
H32   H     H_    0.383577 0.284551 0.850618 0.107671
H33   H     H_    0.883727 0.215260 0.850922 0.107658
H34   H     H_    0.724928 0.620796 0.294799 0.122912
H35   H     H_    0.883472 0.784415 0.850423 0.107686
H36   H     H_    0.524654 0.188323 0.711157 0.150420
H37   H     H_    0.524613 0.811747 0.711264 0.150475
H38   H     H_    0.024659 0.688335 0.711144 0.150404
H39   H     H_    0.024630 0.311716 0.711217 0.150449
H40   H     H_    0.704930 0.000000 0.478731 0.117666
H41   H     H_    0.204930 0.499999 0.478731 0.117656
H42   H     H_    0.756474 0.000003 0.340437 0.166305
H43   H     H_    0.256474 0.500001 0.340437 0.166306
H44   H     H_    0.432133 0.000000 0.116446 0.124215
H45   H     H_    0.932133 0.500001 0.116446 0.124212
H46   H     H_    0.297474 0.000001 0.514588 0.120108
N1    N     N_R   0.566260 0.000000 0.302220 -0.230769
N2    N     N_R   0.066260 0.500000 0.302220 -0.230766
N3    N     N_R   0.434410 0.000000 0.697680 -0.235649
N4    N     N_R   0.934410 0.500000 0.697680 -0.235644
O1    O     O_R   0.608610 0.924520 0.551740 -0.501164
O2    O     O_R   0.435880 0.924530 0.314850 -0.506419
O3    O     O_R   0.935880 0.575470 0.314850 -0.506413
O4    O     O_R   0.935880 0.424530 0.314850 -0.506413
O5    O     O_R   0.391380 0.075460 0.448260 -0.511577
O6    O     O_R   0.391380 0.924540 0.448260 -0.511586
O7    O     O_R   0.891380 0.575460 0.448260 -0.511578
O8    O     O_R   0.891380 0.424540 0.448260 -0.511581
O9    O     O_R   0.608610 0.075480 0.551740 -0.501145
O10   O     O_R   0.108610 0.424520 0.551740 -0.501166
O11   O     O_R   0.108610 0.575480 0.551740 -0.501150
O12   O     O_R   0.564110 0.924510 0.685150 -0.524250
O13   O     O_R   0.564110 0.075490 0.685150 -0.524215
O14   O     O_R   0.064110 0.424510 0.685150 -0.524238
O15   O     O_R   0.064110 0.575490 0.685150 -0.524215
O16   O     O_R   0.435880 0.075470 0.314850 -0.506416

loop_
_geom_bond_atom_site_label_1
_geom_bond_atom_site_label_2
_ccdc_geom_bond_type
C30   C32   A    
C5    H9    S    
C10   C85   A    
C8    C13   A    
C55   N1    A    
C1    O1    A    
C45   C82   A    
C12   O9    A    
C80   C84   A    
C11   H38   S    
C82   C86   A    
C39   C41   A    
C28   C57   A    
C14   H18   S    
C52   H8    S    
C67   C88   A    
C66   H22   S    
C57   N2    A    
Cu1   O16   S    
Cu4   O15   S    
C77   H29   S    
C27   H42   S    
C21   C59   A    
C3    C7    A    
C27   C55   A    
C43   C52   A    
C32   C39   A    
C11   C86   A    
C68   C74   A    
C14   C62   A    
C23   O14   A    
C12   C22   S    
C30   N4    A    
Cu4   O14   S    
C23   C26   S    
C69   C71   A    
C10   H37   S    
C22   C66   A    
C30   H2    S    
C68   H24   S    
C5    C88   A    
Cu2   Cu4   S    
C44   C53   A    
C19   C63   A    
C26   C87   A    
C49   C51   A    
Cu4   O8    S    
C50   C52   A    
C41   C46   A    
C7    H11   S    
C35   O6    A    
C31   H5    S    
C12   O13   A    
Cu1   Cu3   S    
C24   C85   A    
C53   N1    A    
C44   C47   A    
C4    C8    A    
C42   C51   A    
C3    C60   A    
C40   C42   A    
C4    C56   A    
C18   H1    S    
C41   C43   A    
C13   C87   A    
C43   N4    A    
C2    C6    A    
C38   H3    S    
C76   C83   A    
C20   H23   S    
C7    C11   A    
C14   C45   A    
Cu3   N3    S    
Cu1   O2    S    
C46   C48   A    
C71   C75   A    
C28   H43   S    
C53   H44   S    
C18   C62   A    
C47   C49   A    
C70   H26   S    
Cu3   O5    S    
C2    C59   A    
C50   F2    S    
C39   H4    S    
C34   O11   A    
C66   C73   A    
C4    C61   A    
C3    C45   A    
C32   H6    S    
C72   H32   S    
C35   O2    A    
C22   C84   A    
C20   C64   A    
C1    O12   A    
Cu1   O1    S    
C5    C9    A    
Cu2   O3    S    
C2    C78   A    
C36   O3    A    
Cu1   O9    S    
C54   H45   S    
C33   C63   S    
C46   C54   A    
Cu4   O7    S    
C15   H19   S    
C72   C76   A    
C75   C82   A    
C16   C67   A    
C21   H34   S    
Cu2   N2    S    
C18   C60   A    
C54   N2    A    
C6    H10   S    
C74   C79   A    
C26   C70   A    
C25   C86   A    
C74   H35   S    
Cu2   O10   S    
Cu2   O4    S    
C37   O8    A    
C20   C58   A    
C61   H17   S    
C8    H13   S    
C37   C64   S    
C17   H21   S    
C56   C83   A    
C79   C81   A    
C77   C80   A    
C27   C47   A    
C29   H46   S    
C28   C48   A    
C73   C77   A    
C21   C65   A    
C75   H27   S    
C13   H39   S    
C71   H31   S    
C67   C80   A    
C16   H20   S    
C83   C87   A    
C6    C10   A    
Cu3   O6    S    
C33   O16   A    
C36   O7    A    
C51   H7    S    
C55   H40   S    
C79   H30   S    
C25   C34   S    
C17   C65   A    
C31   C38   A    
C76   H28   S    
C15   C56   A    
C36   C65   S    
Cu3   O12   S    
C29   C31   A    
C73   H33   S    
C34   O15   A    
C38   C40   A    
C78   C81   A    
C19   C61   A    
Cu1   N1    S    
C48   C50   A    
C17   C78   A    
C59   H15   S    
C33   O5    A    
C69   H25   S    
C35   C62   S    
C58   H14   S    
C37   O4    A    
Cu4   N4    S    
Cu3   O13   S    
C60   H16   S    
C24   C68   A    
C9    C84   A    
C19   H12   S    
C9    H36   S    
C40   C44   A    
C25   C69   A    
C1    C24   S    
C23   O10   A    
C42   N3    A    
C15   C63   A    
C57   H41   S    
C70   C72   A    
C16   C64   A    
C49   F1    S    
Cu2   O11   S    
C58   C88   A    
C81   C85   A    
C29   N3    A    
