data_mof_unit_2176.cif
_audit_creation_date              2012-12-10T22:11:15-0500
_audit_creation_method            fapswitch 2.2
_symmetry_space_group_name_H-M    P1
_symmetry_Int_Tables_number       1
_space_group_crystal_system       triclinic
_cell_length_a                    12.119825
_cell_length_b                    12.303692
_cell_length_c                    23.012454
_cell_angle_alpha                 90.694911
_cell_angle_beta                  91.078528
_cell_angle_gamma                 91.182429
_cell_volume                      3429.97731333

loop_
_atom_site_label
_atom_site_type_symbol
_atom_type_description
_atom_site_fract_x
_atom_site_fract_y
_atom_site_fract_z
_atom_type_partial_charge
C1    C     C_R   0.657374 0.998443 0.579310 0.856341
C2    C     C_R   0.342626 0.001557 0.420690 0.856341
C3    C     C_R   0.894009 0.778901 0.143547 -0.248427
C4    C     C_R   0.105991 0.221099 0.856453 -0.248430
C5    C     C_R   0.088657 0.891649 0.174132 -0.326903
C6    C     C_R   0.911343 0.108350 0.825869 -0.326912
C7    C     C_R   0.091607 0.809725 0.132332 0.482681
C8    C     C_R   0.908393 0.190274 0.867669 0.482686
C9    C     C_R   0.899698 0.128193 0.175211 -0.046290
C10   C     C_R   0.100302 0.871807 0.824789 -0.046289
C11   C     C_R   0.900955 0.210478 0.135022 -0.234941
C12   C     C_R   0.099045 0.789522 0.864978 -0.234941
C13   C     C_R   0.145681 0.907931 0.303100 -0.101330
C14   C     C_R   0.854318 0.092068 0.696900 -0.101329
C15   C     C_R   0.228094 0.906953 0.345468 -0.201470
C16   C     C_R   0.771906 0.093047 0.654532 -0.201471
C17   C     C_R   0.844501 0.103759 0.306295 0.471709
C18   C     C_R   0.155499 0.896241 0.693705 0.471709
C19   C     C_R   0.764272 0.102054 0.348111 0.583916
C20   C     C_R   0.235728 0.897946 0.651889 0.583916
C21   C     C_3   0.992936 0.007013 0.247669 0.008290
C22   C     C_3   0.007064 0.992987 0.752331 0.008290
C23   C     C_R   0.653652 0.002199 0.420261 0.977007
C24   C     C_R   0.346348 0.997801 0.579739 0.977007
C25   C     C_R   0.091252 0.005124 0.290009 0.111985
C26   C     C_R   0.908748 0.994876 0.709991 0.111986
C27   C     C_R   0.256181 0.002270 0.376420 -0.024177
C28   C     C_R   0.743819 0.997730 0.623580 -0.024177
C29   C     C_R   0.894387 0.006081 0.288125 -0.277959
C30   C     C_R   0.105613 0.993919 0.711875 -0.277959
C31   C     C_R   0.735135 0.004251 0.374901 -0.378131
C32   C     C_R   0.264865 0.995749 0.625099 -0.378131
C33   C     C_R   0.995610 0.104430 0.207654 0.102770
C34   C     C_R   0.004390 0.895570 0.792346 0.102770
C35   C     C_R   0.998986 0.268617 0.124917 -0.175446
C36   C     C_R   0.001014 0.731383 0.875082 -0.175446
C37   C     C_R   0.991546 0.912663 0.204268 0.112202
C38   C     C_R   0.008454 0.087337 0.795732 0.112205
C39   C     C_R   0.993070 0.752486 0.116980 -0.135804
C40   C     C_R   0.006930 0.247513 0.883020 -0.135800
C41   C     C_R   0.993469 0.663532 0.074694 0.894802
C42   C     C_R   0.006531 0.336468 0.925306 0.894807
C43   C     C_R   0.999184 0.352345 0.081098 0.907735
C44   C     C_R   0.000815 0.647655 0.918902 0.907737
C45   C     C_R   0.117867 0.099300 0.323206 -0.169767
C46   C     C_R   0.882133 0.900699 0.676794 -0.169768
C47   C     C_R   0.200600 0.098361 0.365248 -0.177824
C48   C     C_R   0.799400 0.901639 0.634752 -0.177824
C49   C     C_R   0.865873 0.908721 0.316960 0.601503
C50   C     C_R   0.134127 0.091279 0.683040 0.601504
C51   C     C_R   0.786007 0.908014 0.358946 -0.342727
C52   C     C_R   0.213993 0.091986 0.641054 -0.342728
C53   C     C_R   0.094796 0.160603 0.195561 -0.269543
C54   C     C_R   0.905204 0.839397 0.804438 -0.269543
C55   C     C_R   0.096274 0.243210 0.155397 0.649365
C56   C     C_R   0.903726 0.756790 0.844603 0.649365
C57   C     C_R   0.892838 0.859158 0.186166 -0.064593
C58   C     C_R   0.107162 0.140842 0.813833 -0.064593
H1    H     H_    0.219777 0.172539 0.389539 0.178785
H2    H     H_    0.780224 0.827461 0.610460 0.178785
H3    H     H_    0.172503 0.139418 0.215796 0.167617
H4    H     H_    0.827497 0.860581 0.784204 0.167617
H5    H     H_    0.814164 0.879813 0.204251 0.134347
H6    H     H_    0.185836 0.120188 0.795748 0.134347
H7    H     H_    0.163124 0.939401 0.183294 0.152807
H8    H     H_    0.836876 0.060598 0.816707 0.152803
H9    H     H_    0.823397 0.082764 0.181258 0.130571
H10   H     H_    0.176603 0.917237 0.818742 0.130571
H11   H     H_    0.123693 0.831549 0.281806 0.188603
H12   H     H_    0.876306 0.168451 0.718194 0.188603
H13   H     H_    0.766278 0.832038 0.380082 0.235035
H14   H     H_    0.233721 0.167962 0.619917 0.235035
H15   H     H_    0.817120 0.737321 0.131575 0.184427
H16   H     H_    0.182880 0.262679 0.868425 0.184427
H17   H     H_    0.825419 0.226983 0.111118 0.190706
H18   H     H_    0.174581 0.773017 0.888882 0.190706
H19   H     H_    0.269268 0.831384 0.354164 0.170164
H20   H     H_    0.730731 0.168616 0.645836 0.170165
H21   H     H_    0.074704 0.174245 0.316423 0.213495
H22   H     H_    0.925297 0.825755 0.683576 0.213495
O1    O     O_R   0.621380 0.090460 0.561410 -0.627270
O2    O     O_R   0.378620 0.909540 0.438590 -0.627270
O3    O     O_R   0.617150 0.909540 0.438590 -0.639593
O4    O     O_R   0.382850 0.090460 0.561410 -0.639593
O5    O     O_R   0.619720 0.093230 0.440890 -0.545930
O6    O     O_R   0.380280 0.906770 0.559110 -0.545930
O7    O     O_R   0.618800 0.906770 0.559110 -0.623124
O8    O     O_R   0.381200 0.093230 0.440890 -0.623124
O9    O     O_R   0.087590 0.627480 0.058790 -0.581235
O10   O     O_R   0.912410 0.372520 0.941210 -0.581231
O11   O     O_R   0.905660 0.383870 0.059980 -0.632208
O12   O     O_R   0.094340 0.616130 0.940020 -0.632208
O13   O     O_R   0.092570 0.390420 0.063230 -0.559550
O14   O     O_R   0.907430 0.609580 0.936770 -0.559550
O15   O     O_R   0.900680 0.620930 0.055550 -0.634380
O16   O     O_R   0.099320 0.379070 0.944450 -0.634381
Zn1   Zn    Zn3+2 0.501730 0.123520 0.501540 1.040122
Zn2   Zn    Zn3+2 0.498270 0.876480 0.498460 1.040122
Zn3   Zn    Zn3+2 0.125690 0.504390 0.002180 1.018836
Zn4   Zn    Zn3+2 0.874310 0.495610 0.997820 1.018836
F1    F     F_    0.917948 0.814160 0.306236 -0.657416
F2    F     F_    0.082052 0.185840 0.693764 -0.657415
F3    F     F_    0.876995 0.203025 0.287083 -0.625685
F4    F     F_    0.123005 0.796975 0.712918 -0.625685
F5    F     F_    0.193322 0.296795 0.146148 -0.648695
F6    F     F_    0.806678 0.703205 0.853852 -0.648694
O17   O     O_3   0.188477 0.792433 0.102922 -0.592050
C59   C     C_3   0.265633 0.743580 0.140737 0.118155
H23   H     H_    0.228867 0.670947 0.162255 0.152817
H24   H     H_    0.296541 0.802695 0.174529 0.129267
C60   C     C_3   0.363546 0.706433 0.105804 -0.747915
H25   H     H_    0.403308 0.777117 0.084382 0.250070
H26   H     H_    0.425008 0.668162 0.135062 0.205163
H27   H     H_    0.335628 0.646088 0.072074 0.256853
O18   O     O_3   0.811523 0.207566 0.897079 -0.592050
C61   C     C_3   0.734362 0.256408 0.859263 0.118145
H28   H     H_    0.703444 0.197282 0.825479 0.129274
H29   H     H_    0.771125 0.329032 0.837735 0.152808
C62   C     C_3   0.636457 0.293572 0.894198 -0.747910
H30   H     H_    0.664385 0.353931 0.927918 0.256855
H31   H     H_    0.574989 0.331831 0.864938 0.205162
H32   H     H_    0.596700 0.222898 0.915631 0.250071
F7    F     F_    0.717480 0.197525 0.363150 -0.587765
F8    F     F_    0.282520 0.802475 0.636850 -0.587765

loop_
_geom_bond_atom_site_label_1
_geom_bond_atom_site_label_2
_ccdc_geom_bond_type
C16   C28   A    
C41   O9    A    
C1    O7    A    
C5    C37   A    
C17   C29   A    
C60   H25   S    
C19   C31   A    
C24   C32   S    
C39   C41   S    
C29   C49   A    
C61   H28   S    
C19   F7    S    
C23   O3    A    
O9    Zn3   S    
C2    O2    A    
C42   O16   A    
O4    Zn1   S    
C49   F1    S    
C21   C33   S    
C1    O1    A    
O18   C61   S    
C22   C38   S    
O16   Zn3   S    
C59   H23   S    
C45   C47   A    
C32   C52   A    
C8    O18   S    
C17   C19   A    
C38   C58   A    
C53   H3    S    
C60   H26   S    
C4    C40   A    
C61   H29   S    
C49   C51   A    
O3    Zn2   S    
C1    C28   S    
C50   C52   A    
O17   C59   S    
C6    C38   A    
C2    O8    A    
C2    C27   S    
C18   C30   A    
C14   C16   A    
O11   Zn4   S    
C12   C36   A    
C35   C43   S    
O13   Zn3   S    
C4    H16   S    
O8    Zn1   S    
C44   O12   A    
O7    Zn2   S    
C62   H31   S    
C30   C50   A    
C3    C39   A    
C15   H19   S    
C58   H6    S    
C14   H12   S    
C13   C25   A    
C51   H13   S    
O6    Zn2   S    
O10   Zn4   S    
C48   H2    S    
C46   C48   A    
C53   C55   A    
C33   C53   A    
C22   C34   S    
C54   C56   A    
O2    Zn2   S    
C35   C55   A    
C44   O14   A    
C5    H7    S    
C5    C7    A    
O15   Zn4   S    
C6    C8    A    
C54   H4    S    
C21   C29   S    
C43   O11   A    
C42   O10   A    
C23   C31   S    
C9    H9    S    
C52   H14   S    
O1    Zn1   S    
C15   C27   A    
O14   Zn4   S    
C56   F6    S    
C10   C34   A    
C18   F4    S    
C14   C26   A    
C9    C11   A    
C45   H21   S    
C10   C12   A    
C9    C33   A    
C3    C57   A    
C55   F5    S    
C50   F2    S    
C13   C15   A    
C23   O5    A    
C7    O17   S    
C36   C44   S    
C25   C45   A    
C16   H20   S    
C20   C32   A    
C62   H32   S    
C27   C47   A    
C21   C25   S    
C28   C48   A    
C22   C30   S    
C57   H5    S    
C31   C51   A    
C40   C42   S    
C62   H30   S    
C61   C62   S    
C34   C54   A    
C10   H10   S    
C59   C60   S    
C12   H18   S    
C24   O4    A    
C11   H17   S    
C46   H22   S    
C41   O15   A    
C13   H11   S    
C11   C35   A    
C36   C56   A    
C43   O13   A    
C59   H24   S    
C60   H27   S    
C18   C20   A    
C17   F3    S    
C3    H15   S    
C20   F8    S    
O5    Zn1   S    
C26   C46   A    
C47   H1    S    
C6    H8    S    
C21   C37   S    
C22   C26   S    
C4    C58   A    
C7    C39   A    
C8    C40   A    
C24   O6    A    
C37   C57   A    
O12   Zn3   S    
