data_mof_unit_1716.cif
_audit_creation_date              2012-12-10T18:23:14-0500
_audit_creation_method            fapswitch 2.2
_symmetry_space_group_name_H-M    P1
_symmetry_Int_Tables_number       1
_space_group_crystal_system       triclinic
_cell_length_a                    27.776989
_cell_length_b                    10.607573
_cell_length_c                    9.417575
_cell_angle_alpha                 90.780936
_cell_angle_beta                  90.304096
_cell_angle_gamma                 89.719634
_cell_volume                      2774.52586025

loop_
_atom_site_label
_atom_site_type_symbol
_atom_type_description
_atom_site_fract_x
_atom_site_fract_y
_atom_site_fract_z
_atom_type_partial_charge
C1    C     C_R   0.500010 0.259359 0.499108 0.779639
C2    C     C_R   0.500059 0.740552 0.500880 0.779970
C3    C     C_R   0.102408 0.522837 0.491454 -0.116767
C4    C     C_R   0.898423 0.510794 0.496523 -0.112861
C5    C     C_R   0.128698 0.414534 0.450555 0.012132
C6    C     C_R   0.872305 0.613088 0.555087 -0.013983
C7    C     C_R   0.104255 0.305816 0.407866 -0.165838
C8    C     C_R   0.896889 0.716143 0.613463 -0.170301
C9    C     C_R   0.127372 0.632891 0.533165 -0.133548
C10   C     C_R   0.873314 0.405446 0.440565 -0.113143
C11   C     C_R   0.354957 0.507185 0.499439 -0.084817
C12   C     C_R   0.645490 0.500415 0.501398 -0.079743
C13   C     C_R   0.975619 0.410714 0.436655 -0.025148
C14   C     C_R   0.025100 0.628646 0.536517 -0.026969
C15   C     C_R   0.974145 0.622482 0.547117 0.094115
C16   C     C_R   0.026729 0.410759 0.442565 0.093912
C17   C     C_R   0.949555 0.514444 0.493807 0.072955
C18   C     C_R   0.051242 0.520896 0.489878 0.066820
C19   C     C_R   0.949662 0.310620 0.373217 -0.312001
C20   C     C_R   0.050854 0.740200 0.567971 -0.309250
C21   C     C_R   0.899355 0.304531 0.378630 0.478793
C22   C     C_R   0.101110 0.744156 0.561714 0.505715
C23   C     C_R   0.407648 0.500783 0.499736 0.813836
C24   C     C_R   0.592494 0.500003 0.500372 0.813819
C25   C     C_R   0.054359 0.303183 0.404915 -0.212633
C26   C     C_R   0.946777 0.720509 0.610721 -0.221256
C27   C     C_3   0.538213 0.042921 0.573928 -0.172687
C28   C     C_3   0.461995 0.956648 0.426024 -0.169578
C29   C     C_3   0.540927 0.956173 0.440888 -0.154382
C30   C     C_3   0.459245 0.043453 0.558864 -0.162944
C31   C     C_3   0.500130 0.877434 0.502252 0.029644
C32   C     C_3   0.500060 0.122302 0.497669 0.023580
C33   C     C_3   0.497390 0.961842 0.635340 -0.151703
C34   C     C_3   0.502788 0.037804 0.364565 -0.139841
C35   C     C_3   0.529692 0.580332 0.050749 0.629580
C36   C     C_3   0.470316 0.419636 0.949032 0.633988
C37   C     C_3   0.487753 0.610357 0.950723 -0.200704
C38   C     C_3   0.512235 0.389527 0.049300 -0.205676
C39   C     C_3   0.542555 0.471459 0.949592 -0.201837
C40   C     C_3   0.457463 0.528497 0.050263 -0.195928
C41   C     C_R   0.179146 0.417106 0.453475 0.554982
C42   C     C_R   0.821889 0.610105 0.554482 0.589180
C43   C     C_R   0.178150 0.629006 0.540666 0.598120
C44   C     C_R   0.822561 0.404823 0.448111 0.554507
C45   C     C_R   0.280167 0.587819 0.396365 0.518582
C46   C     C_R   0.721552 0.499486 0.632520 0.503337
C47   C     C_R   0.330734 0.573771 0.392865 -0.346148
C48   C     C_R   0.670951 0.499739 0.630721 -0.350323
C49   C     C_R   0.328784 0.450053 0.607445 -0.219084
C50   C     C_R   0.671021 0.502412 0.373269 -0.227294
C51   C     C_R   0.278740 0.455828 0.606359 -0.191539
C52   C     C_R   0.721092 0.505701 0.374386 -0.208376
C53   C     C_R   0.254377 0.522961 0.500771 0.290209
C54   C     C_R   0.746486 0.505281 0.503284 0.292794
Cu1   Cu    Cu3+1 0.500010 0.499990 0.643150 0.967466
Cu2   Cu    Cu3+1 0.499990 0.500010 0.356850 0.966799
H1    H     H_    0.569404 0.081461 0.634275 0.129540
H2    H     H_    0.430803 0.916605 0.367044 0.131152
H3    H     H_    0.495278 0.927874 0.746132 0.128167
H4    H     H_    0.505212 0.071650 0.253858 0.139568
H5    H     H_    0.478091 0.702992 0.904787 0.132604
H6    H     H_    0.522531 0.297791 0.096108 0.129627
H7    H     H_    0.123710 0.221553 0.376983 0.170527
H8    H     H_    0.877610 0.794540 0.661867 0.181504
H9    H     H_    0.651603 0.500584 0.730111 0.156880
H10   H     H_    0.351730 0.615459 0.309699 0.147354
H11   H     H_    0.967473 0.236904 0.313701 0.147989
H12   H     H_    0.032933 0.827792 0.593424 0.142923
N1    N     N_R   0.202708 0.523170 0.498435 -0.450063
N2    N     N_R   0.798173 0.506852 0.502143 -0.455601
N3    N     N_3   0.500040 0.499970 0.858290 -0.186620
N4    N     N_3   0.499960 0.500030 0.141710 -0.189326
O1    O     O_R   0.500020 0.316850 0.620870 -0.545516
O2    O     O_R   0.499980 0.683150 0.379130 -0.543705
O3    O     O_R   0.500000 0.316860 0.379090 -0.598734
O4    O     O_R   0.500000 0.683140 0.620910 -0.600928
O5    O     O_R   0.430270 0.500020 0.620880 -0.544445
O6    O     O_R   0.569730 0.499980 0.379120 -0.550835
O7    O     O_R   0.430250 0.500030 0.379090 -0.595459
O8    O     O_R   0.569750 0.499970 0.620910 -0.597101
O9    O     O_2   0.204547 0.314405 0.411716 -0.556346
O10   O     O_2   0.796658 0.709939 0.605119 -0.534888
O11   O     O_2   0.797564 0.302704 0.404086 -0.518791
O12   O     O_2   0.202907 0.728797 0.592106 -0.514814
H13   H     H_    0.347010 0.398347 0.690527 0.181380
H14   H     H_    0.652342 0.502153 0.272079 0.172038
O13   O     O_3   0.561184 0.668280 0.115250 -0.593006
C55   C     C_3   0.588613 0.730984 0.011808 -0.002318
H15   H     H_    0.587154 0.833599 0.036799 0.163104
H16   H     H_    0.574863 0.719346 0.900760 0.136103
C56   C     C_3   0.641048 0.686776 0.020068 -0.369384
H17   H     H_    0.655372 0.705529 0.128701 0.232372
H18   H     H_    0.642998 0.583677 0.998768 0.197550
C57   C     C_3   0.672332 0.754659 0.912848 -0.840502
H19   H     H_    0.658674 0.737775 0.803219 0.259655
H20   H     H_    0.709871 0.718716 0.919840 0.287051
H21   H     H_    0.672409 0.857652 0.935781 0.244870
O14   O     O_3   0.437633 0.335641 0.883161 -0.600742
C58   C     C_3   0.416100 0.256760 0.984227 0.006472
H22   H     H_    0.376962 0.252626 0.959740 0.171997
H23   H     H_    0.419324 0.291692 0.096278 0.139856
C59   C     C_3   0.437242 0.123745 0.970730 -0.329819
H24   H     H_    0.433039 0.089056 0.859775 0.227154
H25   H     H_    0.476250 0.125539 0.996858 0.198323
C60   C     C_3   0.411980 0.032923 0.069295 -0.955100
H26   H     H_    0.413459 0.069521 0.180151 0.260137
H27   H     H_    0.430054 0.939343 0.064396 0.255016
H28   H     H_    0.373753 0.021487 0.036585 0.263767
H29   H     H_    0.578034 0.447936 0.902331 0.126181
H30   H     H_    0.421771 0.550792 0.097010 0.136332
H31   H     H_    0.258683 0.407936 0.687664 0.162298
H32   H     H_    0.740325 0.508669 0.274769 0.157899
O15   O     O_3   0.747518 0.502597 0.758705 -0.595250
C61   C     C_3   0.735944 0.398023 0.843167 0.023552
H33   H     H_    0.732553 0.309720 0.777983 0.146853
H34   H     H_    0.701726 0.416403 0.900770 0.134540
C62   C     C_3   0.776121 0.378916 0.952285 -0.325395
H35   H     H_    0.810657 0.361414 0.896031 0.230039
H36   H     H_    0.780022 0.465687 0.018838 0.224745
C63   C     C_3   0.765654 0.267603 0.048081 -0.853158
H37   H     H_    0.732518 0.285907 0.110787 0.256681
H38   H     H_    0.796300 0.253750 0.122334 0.313425
H39   H     H_    0.761021 0.179925 0.983709 0.247335
O16   O     O_3   0.253941 0.656444 0.296778 -0.614901
C64   C     C_3   0.276457 0.770111 0.255749 0.036577
H40   H     H_    0.251950 0.816021 0.178251 0.183275
H41   H     H_    0.310241 0.752239 0.196334 0.134913
C65   C     C_3   0.284040 0.863534 0.380660 -0.355680
H42   H     H_    0.249079 0.884844 0.432067 0.268604
H43   H     H_    0.308556 0.822663 0.461550 0.218908
C66   C     C_3   0.305816 0.986677 0.330398 -0.897738
H44   H     H_    0.341746 0.968242 0.283611 0.247828
H45   H     H_    0.310132 0.052783 0.421988 0.271536
H46   H     H_    0.282065 0.031411 0.250065 0.270710
O17   O     O_3   0.875271 0.207834 0.307620 -0.582274
C67   C     C_3   0.888876 0.087558 0.358680 0.085438
H47   H     H_    0.856240 0.042449 0.402542 0.188797
H48   H     H_    0.916162 0.089453 0.446233 0.110179
C68   C     C_3   0.907420 0.006346 0.234835 -0.363557
H49   H     H_    0.878769 0.997750 0.152440 0.236359
H50   H     H_    0.939071 0.052307 0.186322 0.213111
C69   C     C_3   0.922025 0.874853 0.283187 -0.893815
H51   H     H_    0.951527 0.881201 0.362997 0.255070
H52   H     H_    0.935022 0.818472 0.190762 0.260567
H53   H     H_    0.890694 0.826025 0.329813 0.268370
O18   O     O_3   0.124887 0.857279 0.584467 -0.564811
C70   C     C_3   0.117125 0.939769 0.469064 0.064413
H54   H     H_    0.137083 0.027654 0.494539 0.190808
H55   H     H_    0.078531 0.966938 0.459039 0.111636
C71   C     C_3   0.135968 0.885833 0.326727 -0.379543
H56   H     H_    0.172117 0.843464 0.342159 0.257881
H57   H     H_    0.111363 0.810712 0.287164 0.210176
C72   C     C_3   0.139270 0.987162 0.213942 -0.888000
H58   H     H_    0.103807 0.034284 0.199484 0.251543
H59   H     H_    0.150202 0.943264 0.111294 0.270436
H60   H     H_    0.166747 0.058203 0.245042 0.272847
H61   H     H_    0.038551 0.213762 0.376241 0.128177
H62   H     H_    0.962875 0.801557 0.661781 0.140252
H63   H     H_    0.574300 0.916994 0.392775 0.142961
H64   H     H_    0.425553 0.082651 0.604819 0.134066

loop_
_geom_bond_atom_site_label_1
_geom_bond_atom_site_label_2
_ccdc_geom_bond_type
Cu1   Cu2   S    
C61   H34   S    
C27   C29   S    
C8    C26   A    
C14   C18   A    
C11   C47   A    
C70   H54   S    
C42   O10   S    
C12   C48   A    
C66   H46   S    
C53   N1    S    
C65   H42   S    
C61   H33   S    
O17   C67   S    
C29   H63   S    
C27   C33   S    
C30   H64   S    
C60   H27   S    
Cu2   O7    S    
C3    C18   A    
C11   C49   A    
C70   H55   S    
O18   C70   S    
C37   C40   S    
C62   H36   S    
C38   C39   S    
Cu1   O5    S    
C68   C69   S    
C9    C22   A    
C52   H32   S    
C42   N2    A    
Cu2   O6    S    
C59   C60   S    
C11   C23   S    
C35   O13   S    
C24   O8    A    
C69   H51   S    
C22   O18   S    
C52   C54   A    
Cu2   N4    S    
C71   C72   S    
C64   C65   S    
C50   C52   A    
C31   C33   S    
C19   H11   S    
C48   H9    S    
C72   H59   S    
C47   H10   S    
C2    O2    A    
C36   N3    S    
C57   H20   S    
C44   O11   S    
C28   C34   S    
C33   H3    S    
Cu2   O3    S    
C34   H4    S    
C43   O12   S    
C69   H53   S    
C57   H19   S    
C67   C68   S    
C63   H38   S    
C46   C48   A    
C45   C47   A    
C10   C21   A    
C60   H28   S    
C38   N4    S    
C9    C43   A    
Cu2   O2    S    
C13   C19   A    
C10   C44   A    
C1    O3    A    
C49   H13   S    
C36   C40   S    
C70   C71   S    
C4    C6    A    
C27   H1    S    
C62   C63   S    
C56   H17   S    
C5    C7    A    
C15   C26   A    
C40   H30   S    
C57   H21   S    
C49   C51   A    
C29   C34   S    
C1    C32   S    
C2    C31   S    
C51   C53   A    
C32   C34   S    
C35   C39   S    
C30   C33   S    
C3    C9    A    
C14   C20   A    
C56   H18   S    
C37   H5    S    
C58   H22   S    
C54   N2    S    
C55   C56   S    
C41   O9    S    
C46   C54   A    
C23   O5    A    
C72   H60   S    
C59   H25   S    
C7    H7    S    
C8    H8    S    
C4    C17   A    
C6    C8    A    
C24   O6    A    
C58   H23   S    
C55   H16   S    
C35   N4    S    
C37   N3    S    
C25   H61   S    
C64   H40   S    
C71   H57   S    
Cu1   O4    S    
C4    C10   A    
C66   H44   S    
C65   C66   S    
C3    C5    A    
C2    O4    A    
C63   H37   S    
C35   C37   S    
C67   H48   S    
C41   N1    A    
O15   C61   S    
C16   C25   A    
C15   C17   A    
C5    C41   A    
C51   H31   S    
C40   N4    S    
C46   O15   S    
C19   C21   A    
C27   C32   S    
C71   H56   S    
C20   H12   S    
C28   C31   S    
C20   C22   A    
C67   H47   S    
C66   H45   S    
C65   H43   S    
C12   C50   A    
C68   H49   S    
C63   H39   S    
C28   H2    S    
C60   H26   S    
C12   C24   S    
C7    C25   A    
C13   C17   A    
C44   N2    A    
C1    O1    A    
C36   C38   S    
C29   C31   S    
C62   H35   S    
C56   C57   S    
C30   C32   S    
Cu1   O8    S    
C68   H50   S    
C45   O16   S    
C28   C30   S    
C26   H62   S    
C69   H52   S    
C59   H24   S    
C61   C62   S    
C50   H14   S    
C45   C53   A    
Cu1   O1    S    
C39   H29   S    
C58   C59   S    
C55   H15   S    
O13   C55   S    
C16   C18   A    
O14   C58   S    
C6    C42   A    
C13   C16   A    
C64   H41   S    
C39   N3    S    
C14   C15   A    
C36   O14   S    
C23   O7    A    
C72   H58   S    
C43   N1    A    
C21   O17   S    
Cu1   N3    S    
O16   C64   S    
C38   H6    S    
