data_mof_unit_4440.cif
_audit_creation_date              2012-12-10T17:33:43-0500
_audit_creation_method            fapswitch 2.2
_symmetry_space_group_name_H-M    P1
_symmetry_Int_Tables_number       1
_space_group_crystal_system       triclinic
_cell_length_a                    11.675414
_cell_length_b                    12.329588
_cell_length_c                    13.161217
_cell_angle_alpha                 116.556092
_cell_angle_beta                  78.131931
_cell_angle_gamma                 101.099671
_cell_volume                      1647.50312667

loop_
_atom_site_label
_atom_site_type_symbol
_atom_type_description
_atom_site_fract_x
_atom_site_fract_y
_atom_site_fract_z
_atom_type_partial_charge
C1    C     C_R   0.512788 0.854765 0.286528 0.761854
C2    C     C_R   0.459558 0.227466 0.834234 -0.043054
C3    C     C_R   0.612015 0.811131 0.090656 -0.196522
C4    C     C_R   0.645024 0.730093 0.978621 -0.151324
C5    C     C_R   0.599443 0.607789 0.939441 -0.184570
C6    C     C_R   0.515608 0.564248 0.011378 0.089241
C7    C     C_R   0.473808 0.649979 0.122336 0.095340
C8    C     C_R   0.470990 0.438845 0.976671 0.084271
C9    C     C_R   0.381705 0.402525 0.050360 0.166820
C10   C     C_R   0.335019 0.489786 0.154515 -0.245150
C11   C     C_R   0.378191 0.611832 0.188713 -0.192752
C12   C     C_R   0.715662 0.999864 0.500278 0.816048
C13   C     C_R   0.511110 0.348144 0.870184 -0.247349
C14   C     C_R   0.374266 0.192300 0.908744 -0.213484
C15   C     C_R   0.528392 0.772140 0.163971 -0.102199
C16   C     C_R   0.659177 0.326053 0.302944 0.372292
C17   C     C_R   0.343756 0.761367 0.646414 -0.001484
C18   C     C_R   0.301508 0.661504 0.671346 -0.326628
C19   C     C_R   0.351739 0.552143 0.609115 0.481827
C20   C     C_R   0.455034 0.546816 0.527984 -0.105323
C21   C     C_R   0.491203 0.650351 0.502352 0.177853
C22   C     C_R   0.520396 0.442439 0.467734 -0.150188
C23   C     C_R   0.483221 0.144942 0.713284 0.799438
C24   C     C_R   0.604445 0.434454 0.369936 -0.047758
C25   C     C_R   0.635048 0.535825 0.343588 0.397900
C26   C     C_R   0.583470 0.642779 0.413382 -0.250858
C27   C     C_R   0.507524 0.345907 0.501386 0.027671
C28   C     C_R   0.640946 0.235137 0.341573 -0.032368
C29   C     C_R   0.284255 0.000620 0.500444 0.821641
C30   C     C_1   0.837134 0.000353 0.501765 -0.181682
C31   C     C_1   0.939699 0.001304 0.502622 -0.024983
C32   C     C_1   0.059759 0.001949 0.502280 -0.019245
C33   C     C_1   0.162505 0.001764 0.501399 -0.193330
C34   C     C_R   0.336519 0.279366 0.017057 -0.203681
Cu1   Cu    Cu3+1 0.526510 0.098270 0.475420 0.931076
Cu2   Cu    Cu3+1 0.473490 0.901730 0.524580 0.925312
H1    H     H_    0.333275 0.098879 0.881493 0.147177
H2    H     H_    0.453332 0.348952 0.578978 0.201008
H3    H     H_    0.300995 0.843800 0.692449 0.146635
H4    H     H_    0.225446 0.667040 0.735686 0.160166
H5    H     H_    0.616665 0.717559 0.392310 0.210840
H6    H     H_    0.263472 0.463818 0.209282 0.142053
H7    H     H_    0.268526 0.251249 0.073020 0.135389
H8    H     H_    0.580148 0.368706 0.811147 0.141687
H9    H     H_    0.655791 0.903490 0.121416 0.143717
H10   H     H_    0.631127 0.550629 0.852017 0.129233
H11   H     H_    0.709637 0.761413 0.922755 0.141484
H12   H     H_    0.333609 0.675900 0.267044 0.170656
H13   H     H_    0.684868 0.153668 0.293070 0.141347
N1    N     N_R   0.566700 0.246290 0.438210 -0.217805
N2    N     N_R   0.434010 0.754320 0.561170 -0.184202
O1    O     O_R   0.533340 0.972510 0.318140 -0.584202
O2    O     O_R   0.488570 0.806530 0.359650 -0.597339
O3    O     O_R   0.685190 0.083000 0.479260 -0.567407
O4    O     O_R   0.640410 0.917020 0.520770 -0.591335
O5    O     O_R   0.511430 0.193470 0.640350 -0.583268
O6    O     O_R   0.466660 0.027490 0.681860 -0.584914
O7    O     O_R   0.359590 0.082980 0.479230 -0.576438
O8    O     O_R   0.314810 0.917000 0.520740 -0.580314
O9    O     O_3   0.706957 0.526597 0.242702 -0.590954
C35   C     C_3   0.811574 0.608548 0.263414 0.075068
H14   H     H_    0.886757 0.553107 0.229561 0.186497
H15   H     H_    0.818822 0.668765 0.355814 0.112060
C36   C     C_3   0.822144 0.687182 0.198298 -0.340987
H16   H     H_    0.802869 0.628320 0.109216 0.242584
H17   H     H_    0.756629 0.754132 0.241171 0.201846
C37   C     C_3   0.945263 0.755578 0.193378 -0.922025
H18   H     H_    0.968652 0.812081 0.281068 0.264458
H19   H     H_    0.947958 0.816247 0.150773 0.256866
H20   H     H_    0.011212 0.689995 0.143608 0.258745
O10   O     O_3   0.735696 0.309955 0.203123 -0.597128
C38   C     C_3   0.671529 0.257053 0.108308 0.137262
H21   H     H_    0.717851 0.292975 0.045027 0.185268
H22   H     H_    0.579917 0.282785 0.130356 0.138359
C39   C     C_3   0.669433 0.117868 0.051659 -0.436876
H23   H     H_    0.760633 0.093659 0.033972 0.231802
H24   H     H_    0.615463 0.079779 0.110575 0.210799
C40   C     C_3   0.616464 0.059983 0.939736 -0.865269
H25   H     H_    0.522728 0.076009 0.957183 0.262479
H26   H     H_    0.620910 0.959957 0.899052 0.257282
H27   H     H_    0.665693 0.098551 0.879310 0.252991
O11   O     O_3   0.293984 0.451499 0.626365 -0.632092
C41   C     C_3   0.227133 0.375645 0.535710 0.051468
H28   H     H_    0.226163 0.279842 0.522131 0.183174
H29   H     H_    0.265840 0.378967 0.452001 0.128724
C42   C     C_3   0.099845 0.406615 0.568100 -0.360557
H30   H     H_    0.061349 0.399574 0.649826 0.232312
H31   H     H_    0.098474 0.501664 0.580660 0.212757
C43   C     C_3   0.024398 0.320385 0.474827 -0.892299
H32   H     H_    0.059512 0.328596 0.393120 0.250946
H33   H     H_    0.932539 0.344199 0.501302 0.260963
H34   H     H_    0.023385 0.224494 0.460844 0.264655

loop_
_geom_bond_atom_site_label_1
_geom_bond_atom_site_label_2
_ccdc_geom_bond_type
C16   C28   A    
C21   C26   A    
C8    C13   A    
C10   H6    S    
C19   C20   A    
Cu2   O8    S    
C17   N2    A    
C23   O5    A    
C7    C11   A    
Cu1   O7    S    
C30   C31   T    
C42   H31   S    
C27   H2    S    
C29   C33   S    
C18   C19   A    
C17   H3    S    
C35   H15   S    
C2    C13   A    
C18   H4    S    
C1    O2    A    
Cu2   O2    S    
C28   N1    A    
C29   O8    A    
C8    C9    A    
C1    C15   S    
C25   O9    S    
C43   H33   S    
C19   O11   S    
C9    C10   A    
C27   N1    A    
C7    C15   A    
C16   C24   A    
Cu1   O3    S    
C11   H12   S    
C16   O10   S    
C38   C39   S    
C39   C40   S    
C37   H18   S    
C36   C37   S    
C24   C25   A    
C38   H22   S    
Cu2   O6    S    
C40   H25   S    
C4    C5    A    
C6    C8    A    
C25   C26   A    
C3    H9    S    
O9    C35   S    
C37   H19   S    
Cu1   Cu2   S    
C36   H17   S    
C35   C36   S    
C39   H23   S    
C28   H13   S    
C31   C32   S    
C2    C23   S    
Cu1   N1    S    
C17   C18   A    
C20   C21   A    
C43   H34   S    
C39   H24   S    
Cu2   N2    S    
C41   H29   S    
C20   C22   A    
C22   C27   A    
C9    C34   A    
C22   C24   A    
C41   H28   S    
C3    C4    A    
C21   N2    A    
C3    C15   A    
C23   O6    A    
C12   C30   S    
Cu1   O5    S    
C42   H30   S    
C34   H7    S    
C38   H21   S    
C42   C43   S    
C14   C34   A    
C6    C7    A    
C5    H10   S    
C37   H20   S    
C32   C33   T    
O10   C38   S    
Cu2   O4    S    
C36   H16   S    
C14   H1    S    
C40   H27   S    
C5    C6    A    
C40   H26   S    
C35   H14   S    
C2    C14   A    
C1    O1    A    
C12   O4    A    
C10   C11   A    
C41   C42   S    
C29   O7    A    
O11   C41   S    
Cu1   O1    S    
C43   H32   S    
C13   H8    S    
C12   O3    A    
C26   H5    S    
C4    H11   S    
