data_mof_unit_2442.cif
_audit_creation_date              2012-12-10T16:46:45-0500
_audit_creation_method            fapswitch 2.2
_symmetry_space_group_name_H-M    P1
_symmetry_Int_Tables_number       1
_space_group_crystal_system       triclinic
_cell_length_a                    15.852387
_cell_length_b                    8.690563
_cell_length_c                    7.488437
_cell_angle_alpha                 103.170826
_cell_angle_beta                  94.44098
_cell_angle_gamma                 92.740784
_cell_volume                      999.220227429

loop_
_atom_site_label
_atom_site_type_symbol
_atom_type_description
_atom_site_fract_x
_atom_site_fract_y
_atom_site_fract_z
_atom_type_partial_charge
C1    C     C_R   0.497421 0.199770 0.453148 0.852607
C2    C     C_3   0.948966 0.351319 0.555384 -0.303559
C3    C     C_3   0.917045 0.500448 0.496991 0.088159
C4    C     C_3   0.959500 0.651523 0.635165 0.199133
C5    C     C_3   0.057566 0.650297 0.639119 -0.408362
C6    C     C_1   0.824626 0.500176 0.494312 0.065019
C7    C     C_1   0.175311 0.500857 0.505578 -0.063167
C8    C     C_1   0.250897 0.500498 0.505587 -0.160181
C9    C     C_2   0.496115 0.031629 0.427148 -0.327499
C10   C     C_2   0.503919 0.968387 0.572886 -0.349950
C11   C     C_R   0.340409 0.499819 0.501908 0.790924
C12   C     C_R   0.502594 0.800235 0.546867 0.884686
C13   C     C_R   0.659576 0.500269 0.498106 0.829187
C14   C     C_3   0.046740 0.352161 0.559168 -0.376846
C15   C     C_3   0.043649 0.500414 0.306538 -0.400465
C16   C     C_3   0.945620 0.502327 0.302765 0.210434
C17   C     C_1   0.749051 0.500076 0.494415 -0.043552
C18   C     C_3   0.083059 0.501048 0.502750 0.183788
Cu1   Cu    Cu3+1 0.509300 0.517380 0.684380 1.053269
Cu2   Cu    Cu3+1 0.490700 0.482620 0.315620 1.034682
H1    H     H_    0.919934 0.241750 0.458468 0.213678
H2    H     H_    0.074106 0.350165 0.700049 0.188750
H3    H     H_    0.929394 0.347175 0.693748 0.244882
H4    H     H_    0.939371 0.758254 0.588943 0.121533
H5    H     H_    0.488653 0.959581 0.286940 0.203992
H6    H     H_    0.511315 0.040466 0.713107 0.186574
H7    H     H_    0.433366 0.378038 0.949228 0.182391
H8    H     H_    0.064597 0.243094 0.463500 0.183555
H9    H     H_    0.069329 0.606143 0.262740 0.165362
H10   H     H_    0.062251 0.394331 0.207047 0.218151
H11   H     H_    0.926040 0.612904 0.264945 0.163414
H12   H     H_    0.086408 0.652942 0.780219 0.217031
H13   H     H_    0.083321 0.758845 0.601299 0.148934
N1    N     N_2   0.476670 0.456430 0.038530 -0.166533
N2    N     N_2   0.523330 0.543570 0.961470 0.089605
O1    O     O_R   0.506050 0.286130 0.619770 -0.599571
O2    O     O_R   0.490330 0.256780 0.308370 -0.588269
O3    O     O_R   0.387300 0.514690 0.655770 -0.605266
O4    O     O_R   0.371580 0.485340 0.344370 -0.587911
O5    O     O_R   0.509670 0.743220 0.691630 -0.562821
O6    O     O_R   0.493950 0.713870 0.380230 -0.541258
O7    O     O_R   0.628420 0.514660 0.655630 -0.534358
O8    O     O_R   0.612700 0.485310 0.344230 -0.522165
Cl1   Cl    Cl    0.600401 0.679126 0.091070 -0.419982
Cl2   Cl    Cl    0.895747 0.341221 0.125677 -0.569750
Cl3   Cl    Cl    0.926796 0.671622 0.863359 -0.588277

loop_
_geom_bond_atom_site_label_1
_geom_bond_atom_site_label_2
_ccdc_geom_bond_type
C16   Cl2   S    
C12   O5    A    
C11   O3    A    
C12   O6    A    
N2    Cl1   S    
Cu1   O3    S    
C13   C17   S    
C15   C18   S    
C9    C10   D    
C14   C18   S    
Cu1   Cu2   S    
Cu1   O7    S    
C1    O2    A    
C3    C6    S    
Cu2   N1    S    
C7    C18   S    
C2    H1    S    
C2    C3    S    
C9    H5    S    
C7    C8    T    
Cu1   N2    S    
C16   H11   S    
C11   O4    A    
Cu2   O2    S    
C10   H6    S    
C10   C12   S    
C8    C11   S    
C2    C14   S    
C13   O7    A    
C15   H9    S    
Cu1   O1    S    
H7    N1    S    
C14   H2    S    
C4    H4    S    
Cu1   O5    S    
C3    C4    S    
C13   O8    A    
Cu2   O8    S    
C1    C9    S    
C15   H10   S    
N1    N2    D    
C2    H3    S    
Cu2   O4    S    
C6    C17   T    
C4    Cl3   S    
C5    C18   S    
C14   H8    S    
C5    H12   S    
C3    C16   S    
C15   C16   S    
C1    O1    A    
Cu2   O6    S    
C4    C5    S    
C5    H13   S    
