data_mof_unit_1183.cif
_audit_creation_date              2012-12-11T14:42:16-0500
_audit_creation_method            fapswitch 2.2
_symmetry_space_group_name_H-M    P1
_symmetry_Int_Tables_number       1
_space_group_crystal_system       triclinic
_cell_length_a                    18.91422
_cell_length_b                    10.92803
_cell_length_c                    18.72478
_cell_angle_alpha                 89.835922
_cell_angle_beta                  90.328051
_cell_angle_gamma                 90.015466
_cell_volume                      3870.2420327

loop_
_atom_site_label
_atom_site_type_symbol
_atom_type_description
_atom_site_fract_x
_atom_site_fract_y
_atom_site_fract_z
_atom_type_partial_charge
C1    C     C_R   0.727937 0.953242 0.852843 0.556839
C2    C     C_R   0.241403 0.423490 0.927462 -0.025818
C3    C     C_R   0.248245 0.899317 0.079891 -0.042078
C4    C     C_R   0.751501 0.898198 0.919913 -0.039167
C5    C     C_R   0.832789 0.447505 0.019348 -0.145060
C6    C     C_R   0.184818 0.379426 0.967950 -0.138478
C7    C     C_R   0.289831 0.808516 0.048222 -0.148059
C8    C     C_R   0.707128 0.813138 0.953244 -0.144115
C9    C     C_R   0.821172 0.424100 0.947776 -0.178266
C10   C     C_R   0.188862 0.378701 0.040844 -0.185704
C11   C     C_R   0.279665 0.778765 0.977231 -0.187750
C12   C     C_R   0.272138 0.953722 0.146968 0.544878
C13   C     C_R   0.716801 0.785138 0.024396 -0.189954
C14   C     C_R   0.752143 0.425626 0.920085 0.029821
C15   C     C_R   0.252247 0.409749 0.075082 0.034154
C16   C     C_R   0.227014 0.837263 0.936875 0.021728
C17   C     C_R   0.772529 0.837487 0.063193 0.020216
C18   C     C_R   0.460926 0.277101 0.550011 -0.128293
C19   C     C_R   0.442563 0.279236 0.478839 -0.131044
C20   C     C_R   0.960925 0.777095 0.550013 -0.129507
C21   C     C_R   0.942568 0.779231 0.478838 -0.131671
C22   C     C_R   0.444971 0.171837 0.438851 0.026117
C23   C     C_R   0.226706 0.456254 0.854073 0.549051
C24   C     C_R   0.485297 0.168081 0.581177 0.033849
C25   C     C_R   0.944984 0.671835 0.438849 0.026499
C26   C     C_R   0.985299 0.668077 0.581178 0.031558
C27   C     C_R   0.459169 0.059315 0.472511 -0.127455
C28   C     C_R   0.480290 0.057651 0.543673 -0.129509
C29   C     C_R   0.959190 0.559314 0.472506 -0.128942
C30   C     C_R   0.980304 0.557649 0.543671 -0.131327
C31   C     C_R   0.786400 0.288842 0.524534 -0.132867
C32   C     C_R   0.205087 0.319234 0.470216 -0.126914
C33   C     C_R   0.286377 0.788781 0.524519 -0.132909
C34   C     C_R   0.790373 0.500214 0.138640 0.542166
C35   C     C_R   0.705177 0.819034 0.470258 -0.127634
C36   C     C_R   0.794688 0.315840 0.453243 -0.131217
C37   C     C_R   0.203521 0.328866 0.543293 -0.128495
C38   C     C_R   0.294662 0.815778 0.453225 -0.132072
C39   C     C_R   0.703604 0.828706 0.543337 -0.128950
C40   C     C_R   0.527466 0.177483 0.849030 0.568063
C41   C     C_R   0.442429 0.181817 0.141301 0.577494
C42   C     C_R   0.030339 0.677326 0.851325 0.545907
C43   C     C_R   0.971551 0.678045 0.150031 0.550648
C44   C     C_R   0.748762 0.398576 0.419237 0.033078
C45   C     C_R   0.707618 0.484758 0.035393 -0.097439
C46   C     C_R   0.248665 0.410999 0.577929 0.034330
C47   C     C_R   0.248746 0.898537 0.419224 0.032366
C48   C     C_R   0.748698 0.910942 0.577953 0.034782
C49   C     C_R   0.689519 0.442920 0.455680 -0.133681
C50   C     C_R   0.300501 0.473831 0.539141 -0.142910
C51   C     C_R   0.189504 0.942883 0.455669 -0.133809
C52   C     C_R   0.800506 0.973822 0.539154 -0.142303
C53   C     C_R   0.679595 0.411347 0.527145 -0.131058
C54   C     C_R   0.301639 0.465374 0.465086 -0.148055
C55   C     C_R   0.179580 0.911307 0.527136 -0.130725
C56   C     C_R   0.304206 0.459989 0.961046 -0.117637
C57   C     C_R   0.801644 0.965338 0.465101 -0.147335
C58   C     C_R   0.730092 0.338418 0.562651 0.031403
C59   C     C_R   0.253421 0.388618 0.430257 0.036264
C60   C     C_R   0.230077 0.838374 0.562643 0.029536
C61   C     C_R   0.753459 0.888507 0.430286 0.035097
C62   C     C_R   0.738880 0.366306 0.851940 0.578709
C63   C     C_R   0.261674 0.364858 0.147318 0.563607
C64   C     C_R   0.223761 0.812306 0.860137 0.579164
C65   C     C_R   0.776164 0.812610 0.139920 0.560655
C66   C     C_R   0.728796 0.953062 0.648382 0.540306
C67   C     C_R   0.191051 0.949644 0.041970 -0.095201
C68   C     C_R   0.271333 0.952486 0.351751 0.539698
C69   C     C_R   0.228790 0.453076 0.648375 0.546845
C70   C     C_R   0.771337 0.452496 0.351754 0.554172
C71   C     C_R   0.527227 0.176243 0.646112 0.536940
C72   C     C_R   0.434697 0.180436 0.362179 0.565778
C73   C     C_R   0.027223 0.676242 0.646117 0.538226
C74   C     C_R   0.934702 0.680435 0.362180 0.563932
C75   C     C_R   0.725323 0.311784 0.638883 0.561115
C76   C     C_R   0.261353 0.358632 0.355321 0.538983
C77   C     C_R   0.225318 0.811768 0.638883 0.565186
C78   C     C_R   0.811101 0.942989 0.956320 -0.094217
C79   C     C_R   0.761366 0.858587 0.355337 0.552071
C80   C     C_2   0.483991 0.169397 0.912868 -0.095529
C81   C     C_2   0.467118 0.174386 0.067898 -0.087123
C82   C     C_2   0.001336 0.666972 0.923283 -0.102477
C83   C     C_2   0.006746 0.672387 0.080946 -0.101918
C84   C     C_2   0.457180 0.073793 0.027918 -0.165638
C85   C     C_2   0.482541 0.068640 0.953825 -0.150945
C86   C     C_2   0.007733 0.569390 0.042578 -0.184517
C87   C     C_2   0.019404 0.571145 0.965023 -0.169533
C88   C     C_R   0.695463 0.460744 0.963720 0.356728
C89   C     C_R   0.776255 0.476065 0.063695 -0.032110
C90   C     C_R   0.310012 0.452699 0.034948 0.347898
C91   C     C_R   0.179849 0.918080 0.970773 0.366403
C92   C     C_R   0.822298 0.911578 0.027714 0.367473
Cr1   Cr    Cr6+3 0.769270 0.163730 0.750710 1.018897
Cr2   Cr    Cr6+3 0.385840 0.322500 0.252290 1.068284
Cr3   Cr    Cr6+3 0.114160 0.822500 0.747710 1.070466
Cr4   Cr    Cr6+3 0.885840 0.822500 0.252290 1.066951
Cr5   Cr    Cr6+3 0.230730 0.163730 0.249290 1.013581
Cr6   Cr    Cr6+3 0.269270 0.663730 0.750710 1.009512
Cr7   Cr    Cr6+3 0.730730 0.663730 0.249290 1.020866
Cr8   Cr    Cr6+3 0.612620 0.009790 0.748780 1.026102
Cr9   Cr    Cr6+3 0.387380 0.009790 0.251220 1.030262
Cr10  Cr    Cr6+3 0.112620 0.509790 0.748780 1.016240
Cr11  Cr    Cr6+3 0.887380 0.509790 0.251220 1.018384
Cr12  Cr    Cr6+3 0.614160 0.322500 0.747710 1.067021
F1    F     F_    0.627879 0.463293 0.938909 -0.618903
F2    F     F_    0.372296 0.483811 0.066394 -0.628506
F3    F     F_    0.125646 0.971885 0.934725 -0.611836
F4    F     F_    0.879203 0.958986 0.062394 -0.609259
H1    H     H_    0.434291 0.991645 0.051030 0.162833
H2    H     H_    0.337958 0.532978 0.565817 0.113338
H3    H     H_    0.153175 0.006280 0.430274 0.123126
H4    H     H_    0.837933 0.033040 0.565818 0.113329
H5    H     H_    0.634526 0.448376 0.555198 0.132152
H6    H     H_    0.340669 0.516715 0.435322 0.112468
H7    H     H_    0.134516 0.948345 0.555190 0.132268
H8    H     H_    0.840643 0.016734 0.435328 0.113445
H9    H     H_    0.492828 0.254872 0.045852 0.160959
H10   H     H_    0.459252 0.253445 0.930966 0.133754
H11   H     H_    0.022169 0.758783 0.056722 0.154896
H12   H     H_    0.504452 0.982851 0.934915 0.163254
H13   H     H_    0.974477 0.745994 0.945365 0.139997
H14   H     H_    0.662964 0.506888 0.068911 0.163532
H15   H     H_    0.348015 0.495680 0.930329 0.148465
H16   H     H_    0.157602 0.018528 0.065921 0.161676
H17   H     H_    0.846701 0.007212 0.930941 0.162437
H18   H     H_    0.885541 0.439440 0.040693 0.146599
H19   H     H_    0.135687 0.349685 0.943705 0.163913
H20   H     H_    0.333433 0.766143 0.076751 0.188333
H21   H     H_    0.661513 0.774898 0.926074 0.178521
H22   H     H_    0.865703 0.397503 0.915137 0.151473
H23   H     H_    0.998477 0.481608 0.068083 0.146667
H24   H     H_    0.143353 0.345544 0.070040 0.154589
H25   H     H_    0.315360 0.713953 0.952944 0.157522
H26   H     H_    0.678312 0.726602 0.049902 0.155382
H27   H     H_    0.462297 0.363220 0.578523 0.130509
H28   H     H_    0.431011 0.366344 0.453989 0.128421
H29   H     H_    0.962286 0.863211 0.578527 0.130602
H30   H     H_    0.931012 0.866339 0.453990 0.128339
H31   H     H_    0.458749 0.974254 0.442973 0.136003
H32   H     H_    0.497511 0.972129 0.567418 0.130559
H33   H     H_    0.958779 0.474256 0.442966 0.135429
H34   H     H_    0.044007 0.491032 0.942030 0.154900
H35   H     H_    0.997529 0.472129 0.567414 0.130317
H36   H     H_    0.826203 0.233518 0.550570 0.122510
H37   H     H_    0.168815 0.255243 0.445396 0.133717
H38   H     H_    0.326177 0.733451 0.550554 0.122324
H39   H     H_    0.668945 0.754968 0.445447 0.133402
H40   H     H_    0.840546 0.278778 0.426484 0.130250
H41   H     H_    0.163907 0.277189 0.572138 0.133522
H42   H     H_    0.340515 0.778706 0.426461 0.129515
H43   H     H_    0.664019 0.776985 0.572195 0.132175
H44   H     H_    0.653184 0.506305 0.430281 0.123816
O1    O     O_R   0.784320 0.290430 0.830510 -0.527557
O2    O     O_R   0.456080 0.282180 0.333210 -0.509301
O3    O     O_R   0.043920 0.782180 0.666790 -0.538170
O4    O     O_R   0.956080 0.782180 0.333210 -0.516829
O5    O     O_R   0.679040 0.374160 0.674430 -0.508857
O6    O     O_R   0.320960 0.374160 0.325570 -0.527544
O7    O     O_R   0.179040 0.874160 0.674430 -0.497054
O8    O     O_R   0.820960 0.874160 0.325570 -0.519960
O9    O     O_3   0.665350 0.165340 0.749070 -0.272015
O10   O     O_3   0.334650 0.165340 0.250930 -0.298682
O11   O     O_3   0.165350 0.665340 0.749070 -0.298078
O12   O     O_R   0.215680 0.290430 0.169490 -0.532777
O13   O     O_3   0.834650 0.665340 0.250930 -0.323127
O14   O     O_R   0.762640 0.040960 0.825200 -0.499469
O15   O     O_R   0.237360 0.040960 0.174800 -0.500640
O16   O     O_R   0.262640 0.540960 0.825200 -0.525824
O17   O     O_R   0.737360 0.540960 0.174800 -0.514989
O18   O     O_R   0.667400 0.923970 0.829950 -0.512186
O19   O     O_R   0.332600 0.923970 0.170050 -0.521630
O20   O     O_R   0.167400 0.423970 0.829950 -0.509277
O21   O     O_R   0.832600 0.423970 0.170050 -0.480794
O22   O     O_R   0.553960 0.081340 0.821780 -0.498174
O23   O     O_R   0.284320 0.790430 0.830510 -0.518359
O24   O     O_R   0.446040 0.081340 0.178220 -0.486078
O25   O     O_R   0.053960 0.581340 0.821780 -0.507303
O26   O     O_R   0.946040 0.581340 0.178220 -0.517007
O27   O     O_R   0.543180 0.283240 0.826740 -0.466229
O28   O     O_R   0.456820 0.283240 0.173260 -0.458197
O29   O     O_R   0.043180 0.783240 0.826740 -0.473764
O30   O     O_R   0.956820 0.783240 0.173260 -0.466597
O31   O     O_R   0.678360 0.375140 0.822710 -0.424917
O32   O     O_R   0.321640 0.375140 0.177290 -0.442798
O33   O     O_R   0.178360 0.875140 0.822710 -0.412965
O34   O     O_R   0.715680 0.790430 0.169490 -0.518293
O35   O     O_R   0.821640 0.875140 0.177290 -0.413947
O36   O     O_R   0.785050 0.289380 0.670560 -0.521425
O37   O     O_R   0.214950 0.289380 0.329440 -0.522196
O38   O     O_R   0.285050 0.789380 0.670560 -0.511397
O39   O     O_R   0.714950 0.789380 0.329440 -0.515869
O40   O     O_R   0.763320 0.039990 0.676930 -0.524177
O41   O     O_R   0.236680 0.039990 0.323070 -0.504687
O42   O     O_R   0.263320 0.539990 0.676930 -0.522079
O43   O     O_R   0.736680 0.539990 0.323070 -0.499859
O44   O     O_R   0.668130 0.922920 0.670000 -0.520524
O45   O     O_R   0.554640 0.080370 0.673500 -0.505749
O46   O     O_R   0.331870 0.922920 0.330000 -0.532888
O47   O     O_R   0.168130 0.422920 0.670000 -0.514939
O48   O     O_R   0.831870 0.422920 0.330000 -0.526349
O49   O     O_R   0.445360 0.080370 0.326500 -0.494438
O50   O     O_R   0.054640 0.580370 0.673500 -0.502970
O51   O     O_R   0.945360 0.580370 0.326500 -0.502103
O52   O     O_R   0.543920 0.282180 0.666790 -0.540585

loop_
_geom_bond_atom_site_label_1
_geom_bond_atom_site_label_2
_ccdc_geom_bond_type
C44   C49   A    
Cr7   O39   S    
C65   O35   A    
C43   O26   A    
C8    C13   A    
Cr6   O23   S    
C39   H43   S    
C43   C83   S    
C13   H26   S    
C41   O28   A    
C75   O36   A    
C28   H32   S    
Cr11  O21   S    
Cr12  O5    S    
Cr6   O38   S    
C67   H16   S    
C12   O15   A    
Cr6   O11   S    
C9    H22   S    
C7    C11   A    
C76   O6    A    
C29   C30   A    
C55   H7    S    
C18   C24   A    
C77   O38   A    
Cr12  O52   S    
C31   C58   A    
C27   C28   A    
Cr9   O10   S    
C6    H19   S    
C18   C19   A    
C3    C7    A    
C10   C15   A    
C11   H25   S    
C86   H23   S    
Cr12  O27   S    
C74   O51   A    
C52   H4    S    
C42   O25   A    
C83   H11   S    
C82   C87   D    
C14   C62   S    
Cr7   O43   S    
C1    O18   A    
C50   H2    S    
C26   C73   S    
Cr6   O42   S    
C68   O46   A    
C25   C74   S    
Cr5   O41   S    
C31   H36   S    
C46   C69   S    
C76   O37   A    
C62   O31   A    
C36   H40   S    
C23   O20   A    
Cr10  O11   S    
C42   C82   S    
C5    H18   S    
C51   H3    S    
C40   C80   S    
C44   C70   S    
C68   O41   A    
C3    C12   S    
C7    H20   S    
C57   H8    S    
C92   F4    S    
Cr2   O10   S    
C82   H13   S    
C51   C55   A    
C64   O33   A    
C37   C46   A    
C4    C8    A    
Cr8   O45   S    
C75   O5    A    
C56   C90   A    
C41   C81   S    
C31   C36   A    
Cr2   O6    S    
C79   O39   A    
C55   C60   A    
C25   C29   A    
Cr4   O35   S    
C2    C6    A    
C17   C92   A    
Cr2   O32   S    
C21   H30   S    
C22   C72   S    
C53   H5    S    
C58   C75   S    
C71   O45   A    
C12   O19   A    
C10   H24   S    
C54   C59   A    
Cr8   O44   S    
C42   O29   A    
Cr10  O20   S    
C71   O52   A    
C80   H10   S    
C60   C77   S    
C72   O2    A    
Cr8   O18   S    
C56   H15   S    
C91   F3    S    
C19   C22   A    
C84   C85   S    
C90   F2    S    
C52   C57   A    
C37   H41   S    
C79   O8    A    
Cr9   O46   S    
C70   O43   A    
C47   C51   A    
C32   H37   S    
C78   C92   A    
C19   H28   S    
Cr5   O15   S    
C27   H31   S    
C30   H35   S    
C66   O40   A    
C20   H29   S    
C85   H12   S    
C35   C39   A    
C9    C14   A    
C5    C9    A    
C80   C85   D    
Cr3   O11   S    
C40   O27   A    
C11   C16   A    
Cr1   O9    S    
Cr2   O2    S    
Cr5   O12   S    
C29   H33   S    
C63   O12   A    
C73   O3    A    
C67   C91   A    
C74   O4    A    
C18   H27   S    
C35   C61   A    
C35   H39   S    
C32   C37   A    
C64   O23   A    
C57   C61   A    
C38   C47   A    
Cr8   O9    S    
C34   O17   A    
C77   O7    A    
C45   C88   A    
C81   H9    S    
Cr4   O8    S    
C41   O24   A    
Cr1   O14   S    
Cr11  O13   S    
C33   C60   A    
C22   C27   A    
Cr8   O22   S    
Cr3   O7    S    
C36   C44   A    
C47   C68   S    
Cr12  O9    S    
C81   C84   D    
C45   C89   A    
Cr3   O33   S    
Cr12  O31   S    
Cr1   O40   S    
C21   C25   A    
C65   O34   A    
C70   O48   A    
C63   O32   A    
C49   H44   S    
C86   C87   S    
Cr3   O29   S    
C24   C28   A    
C84   H1    S    
Cr4   O30   S    
C5    C89   A    
C6    C10   A    
C66   O44   A    
C53   C58   A    
C26   C30   A    
Cr7   O17   S    
C45   H14   S    
C4    C78   A    
C73   O50   A    
C46   C50   A    
C43   O30   A    
C17   C65   S    
C33   C38   A    
C62   O1    A    
C13   C17   A    
Cr11  O26   S    
C1    C4    S    
Cr1   O1    S    
Cr10  O50   S    
C34   C89   S    
C14   C88   A    
C50   C54   A    
C34   O21   A    
Cr9   O49   S    
Cr10  O47   S    
C15   C90   A    
C40   O22   A    
C88   F1    S    
Cr4   O4    S    
C20   C26   A    
C1    O14   A    
C61   C79   S    
C49   C53   A    
C54   H6    S    
C8    H21   S    
Cr5   O37   S    
C69   O42   A    
Cr9   O19   S    
Cr3   O3    S    
Cr11  O48   S    
C87   H34   S    
Cr11  O51   S    
Cr2   O28   S    
C33   H38   S    
C23   O16   A    
Cr1   O36   S    
C48   C52   A    
C83   C86   D    
C20   C21   A    
C16   C91   A    
Cr5   O10   S    
C2    C23   S    
C69   O47   A    
Cr10  O25   S    
C15   C63   S    
Cr4   O13   S    
C72   O49   A    
Cr9   O24   S    
C2    C56   A    
C16   C64   S    
C32   C59   A    
C48   C66   S    
C3    C67   A    
C78   H17   S    
C59   C76   S    
C38   H42   S    
Cr7   O34   S    
Cr6   O16   S    
C24   C71   S    
C39   C48   A    
Cr7   O13   S    
