data_mof_unit_3478.cif
_audit_creation_date              2012-10-26T19:52:23-0400
_audit_creation_method            fapswitch 2.2
_symmetry_space_group_name_H-M    P1
_symmetry_Int_Tables_number       1
_space_group_crystal_system       triclinic
_cell_length_a                    9.560701
_cell_length_b                    10.803673
_cell_length_c                    13.413977
_cell_angle_alpha                 90.130625
_cell_angle_beta                  72.726974
_cell_angle_gamma                 90.006582
_cell_volume                      1323.04839171

loop_
_atom_site_label
_atom_site_type_symbol
_atom_type_description
_atom_site_fract_x
_atom_site_fract_y
_atom_site_fract_z
_atom_type_partial_charge
C1    C     C_R   0.501000 0.737598 0.497713 0.546094
C2    C     C_R   0.376176 0.488828 0.814028 -0.000334
C3    C     C_R   0.382877 0.935953 0.480858 -0.032587
C4    C     C_R   0.421633 0.501105 0.700023 0.533783
C5    C     C_R   0.506174 0.870551 0.486285 -0.010087
C6    C     C_R   0.637431 0.935443 0.475233 -0.152130
C7    C     C_R   0.637394 0.064420 0.475086 -0.165280
C8    C     C_R   0.506083 0.129289 0.486180 0.026542
C9    C     C_R   0.382270 0.063371 0.481976 -0.015416
C10   C     C_3   0.225384 0.071900 0.547444 0.177599
C11   C     C_3   0.225754 0.930352 0.548645 0.184612
C12   C     C_R   0.445649 0.487306 0.975729 0.044851
C13   C     C_R   0.963813 0.513266 0.409328 0.199956
C14   C     C_R   0.888439 0.493158 0.590824 -0.011045
C15   C     C_R   0.036631 0.493034 0.590792 -0.000573
C16   C     C_R   0.501037 0.262384 0.497592 0.576273
C17   C     C_R   0.111010 0.515263 0.409498 0.121629
C18   C     C_3   0.156859 0.434375 0.315406 -0.249127
C19   C     C_3   0.997610 0.429023 0.316831 0.136009
C20   C     C_R   0.578576 0.504840 0.300245 0.561401
C21   C     C_R   0.752052 0.653959 0.039643 -0.124732
C22   C     C_R   0.623741 0.528743 0.187797 0.008807
C23   C     C_R   0.465335 0.533762 0.873555 0.022752
C24   C     C_R   0.254991 0.414067 0.861075 -0.124970
C25   C     C_R   0.228958 0.375139 0.963414 -0.151275
C26   C     C_R   0.325258 0.407415 0.019161 -0.130194
C27   C     C_3   0.960782 0.694882 0.147803 -0.148989
C28   C     C_3   0.064792 0.147532 0.698719 -0.127494
C29   C     C_3   0.161073 0.874465 0.395733 -0.116952
C30   C     C_3   0.948291 0.241282 0.253244 -0.138926
C31   C     C_R   0.545753 0.524332 0.030544 0.016921
C32   C     C_R   0.656515 0.612263 0.985254 0.004406
C33   C     C_R   0.667790 0.662069 0.887495 -0.148709
C34   C     C_R   0.572832 0.624662 0.833009 -0.134556
C35   C     C_R   0.536796 0.479732 0.130310 -0.194005
C36   C     C_R   0.736776 0.613366 0.142116 0.262947
Cu1   Cu    Cu3+1 0.359330 0.500020 0.500010 0.960810
Cu2   Cu    Cu3+1 0.640670 0.499980 0.499990 1.008668
H1    H     H_    0.737968 0.112527 0.472035 0.168473
H2    H     H_    0.012884 0.621347 0.090374 0.109966
H3    H     H_    0.025853 0.702863 0.203614 0.116717
H4    H     H_    0.965873 0.786221 0.109092 0.119756
H5    H     H_    0.997192 0.062206 0.706132 0.126219
H6    H     H_    0.021472 0.221445 0.658348 0.122450
H7    H     H_    0.055428 0.180934 0.778688 0.127028
H8    H     H_    0.156081 0.116038 0.503560 0.129043
H9    H     H_    0.251807 0.807508 0.364279 0.148042
H10   H     H_    0.191431 0.967945 0.361781 0.095172
H11   H     H_    0.066303 0.842210 0.370967 0.131394
H12   H     H_    0.216540 0.891052 0.626949 0.151322
H13   H     H_    0.804340 0.485479 0.664703 0.123600
H14   H     H_    0.225369 0.487047 0.247606 0.078775
H15   H     H_    0.203012 0.344263 0.330566 0.159295
H16   H     H_    0.749581 0.731650 0.853273 0.110164
H17   H     H_    0.906516 0.146485 0.275970 0.135951
H18   H     H_    0.064730 0.232982 0.204883 0.095491
H19   H     H_    0.881054 0.282450 0.206800 0.117572
H20   H     H_    0.136771 0.315182 0.998473 0.103295
H21   H     H_    0.582721 0.670187 0.759498 0.136748
H22   H     H_    0.060498 0.485339 0.664323 0.113474
H23   H     H_    0.974643 0.472979 0.248420 0.126207
H24   H     H_    0.832598 0.723555 0.003786 0.097489
H25   H     H_    0.459596 0.409244 0.167581 0.104775
H26   H     H_    0.184693 0.380138 0.816862 0.129754
H27   H     H_    0.301083 0.368690 0.096093 0.091848
H28   H     H_    0.738070 0.887387 0.472168 0.158597
N1    N     N_R   0.852320 0.499070 0.499340 -0.207357
N2    N     N_R   0.148230 0.499110 0.499340 -0.223420
O1    O     O_R   0.381190 0.680360 0.500000 -0.486875
O2    O     O_3   0.213420 0.123505 0.646548 -0.571539
O3    O     O_3   0.119238 0.876988 0.506047 -0.579453
O4    O     O_3   0.934974 0.310806 0.344606 -0.541279
O5    O     O_R   0.618780 0.680320 0.499990 -0.502264
O6    O     O_R   0.323230 0.500000 0.650990 -0.511159
O7    O     O_R   0.560820 0.499960 0.650980 -0.522778
O8    O     O_R   0.381220 0.319680 0.500010 -0.484912
O9    O     O_R   0.618810 0.319640 0.500000 -0.476559
O10   O     O_R   0.439180 0.500040 0.349020 -0.528413
O11   O     O_R   0.676770 0.500000 0.349010 -0.447922
O12   O     O_3   0.814832 0.665748 0.204532 -0.561364

loop_
_geom_bond_atom_site_label_1
_geom_bond_atom_site_label_2
_ccdc_geom_bond_type
Cu1   O6    S    
Cu1   N2    S    
Cu1   O1    S    
C15   H22   S    
C18   H14   S    
C7    C8    A    
C21   C36   A    
C29   H11   S    
C22   C35   A    
C12   C23   A    
C29   H9    S    
C1    C5    S    
C18   C19   S    
C5    C6    A    
C11   O3    S    
Cu2   O11   S    
C30   H19   S    
C16   O9    A    
C4    O7    A    
C18   H15   S    
C14   H13   S    
C8    C9    A    
C10   H8    S    
C14   N1    A    
C9    C10   S    
C4    O6    A    
C8    C16   S    
C19   O4    S    
C33   C34   A    
Cu2   O7    S    
C21   C32   A    
C28   H7    S    
C13   C19   S    
C29   H10   S    
C24   C25   A    
C27   O12   S    
C36   O12   S    
C25   C26   A    
C30   H18   S    
C28   H6    S    
C1    O1    A    
C12   C26   A    
C2    C4    S    
Cu1   Cu2   S    
C3    C9    A    
C27   H3    S    
C31   C32   A    
C27   H2    S    
C23   C34   A    
C17   C18   S    
C21   H24   S    
C10   O2    S    
Cu1   O8    S    
C20   C22   S    
C12   C31   A    
C2    C24   A    
C34   H21   S    
C31   C35   A    
C25   H20   S    
C13   N1    A    
C33   H16   S    
C17   N2    A    
C20   O11   A    
C16   O8    A    
C26   H27   S    
C28   O2    S    
C3    C5    A    
C30   O4    S    
C6    C7    A    
Cu2   O9    S    
C20   O10   A    
C22   C36   A    
C30   H17   S    
C28   H5    S    
C13   C17   A    
C1    O5    A    
C32   C33   A    
C11   H12   S    
C27   H4    S    
C19   H23   S    
C15   N2    A    
C3    C11   S    
C10   C11   S    
C6    H28   S    
Cu2   N1    S    
C24   H26   S    
C2    C23   A    
C7    H1    S    
C14   C15   A    
C35   H25   S    
Cu1   O10   S    
C29   O3    S    
Cu2   O5    S    
