data_mof_unit_4044.cif
_audit_creation_date              2013-03-05T15:50:44-0500
_audit_creation_method            fapswitch 2.2
_symmetry_space_group_name_H-M    P1
_symmetry_Int_Tables_number       1
_space_group_crystal_system       triclinic
_cell_length_a                    22.838563
_cell_length_b                    7.223527
_cell_length_c                    20.805614
_cell_angle_alpha                 90.022977
_cell_angle_beta                  93.28631
_cell_angle_gamma                 90.030388
_cell_volume                      3426.76043194

loop_
_atom_site_label
_atom_site_type_symbol
_atom_site_description
_atom_site_fract_x
_atom_site_fract_y
_atom_site_fract_z
_atom_type_partial_charge
O1    O     O_R   0.438030 0.494310 0.439340 -0.594955
O2    O     O_R   0.561970 0.994310 0.560660 -0.591552
O3    O     O_R   0.556900 0.822900 0.435960 -0.578733
O4    O     O_R   0.443100 0.322900 0.564040 -0.579477
C1    C     C_R   0.575826 0.655400 0.421108 0.944374
C2    C     C_R   0.424167 0.155385 0.578883 0.941871
O5    O     O_R   0.438170 0.823950 0.431660 -0.595371
O6    O     O_R   0.561830 0.323950 0.568340 -0.595653
O7    O     O_R   0.442390 0.995390 0.556340 -0.568039
O8    O     O_R   0.557610 0.495390 0.443660 -0.568298
C3    C     C_R   0.418233 0.655223 0.415866 0.937447
C4    C     C_R   0.581558 0.155355 0.584376 0.936161
O9    O     O_3   0.501520 0.661170 0.540910 -0.281605
O10   O     O_3   0.498480 0.161170 0.459090 -0.281071
V1    V     V_3+5 0.499720 0.935580 0.492410 1.200562
V2    V     V_3+5 0.500280 0.435580 0.507590 1.199581
C5    C     C_R   0.828521 0.938017 0.858148 -0.229221
C6    C     C_R   0.168218 0.741376 0.136396 -0.220380
C7    C     C_R   0.869234 0.083704 0.865747 -0.142017
C8    C     C_R   0.131422 0.584731 0.133459 -0.145355
C9    C     C_R   0.861982 0.241288 0.826332 -0.204867
C10   C     C_R   0.142532 0.439913 0.177680 -0.210778
C11   C     C_R   0.815126 0.253415 0.779678 0.131123
C12   C     C_R   0.189155 0.451844 0.224678 0.133609
C13   C     C_R   0.773880 0.108268 0.773096 0.033926
C14   C     C_R   0.226118 0.608723 0.226902 0.034577
C15   C     C_R   0.780572 0.950467 0.812814 0.144938
C16   C     C_R   0.215613 0.753456 0.182275 0.141372
C17   C     C_R   0.809180 0.408320 0.739372 -0.244599
C18   C     C_R   0.199040 0.309574 0.269689 -0.237065
C19   C     C_R   0.762794 0.421038 0.692496 0.012498
C20   C     C_R   0.245193 0.320841 0.316873 0.012008
C21   C     C_R   0.720186 0.278497 0.686342 0.095200
C22   C     C_R   0.283345 0.475880 0.318875 0.094831
C23   C     C_R   0.726013 0.120961 0.726903 0.011123
C24   C     C_R   0.273532 0.620813 0.273629 0.012925
C25   C     C_R   0.684208 0.975822 0.721281 0.097761
C26   C     C_R   0.311040 0.777656 0.274908 0.097656
C27   C     C_R   0.690768 0.820196 0.762527 0.025640
C28   C     C_R   0.300495 0.920339 0.228979 0.029318
C29   C     C_R   0.738938 0.808158 0.807177 -0.279679
C30   C     C_R   0.252809 0.907827 0.183755 -0.283052
C31   C     C_R   0.672106 0.289009 0.640707 -0.192166
C32   C     C_R   0.331057 0.489470 0.364709 -0.192248
C33   C     C_R   0.630821 0.145218 0.634174 -0.140565
C34   C     C_R   0.368426 0.644279 0.366713 -0.141028
C35   C     C_R   0.637272 0.989582 0.674393 -0.223823
C36   C     C_R   0.357982 0.787577 0.321959 -0.226560
H1    H     H_    0.833358 0.816615 0.888619 0.134124
H2    H     H_    0.160556 0.853314 0.102233 0.136598
H3    H     H_    0.893315 0.353907 0.831406 0.149214
H4    H     H_    0.114335 0.318985 0.176218 0.150047
H5    H     H_    0.841104 0.519524 0.744107 0.156606
H6    H     H_    0.170522 0.189217 0.268237 0.155791
H7    H     H_    0.666940 0.407972 0.609245 0.140155
H8    H     H_    0.339088 0.380048 0.399661 0.142328
H9    H     H_    0.605114 0.879614 0.669130 0.146911
H10   H     H_    0.387047 0.906182 0.323693 0.146575
H11   H     H_    0.743818 0.687206 0.837932 0.144351
H12   H     H_    0.244894 0.018840 0.149206 0.143410
C37   C     C_3   0.256256 0.233247 0.815444 -0.468009
C38   C     C_3   0.743774 0.733166 0.184555 -0.468086
C39   C     C_3   0.235649 0.905216 0.783519 -0.485209
C40   C     C_3   0.764285 0.405183 0.216430 -0.485111
C41   C     C_3   0.287271 0.910378 0.735694 0.347668
C42   C     C_3   0.712660 0.410362 0.264249 0.347451
H13   H     H_    0.347893 0.229351 0.789240 0.175122
H14   H     H_    0.652130 0.729208 0.210738 0.174872
H15   H     H_    0.276914 0.181618 0.861768 0.187789
H16   H     H_    0.723111 0.681480 0.138217 0.187689
H17   H     H_    0.201146 0.802932 0.769620 0.238084
H18   H     H_    0.798759 0.302933 0.230313 0.238092
H19   H     H_    0.252123 0.857906 0.832257 0.142388
H20   H     H_    0.747802 0.357814 0.167681 0.142499
C43   C     C_1   0.378540 0.145170 0.624520 -0.196659
C44   C     C_1   0.621445 0.645211 0.375458 -0.197364
C45   C     C_3   0.206927 0.098998 0.790652 0.171300
C46   C     C_3   0.793063 0.598974 0.209333 0.171263
C47   C     C_3   0.303737 0.252167 0.765195 -0.423911
C48   C     C_3   0.696288 0.752099 0.234796 -0.424060
C49   C     C_3   0.292366 0.113679 0.708246 0.130407
C50   C     C_3   0.707615 0.613694 0.291727 0.130385
C51   C     C_3   0.232170 0.165656 0.674126 -0.462776
C52   C     C_3   0.767821 0.665758 0.325863 -0.462361
C53   C     C_3   0.183245 0.173163 0.723504 0.229750
C54   C     C_3   0.816756 0.673225 0.276496 0.229636
C55   C     C_1   0.339979 0.132488 0.662220 0.074607
C56   C     C_1   0.660001 0.632525 0.337752 0.074787
C57   C     C_1   0.159620 0.091130 0.837231 0.013708
C58   C     C_1   0.840375 0.591087 0.162762 0.014009
C59   C     C_1   0.121216 0.083538 0.875277 -0.236944
C60   C     C_1   0.878783 0.583493 0.124721 -0.236963
H21   H     H_    0.171873 0.321935 0.729984 0.121898
H22   H     H_    0.828175 0.821994 0.270042 0.122065
H23   H     H_    0.235347 0.303186 0.650509 0.214928
H24   H     H_    0.764680 0.803321 0.349496 0.215356
H25   H     H_    0.237660 0.372230 0.825187 0.179171
H26   H     H_    0.762411 0.872153 0.174842 0.179210
H27   H     H_    0.303443 0.396424 0.746370 0.220572
H28   H     H_    0.696612 0.896380 0.253640 0.220710
H29   H     H_    0.220745 0.065129 0.634916 0.230327
H30   H     H_    0.779213 0.565294 0.365062 0.229973
O11   O     O_R   0.942420 0.735670 0.056390 -0.583059
O12   O     O_R   0.057580 0.235670 0.943610 -0.583214
O13   O     O_R   0.061840 0.404850 0.068350 -0.596774
O14   O     O_R   0.938160 0.904850 0.931650 -0.592052
C61   C     C_R   0.081734 0.573695 0.084182 0.936568
C62   C     C_R   0.918458 0.073556 0.915589 0.934415
O15   O     O_R   0.943100 0.406010 0.064050 -0.581952
O16   O     O_R   0.056900 0.906010 0.935950 -0.582910
O17   O     O_R   0.938020 0.234710 0.939330 -0.595051
O18   O     O_R   0.061980 0.734710 0.060670 -0.591631
C63   C     C_R   0.924293 0.574503 0.078882 0.957961
C64   C     C_R   0.075709 0.074519 0.921118 0.955161
O19   O     O_3   0.998500 0.567790 0.959120 -0.283020
O20   O     O_3   0.001500 0.067790 0.040880 -0.281045
V3    V     V_3+5 0.000280 0.293330 0.007580 1.172769
V4    V     V_3+5 0.999720 0.793330 0.992420 1.174805
C65   C     C_1   0.342491 0.858223 0.772190 0.012510
N1    N     N_1   0.385578 0.817352 0.800637 -0.081163
C66   C     C_1   0.657430 0.358114 0.227739 0.012781
N2    N     N_1   0.614337 0.317170 0.199279 -0.080943
N3    N     N_R   0.278128 0.775517 0.682322 0.227129
O21   O     O_R   0.319777 0.745156 0.643417 -0.411836
O22   O     O_R   0.230446 0.677400 0.674629 -0.389263
N4    N     N_R   0.721764 0.275574 0.317602 0.227015
O23   O     O_R   0.680106 0.245248 0.356504 -0.412189
O24   O     O_R   0.769412 0.177463 0.325273 -0.389265
N5    N     N_R   0.129718 0.077724 0.699049 0.248447
O25   O     O_R   0.130678 0.904925 0.681595 -0.327968
O26   O     O_R   0.080570 0.168652 0.692649 -0.350651
N6    N     N_R   0.870250 0.577830 0.300946 0.248359
O27   O     O_R   0.869234 0.405051 0.318372 -0.328279
O28   O     O_R   0.919424 0.668790 0.307379 -0.349802
C67   C     C_1   0.760535 0.581686 0.651009 0.098328
N7    N     N_1   0.758776 0.710285 0.617801 -0.055494
C68   C     C_1   0.252231 0.170475 0.362528 0.089493
N8    N     N_1   0.257806 0.050152 0.399094 -0.054243
C69   C     C_1   0.648857 0.669957 0.760207 0.045965
N9    N     N_1   0.615312 0.549678 0.758413 -0.079871
C70   C     C_1   0.338067 0.081069 0.226578 0.046864
N10   N     N_1   0.368135 0.209732 0.224590 -0.081611

loop_
_geom_bond_atom_site_label_1
_geom_bond_atom_site_label_2
_geom_bond_distance
_ccdc_geom_bond_type
H14   C48   1.112126 S    
O18   V4    1.996787 S    
C39   C41   1.586153 S    
N4    O23   1.302493 A    
C52   H30   1.111673 S    
C61   O18   1.330917 A    
O1    C3    1.330319 A    
O2    C4    1.330627 A    
O16   V4    1.980865 S    
C2    O7    1.323388 A    
O15   V3    1.981050 S    
C67   N7    1.157266 T    
C27   C29   1.401380 A    
C46   C58   1.493218 S    
O5    C3    1.335190 A    
O13   C61   1.335828 A    
C45   C57   1.493216 S    
O14   C62   1.335259 A    
C11   C17   1.400574 A    
C38   C48   1.554839 S    
O11   C63   1.329616 A    
C12   C14   1.411894 A    
O12   V3    1.963987 S    
C43   C55   1.215898 T    
N3    O22   1.301121 A    
C42   C50   1.582553 S    
C14   C24   1.415795 A    
O20   V3    1.770254 S    
C38   H16   1.113071 S    
C20   C68   1.446174 S    
C52   H24   1.112681 S    
C15   C29   1.400246 A    
C54   H22   1.115671 S    
C53   N5    1.468373 S    
C38   H26   1.113345 S    
C58   C60   1.215920 T    
C37   C45   1.551626 S    
N6    O27   1.300375 A    
C19   C21   1.417059 A    
C25   C35   1.411011 A    
C60   C63   1.451816 S    
C44   C56   1.215925 T    
C26   C36   1.411498 A    
O15   C63   1.332872 A    
C8    C61   1.487168 S    
C7    C62   1.486961 S    
C46   C54   1.563827 S    
C28   C30   1.400698 A    
C45   C53   1.563837 S    
O6    V2    2.005520 S    
C28   C70   1.445925 S    
C48   H28   1.113251 S    
O13   V3    2.004592 S    
C53   H21   1.115672 S    
C49   C51   1.556859 S    
C32   C34   1.405529 A    
C27   C69   1.445634 S    
C33   C35   1.404507 A    
C69   N9    1.157233 T    
C34   C36   1.403900 A    
C5    C15   1.406681 A    
N3    O21   1.302489 A    
H13   C47   1.112124 S    
C29   H11   1.085168 S    
C48   C50   1.560636 S    
C30   H12   1.085418 S    
C47   C49   1.560636 S    
C5    C7    1.406768 A    
O5    V1    2.004514 S    
C39   H19   1.115024 S    
C20   C22   1.417732 A    
C42   N4    1.482580 S    
C21   C31   1.411969 A    
O4    V2    1.980602 S    
C18   C20   1.400936 A    
C35   H9    1.082809 S    
C18   H6    1.085401 S    
C32   H8    1.082838 S    
C41   C49   1.582537 S    
O6    C4    1.334596 A    
O19   V4    1.769715 S    
C51   H23   1.112676 S    
C41   C65   1.483222 S    
C42   C66   1.483219 S    
C6    C16   1.404205 A    
O1    V2    1.996805 S    
O2    V1    1.996242 S    
C31   C33   1.403742 A    
C66   N2    1.157348 T    
C49   C55   1.495750 S    
C13   C23   1.416644 A    
N6    O28   1.301082 A    
O12   C64   1.329581 A    
O4    C2    1.327259 A    
C51   C53   1.561577 S    
C39   H17   1.106152 S    
C50   C52   1.556867 S    
C9    C11   1.405735 A    
C41   N3    1.482578 S    
C10   C12   1.406360 A    
O11   V4    1.963920 S    
C57   C59   1.215915 T    
C5    H1    1.084286 S    
C9    H3    1.084294 S    
O3    V1    1.980785 S    
C6    H2    1.084432 S    
C10   H4    1.084349 S    
N5    O25   1.300379 A    
C39   C45   1.556825 S    
C47   H27   1.113257 S    
C37   H15   1.113070 S    
C22   C32   1.409626 A    
O16   C64   1.332796 A    
N4    O24   1.301122 A    
C51   H29   1.111672 S    
C7    C9    1.407506 A    
C40   C46   1.556816 S    
C38   C46   1.551632 S    
C37   H25   1.113344 S    
C8    C10   1.406938 A    
C4    C33   1.487004 S    
O3    C1    1.327345 A    
C65   N1    1.157346 T    
C59   C64   1.451802 S    
C36   H10   1.082842 S    
C31   H7    1.082847 S    
C13   C15   1.411383 A    
C68   N8    1.157564 T    
C14   C16   1.410035 A    
C62   O17   1.331314 A    
O17   V3    1.996229 S    
C1    C44   1.451366 S    
C24   C26   1.419322 A    
O7    V1    1.967231 S    
C23   C25   1.417905 A    
C25   C27   1.417321 A    
O8    V2    1.967159 S    
C70   N10   1.157450 T    
C26   C28   1.417083 A    
C54   N6    1.468374 S    
C17   H5    1.085188 S    
C37   C47   1.554830 S    
C50   C56   1.495793 S    
C16   C30   1.400717 A    
C21   C23   1.418760 A    
C22   C24   1.417510 A    
C6    C8    1.408330 A    
C40   H18   1.106149 S    
C12   C18   1.400310 A    
C19   C67   1.445719 S    
C1    O8    1.323437 A    
C11   C13   1.410491 A    
C17   C19   1.401309 A    
O9    V2    1.770209 S    
C40   H20   1.115026 S    
O10   V1    1.770748 S    
C52   C54   1.561566 S    
C3    C34   1.487441 S    
O14   V4    2.005599 S    
C40   C42   1.586155 S    
N5    O26   1.301087 A    
C2    C43   1.451303 S    
