data_mof_unit_2580.cif
_audit_creation_date              2012-12-11T14:06:34-0500
_audit_creation_method            fapswitch 2.2
_symmetry_space_group_name_H-M    P1
_symmetry_Int_Tables_number       1
_space_group_crystal_system       triclinic
_cell_length_a                    6.915054
_cell_length_b                    17.338197
_cell_length_c                    24.130129
_cell_angle_alpha                 104.560903
_cell_angle_beta                  90.425268
_cell_angle_gamma                 90.004802
_cell_volume                      2800.06588665

loop_
_atom_site_label
_atom_site_type_symbol
_atom_type_description
_atom_site_fract_x
_atom_site_fract_y
_atom_site_fract_z
_atom_type_partial_charge
O1    O     O_R   0.494290 0.391990 0.999150 -0.542799
O2    O     O_R   0.827170 0.534410 0.082350 -0.541674
O3    O     O_R   0.994360 0.608010 0.000850 -0.537315
C1    C     C_R   0.658690 0.550194 0.106057 0.707699
O4    O     O_R   0.824210 0.388010 0.004470 -0.527687
O5    O     O_R   0.991370 0.460560 0.922410 -0.540308
C2    C     C_R   0.654389 0.355702 0.003262 0.744288
O6    O     O_R   0.497270 0.539440 0.077590 -0.540085
O7    O     O_3   0.659770 0.523970 0.973170 -0.374621
V1    V     V_3+5 0.935840 0.495550 0.004980 1.446914
O8    O     O_R   0.320910 0.465590 0.917650 -0.544606
C3    C     C_R   0.151385 0.449947 0.893981 0.704271
O9    O     O_R   0.323870 0.611990 0.995530 -0.549259
C4    C     C_R   0.154375 0.645148 0.998532 0.764966
V2    V     V_3+5 0.435470 0.504450 0.995020 1.419395
O10   O     O_3   0.161670 0.476030 0.026830 -0.361860
C5    C     C_2   0.142808 0.730221 0.998116 -0.342460
H1    H     H_    0.277489 0.760953 0.994763 0.148801
C6    C     C_2   0.972743 0.769823 0.002018 -0.340978
H2    H     H_    0.838063 0.739091 0.005372 0.148800
C7    C     C_R   0.239459 0.278704 0.619716 0.578435
N1    N     N_R   0.098390 0.328639 0.648515 -0.554866
C8    C     C_R   0.942377 0.348827 0.619395 0.585661
C9    C     C_R   0.922233 0.317630 0.559791 -0.025320
C10   C     C_R   0.066501 0.266896 0.529900 -0.020612
C11   C     C_R   0.227305 0.247623 0.559907 -0.030529
C12   C     C_R   0.761622 0.336106 0.529426 -0.143705
C13   C     C_R   0.745227 0.304971 0.470222 -0.147514
C14   C     C_R   0.889003 0.254551 0.439851 -0.032164
C15   C     C_R   0.049862 0.235317 0.469855 -0.020689
C16   C     C_R   0.194136 0.184582 0.439966 -0.024425
C17   C     C_R   0.354786 0.166134 0.470326 -0.144052
C18   C     C_R   0.371136 0.197241 0.529532 -0.148461
C19   C     C_R   0.876691 0.223352 0.380054 0.582250
N2    N     N_R   0.017719 0.173386 0.351269 -0.554999
C20   C     C_R   0.173897 0.153311 0.380375 0.584585
O11   O     O_2   0.389856 0.257988 0.648835 -0.525969
O12   O     O_2   0.807709 0.399691 0.647811 -0.528523
H3    H     H_    0.647639 0.374536 0.551305 0.169495
H4    H     H_    0.619231 0.320467 0.448388 0.172812
O13   O     O_2   0.726150 0.243953 0.350932 -0.522577
O14   O     O_2   0.308596 0.102460 0.351960 -0.529408
H5    H     H_    0.468784 0.127713 0.448447 0.169242
C21   C     C_R   0.155154 0.153674 0.254058 -0.083547
H6    H     H_    0.283359 0.186458 0.272421 0.158582
C22   C     C_R   0.142970 0.123027 0.194671 -0.186998
H7    H     H_    0.262949 0.132703 0.168589 0.140555
C23   C     C_R   0.976753 0.081699 0.169199 -0.057189
C24   C     C_R   0.823412 0.071371 0.204676 -0.204458
H8    H     H_    0.693676 0.039658 0.186450 0.136829
C25   C     C_R   0.837388 0.100665 0.264263 -0.080241
H9    H     H_    0.718999 0.090581 0.290733 0.164748
C26   C     C_R   0.003220 0.142412 0.289633 0.353229
C27   C     C_R   0.960211 0.348009 0.745615 -0.087547
H10   H     H_    0.831817 0.315503 0.727105 0.156584
C28   C     C_R   0.972300 0.378162 0.805052 -0.203353
H11   H     H_    0.851997 0.368449 0.831005 0.133146
C29   C     C_R   0.138852 0.419002 0.830732 -0.057997
C30   C     C_R   0.292435 0.429515 0.795387 -0.206724
H12   H     H_    0.422362 0.460938 0.813755 0.139134
C31   C     C_R   0.278537 0.400750 0.735755 -0.081624
H13   H     H_    0.397200 0.410928 0.709411 0.165467
C32   C     C_R   0.112534 0.359340 0.710188 0.354993
C33   C     C_R   0.667259 0.848497 0.620419 0.586271
N3    N     N_R   0.510098 0.827907 0.648345 -0.554374
C34   C     C_R   0.370439 0.777440 0.618374 0.576748
C35   C     C_R   0.385724 0.745964 0.558668 -0.031331
C36   C     C_R   0.547949 0.765526 0.529968 -0.020505
C37   C     C_R   0.690408 0.816986 0.561003 -0.023787
C38   C     C_R   0.243777 0.694797 0.527130 -0.149329
C39   C     C_R   0.263282 0.663294 0.468106 -0.141387
C40   C     C_R   0.425312 0.682092 0.439047 -0.024833
C41   C     C_R   0.567805 0.733532 0.470087 -0.020569
C42   C     C_R   0.730039 0.753087 0.441388 -0.030874
C43   C     C_R   0.872002 0.804244 0.472928 -0.149665
C44   C     C_R   0.852465 0.835768 0.531947 -0.141930
C45   C     C_R   0.448380 0.650641 0.379621 0.588425
N4    N     N_R   0.605545 0.671238 0.351700 -0.554442
C46   C     C_R   0.745293 0.721637 0.381680 0.575896
O15   O     O_2   0.800377 0.900010 0.649837 -0.529180
O16   O     O_2   0.218547 0.756492 0.646225 -0.526008
H14   H     H_    0.116794 0.678978 0.547908 0.172650
H15   H     H_    0.150535 0.624322 0.445332 0.169414
O17   O     O_2   0.315167 0.599196 0.350185 -0.527074
O18   O     O_2   0.897235 0.742558 0.353835 -0.526616
H16   H     H_    0.998995 0.820058 0.452151 0.172426
H17   H     H_    0.965200 0.874748 0.554720 0.168952
C47   C     C_R   0.787547 0.600182 0.265113 -0.079442
H18   H     H_    0.906119 0.590170 0.292002 0.168212
C48   C     C_R   0.801660 0.571505 0.205439 -0.197773
H19   H     H_    0.931532 0.540322 0.187617 0.145225
C49   C     C_R   0.647953 0.581608 0.169367 -0.057908
C50   C     C_R   0.481532 0.622220 0.194399 -0.202100
H20   H     H_    0.361067 0.631740 0.167962 0.131983
C51   C     C_R   0.469212 0.652211 0.253790 -0.088506
H21   H     H_    0.340614 0.684360 0.271676 0.154238
C52   C     C_R   0.621124 0.641042 0.289998 0.353913
C53   C     C_R   0.327779 0.898957 0.734877 -0.081593
H22   H     H_    0.209080 0.908766 0.707960 0.167359
C54   C     C_R   0.313614 0.927797 0.794539 -0.205715
H23   H     H_    0.183545 0.958864 0.812321 0.140253
C55   C     C_R   0.467503 0.918005 0.830645 -0.055598
C56   C     C_R   0.634099 0.877476 0.805661 -0.203102
H24   H     H_    0.754701 0.868170 0.832123 0.132120
C57   C     C_R   0.646445 0.847301 0.746286 -0.088891
H25   H     H_    0.775192 0.815230 0.728444 0.154871
C58   C     C_R   0.494408 0.858213 0.710038 0.354517
C59   C     C_2   0.643822 0.273746 0.010352 -0.023653
C60   C     C_2   0.478709 0.229672 0.997391 -0.365436
H26   H     H_    0.351958 0.255724 0.982404 0.146920
O19   O     O_R   0.618210 0.960470 0.922400 -0.541936
O20   O     O_R   0.291310 0.111960 0.995450 -0.532948
O21   O     O_R   0.124210 0.039530 0.077580 -0.538852
C61   C     C_R   0.461829 0.145464 0.999612 0.815260
O22   O     O_R   0.288310 0.965490 0.917650 -0.545093
O23   O     O_R   0.121180 0.892010 0.999220 -0.538627
C62   C     C_R   0.456776 0.949628 0.893943 0.694263
O24   O     O_R   0.621230 0.107990 0.000760 -0.517123
O25   O     O_3   0.455770 0.976060 0.026840 -0.378103
V3    V     V_3+5 0.179680 0.004440 0.995020 1.451925
O26   O     O_R   0.791670 0.888040 0.004570 -0.551164
C63   C     C_R   0.961170 0.854885 0.001574 0.757950
O27   O     O_R   0.794680 0.034510 0.082370 -0.539549
C64   C     C_R   0.964226 0.050170 0.106016 0.739222
V4    V     V_3+5 0.680070 0.995560 0.005010 1.444024
O28   O     O_3   0.953840 0.023940 0.973160 -0.357434
I1    I     I_    0.897404 0.237474 0.048936 -0.376590
H27   H     H_    0.497116 0.181731 0.551368 0.172268

loop_
_geom_bond_atom_site_label_1
_geom_bond_atom_site_label_2
_ccdc_geom_bond_type
C7    C11   A    
C6    C63   S    
C50   H20   S    
N2    C26   S    
C41   C42   A    
C20   O14   S    
C51   H21   S    
C9    C12   A    
C1    O6    A    
O20   C61   A    
O27   C64   A    
C45   N4    A    
C59   C60   D    
C57   C58   A    
C14   C15   A    
O23   C63   A    
C13   C14   A    
C16   C20   A    
O5    C3    A    
C15   C16   A    
V3    O28   S    
O27   V4    S    
C27   C32   A    
C13   H4    S    
V2    O10   S    
C53   H22   S    
C28   H11   S    
C37   C44   A    
C19   N2    A    
C31   C32   A    
C54   H23   S    
C43   H16   S    
N1    C32   S    
C27   H10   S    
O8    V2    S    
C21   C26   A    
N2    C20   A    
C12   H3    S    
C36   C37   A    
C24   C25   A    
O19   V4    S    
C8    C9    A    
C38   C39   A    
O1    V2    S    
O24   V4    S    
O7    V1    S    
C47   C52   A    
C3    C29   S    
C34   C35   A    
C30   H12   S    
C50   C51   A    
O1    C2    A    
O9    C4    A    
C33   O15   S    
C4    C5    S    
C31   H13   S    
C19   O13   S    
C21   C22   A    
C39   H15   S    
C23   C64   S    
C22   C23   A    
C30   C31   A    
C42   C43   A    
C35   C36   A    
C9    C10   A    
O20   V3    S    
N4    C46   A    
C45   O17   S    
O22   C62   A    
C36   C41   A    
C14   C19   A    
C18   H27   S    
C53   C58   A    
O23   V3    S    
C25   C26   A    
O2    C1    A    
C43   C44   A    
O26   V4    S    
C40   C45   A    
O21   V3    S    
C11   C18   A    
C48   C49   A    
C16   C17   A    
O25   V3    S    
N4    C52   S    
C54   C55   A    
C5    H1    S    
C7    O11   S    
C56   C57   A    
C33   C37   A    
O3    C4    A    
C44   H17   S    
O26   C63   A    
C61   O24   A    
C55   C62   S    
C60   C61   S    
O25   V4    S    
C23   C24   A    
C47   C48   A    
N3    C34   A    
O6    V2    S    
C53   C54   A    
C42   C46   A    
O9    V2    S    
V4    O28   S    
C24   H8    S    
C29   C30   A    
O2    V1    S    
C46   O18   S    
C21   H6    S    
O4    C2    A    
C10   C15   A    
C22   H7    S    
C2    C59   S    
C40   C41   A    
O5    V1    S    
O8    C3    A    
C51   C52   A    
C27   C28   A    
C8    O12   S    
C57   H25   S    
O19   C62   A    
C35   C38   A    
C17   C18   A    
C6    H2    S    
C10   C11   A    
C25   H9    S    
O3    V1    S    
V1    O10   S    
C60   H26   S    
C33   N3    A    
C34   O16   S    
C48   H19   S    
O21   C64   A    
C49   C50   A    
C5    C6    D    
C17   H5    S    
C28   C29   A    
C59   I1    S    
O7    V2    S    
C55   C56   A    
C38   H14   S    
O4    V1    S    
C39   C40   A    
C47   H18   S    
O22   V3    S    
C56   H24   S    
N1    C8    A    
C1    C49   S    
C7    N1    A    
N3    C58   S    
C12   C13   A    
