data_mof_unit_3277.cif
_audit_creation_date              2013-03-05T16:15:16-0500
_audit_creation_method            fapswitch 2.2
_symmetry_space_group_name_H-M    P1
_symmetry_Int_Tables_number       1
_space_group_crystal_system       triclinic
_cell_length_a                    27.790648
_cell_length_b                    10.659027
_cell_length_c                    9.424439
_cell_angle_alpha                 89.282204
_cell_angle_beta                  90.42659
_cell_angle_gamma                 89.796265
_cell_volume                      2791.40422895

loop_
_atom_site_label
_atom_site_type_symbol
_atom_site_description
_atom_site_fract_x
_atom_site_fract_y
_atom_site_fract_z
_atom_type_partial_charge
O1    O     O_R   0.500020 0.316850 0.620870 -0.590622
O2    O     O_R   0.499980 0.683150 0.379130 -0.590615
O3    O     O_R   0.500000 0.316860 0.379090 -0.562524
O4    O     O_R   0.500000 0.683140 0.620910 -0.562524
C1    C     C_R   0.500651 0.259976 0.501021 0.862732
C2    C     C_R   0.499349 0.740023 0.498979 0.862745
O5    O     O_R   0.430270 0.500020 0.620880 -0.576874
O6    O     O_R   0.569730 0.499980 0.379120 -0.576930
O7    O     O_R   0.430250 0.500030 0.379090 -0.595668
O8    O     O_R   0.569750 0.499970 0.620910 -0.595616
C3    C     C_R   0.407510 0.499558 0.499459 0.833307
C4    C     C_R   0.592489 0.500456 0.500532 0.833351
Cu1   Cu    Cu3+1 0.500010 0.499990 0.643150 0.977997
Cu2   Cu    Cu3+1 0.499990 0.500010 0.356850 0.977969
C5    C     C_R   0.177897 0.392595 0.457528 0.611572
C6    C     C_R   0.822011 0.607814 0.544609 0.608915
O9    O     O_2   0.203221 0.286223 0.436808 -0.424071
O10   O     O_2   0.796544 0.713334 0.568761 -0.425034
N1    N     N_R   0.201950 0.500652 0.486774 -0.480873
N2    N     N_R   0.798080 0.500222 0.512385 -0.481534
C7    C     C_R   0.178287 0.611495 0.505636 0.659781
C8    C     C_R   0.821860 0.390214 0.489221 0.662007
C9    C     C_R   0.279341 0.498408 0.365096 -0.173107
C10   C     C_R   0.720720 0.501763 0.634459 -0.171772
C11   C     C_R   0.329400 0.498308 0.367656 -0.184853
C12   C     C_R   0.670655 0.501665 0.632098 -0.185461
C13   C     C_R   0.328557 0.498370 0.625097 -0.279899
C14   C     C_R   0.671382 0.502090 0.374731 -0.279755
C15   C     C_R   0.277925 0.498435 0.623050 0.483010
C16   C     C_R   0.722008 0.502282 0.376558 0.482513
C17   C     C_R   0.253541 0.498826 0.491961 0.301463
C18   C     C_R   0.746470 0.501731 0.507512 0.300892
C19   C     C_R   0.101792 0.504100 0.479822 -0.197570
C20   C     C_R   0.898236 0.497720 0.518931 -0.199157
C21   C     C_R   0.127197 0.391926 0.451078 -0.034776
C22   C     C_R   0.872713 0.608977 0.550565 -0.035435
C23   C     C_R   0.101442 0.284281 0.411155 0.434029
C24   C     C_R   0.898392 0.716517 0.591427 0.431643
C25   C     C_R   0.127543 0.616528 0.499241 -0.103779
C26   C     C_R   0.872631 0.385593 0.494273 -0.094914
C27   C     C_R   0.354502 0.498707 0.497569 -0.067099
C28   C     C_R   0.645497 0.501416 0.502317 -0.067260
H1    H     H_    0.347525 0.498240 0.725959 0.160688
H2    H     H_    0.652370 0.502344 0.273966 0.160778
C29   C     C_R   0.974697 0.385974 0.486112 0.005521
C30   C     C_R   0.025418 0.617365 0.511247 0.002348
C31   C     C_R   0.974662 0.612305 0.533407 0.080282
C32   C     C_R   0.025381 0.390383 0.466055 0.077476
C33   C     C_R   0.949299 0.498878 0.511084 -0.013577
C34   C     C_R   0.050740 0.504014 0.486474 -0.014508
C35   C     C_R   0.948876 0.271210 0.492993 0.272506
C36   C     C_R   0.051456 0.732384 0.505281 0.277858
C37   C     C_R   0.898143 0.271819 0.480554 0.346893
C38   C     C_R   0.102390 0.731385 0.501286 0.360590
O11   O     O_2   0.796120 0.286002 0.462137 -0.422292
O12   O     O_2   0.204055 0.715959 0.531354 -0.422750
C39   C     C_R   0.051134 0.286393 0.414802 -0.223453
C40   C     C_R   0.948721 0.714703 0.587967 -0.223022
H3    H     H_    0.651714 0.501467 0.732086 0.165210
H4    H     H_    0.348379 0.498251 0.267702 0.165152
H5    H     H_    0.739686 0.501307 0.735261 0.167341
H6    H     H_    0.260418 0.498735 0.264199 0.166753
H7    H     H_    0.032557 0.206783 0.371331 0.200279
H8    H     H_    0.966954 0.792718 0.635693 0.186837
C41   C     C_3   0.509537 0.036720 0.633335 -0.136111
C42   C     C_3   0.490463 0.963280 0.366665 -0.136117
C43   C     C_3   0.543072 0.955411 0.542313 -0.165691
C44   C     C_3   0.456928 0.044589 0.457686 -0.165730
C45   C     C_3   0.499506 0.876017 0.496455 -0.163497
C46   C     C_3   0.500494 0.123982 0.503544 -0.163520
C47   C     C_3   0.466227 0.957618 0.586576 0.386551
C48   C     C_3   0.533773 0.042381 0.413423 0.386521
C49   C     C_3   0.530105 0.579583 0.048916 0.081371
C50   C     C_3   0.469895 0.420417 0.951083 0.081311
C51   C     C_3   0.488339 0.609781 0.947366 -0.053326
C52   C     C_3   0.511661 0.390219 0.052634 -0.053360
H9    H     H_    0.478759 0.701909 0.898545 0.179809
H10   H     H_    0.521240 0.298090 0.101454 0.179817
N3    N     N_3   0.500040 0.499970 0.858290 -0.186383
N4    N     N_3   0.499960 0.500030 0.141710 -0.186382
C53   C     C_3   0.542279 0.470989 0.950733 -0.086124
C54   C     C_3   0.457721 0.529011 0.049267 -0.086150
H11   H     H_    0.577797 0.447086 0.905044 0.133548
H12   H     H_    0.422204 0.552919 0.094954 0.133522
C55   C     C_1   0.519709 0.074520 0.779731 0.333637
N5    N     N_1   0.527847 0.104009 0.895126 -0.278965
C56   C     C_1   0.480290 0.925479 0.220268 0.333667
N6    N     N_1   0.472153 0.895991 0.104874 -0.278947
O13   O     O_3   0.430806 0.909570 0.676596 -0.703412
H13   H     H_    0.415974 0.983802 0.721322 0.344625
O14   O     O_3   0.569194 0.090430 0.323404 -0.703448
H14   H     H_    0.584024 0.016198 0.278672 0.344589
C57   C     C_1   0.564257 0.669993 0.107859 0.277708
N7    N     N_1   0.591179 0.741367 0.154464 -0.284176
C58   C     C_1   0.435739 0.330017 0.892136 0.277750
N8    N     N_1   0.408815 0.258652 0.845527 -0.283970
O15   O     O_3   0.251509 0.497846 0.746543 -0.697185
H15   H     H_    0.273945 0.497423 0.828881 0.326452
O16   O     O_3   0.748348 0.503359 0.252955 -0.697467
H16   H     H_    0.725867 0.503750 0.170742 0.326583
O17   O     O_3   0.125668 0.179208 0.364408 -0.641856
H17   H     H_    0.102176 0.113817 0.337321 0.321596
O18   O     O_3   0.874088 0.821411 0.638478 -0.637990
H18   H     H_    0.897362 0.889223 0.659085 0.327581
O19   O     O_3   0.873205 0.161452 0.459939 -0.643356
H19   H     H_    0.894518 0.100656 0.412065 0.345147
O20   O     O_3   0.128016 0.841869 0.490376 -0.639581
H20   H     H_    0.110061 0.900682 0.427366 0.341988
O21   O     O_3   0.973097 0.161240 0.527545 -0.740342
H21   H     H_    0.950789 0.101765 0.574512 0.343769
O22   O     O_3   0.027031 0.844689 0.489272 -0.739639
H22   H     H_    0.044117 0.909345 0.544843 0.346936
C59   C     C_1   0.590254 0.904778 0.585337 0.292659
N9    N     N_1   0.627390 0.864594 0.619164 -0.225177
C60   C     C_1   0.409746 0.095219 0.414660 0.292842
N10   N     N_1   0.372609 0.135401 0.380831 -0.225187

loop_
_geom_bond_atom_site_label_1
_geom_bond_atom_site_label_2
_geom_bond_distance
_ccdc_geom_bond_type
C2    C45   1.449484 S    
C42   C44   1.542822 S    
C56   N6    1.156744 T    
Cu1   N3    2.027566 S    
C57   N7    1.157139 T    
C13   C15   1.407099 A    
C58   N8    1.157141 T    
C49   C57   1.466343 S    
N1    C17   1.434257 S    
O15   H15   0.991792 S    
C32   C39   1.409621 A    
C31   C33   1.418817 A    
C55   N5    1.156745 T    
C5    N1    1.363844 A    
C10   H5    1.082931 S    
C50   C52   1.529670 S    
C38   O20   1.381529 S    
O1    C1    1.288784 A    
C21   C23   1.408207 A    
C10   C12   1.391366 A    
C25   C38   1.408017 A    
C29   C35   1.421433 A    
C41   C46   1.545892 S    
C30   C36   1.426548 A    
C43   C48   1.538529 S    
C5    C21   1.409894 A    
O4    Cu1   1.960807 S    
C45   C47   1.535489 S    
C4    C28   1.473174 S    
C24   C40   1.399358 A    
C9    H6    1.083159 S    
C42   C48   1.537023 S    
O22   H22   0.991144 S    
C41   C43   1.542822 S    
C47   O13   1.398618 S    
O20   H20   0.989268 S    
O8    Cu1   1.950971 S    
C11   H4    1.083046 S    
Cu2   N4    2.027566 S    
C16   C18   1.404507 A    
C12   H3    1.082776 S    
C6    N2    1.364142 A    
C32   C34   1.417944 A    
C35   O21   1.383723 S    
Cu1   Cu2   2.698209 S    
C49   C51   1.529666 S    
O2    C2    1.288784 A    
C50   C54   1.529455 S    
C49   C53   1.529456 S    
C53   H11   1.109905 S    
C36   C38   1.416270 A    
C39   H7    1.078473 S    
C40   H8    1.076824 S    
O17   H17   0.991163 S    
N4    C54   1.485883 S    
C11   C27   1.404679 A    
C42   C56   1.467914 S    
N3    C53   1.485882 S    
C48   O14   1.398619 S    
C36   O22   1.380086 S    
C19   C34   1.420625 A    
C41   C47   1.537023 S    
C16   O16   1.380346 S    
C14   H2    1.083255 S    
C43   C45   1.541899 S    
C9    C17   1.398759 A    
O5    C3    1.303436 A    
O7    Cu2   1.950971 S    
C10   C18   1.398648 A    
C24   O18   1.383622 S    
C37   O19   1.382576 S    
C51   H9    1.109906 S    
C13   C27   1.406129 A    
O16   H16   0.991659 S    
C7    C25   1.411861 A    
C29   C33   1.416127 A    
O6    C4    1.303356 A    
C8    C26   1.412069 A    
C19   C25   1.411157 A    
O7    C3    1.302622 A    
O3    Cu2   1.960806 S    
O8    C4    1.302687 A    
O4    C2    1.292523 A    
N2    C8    1.364711 A    
C54   H12   1.109901 S    
C50   N3    1.477508 S    
C20   C26   1.413967 A    
O1    Cu1   1.965969 S    
O14   H14   0.991103 S    
C12   C28   1.404346 A    
C59   N9    1.157032 T    
N2    C18   1.434690 S    
C29   C32   1.423423 A    
C5    O9    1.349405 S    
C30   C31   1.428554 A    
C20   C33   1.421653 A    
O6    Cu2   1.947895 S    
C14   C28   1.405723 A    
N1    C7    1.364337 A    
C50   C58   1.466343 S    
C52   N4    1.485424 S    
C52   H10   1.109906 S    
O3    C1    1.292523 A    
C1    C46   1.449487 S    
C52   C53   1.544084 S    
C7    O12   1.349530 S    
C51   C54   1.544076 S    
C41   C55   1.467915 S    
C8    O11   1.349366 S    
O19   H19   0.991423 S    
C30   C34   1.418795 A    
C15   O15   1.380613 S    
C22   C24   1.408653 A    
C43   C59   1.468531 S    
C15   C17   1.404602 A    
O21   H21   0.990960 S    
C6    C22   1.409832 A    
C31   C40   1.410465 A    
C23   O17   1.383159 S    
C44   C47   1.538528 S    
C14   C16   1.406924 A    
C19   C21   1.416478 A    
C49   N4    1.477510 S    
C3    C27   1.473191 S    
C20   C22   1.415746 A    
C9    C11   1.391198 A    
O2    Cu2   1.965968 S    
C44   C60   1.468531 S    
C42   C45   1.545891 S    
C13   H1    1.083494 S    
O5    Cu1   1.947895 S    
C6    O10   1.349415 S    
C26   C37   1.410402 A    
O18   H18   0.991702 S    
C44   C46   1.541900 S    
C46   C48   1.535490 S    
C35   C37   1.413885 A    
O13   H13   0.991104 S    
C51   N3    1.485421 S    
C23   C39   1.398887 A    
C60   N10   1.157030 T    
