data_mof_unit_3173.cif
_audit_creation_date              2012-12-11T16:05:12-0500
_audit_creation_method            fapswitch 2.2
_symmetry_space_group_name_H-M    P1
_symmetry_Int_Tables_number       1
_space_group_crystal_system       triclinic
_cell_length_a                    10.617162
_cell_length_b                    10.685288
_cell_length_c                    16.858318
_cell_angle_alpha                 98.677802
_cell_angle_beta                  98.643435
_cell_angle_gamma                 61.159752
_cell_volume                      1649.49225139

loop_
_atom_site_label
_atom_site_type_symbol
_atom_type_description
_atom_site_fract_x
_atom_site_fract_y
_atom_site_fract_z
_atom_type_partial_charge
C1    C     C_R   0.384569 0.703888 0.386902 0.559600
C2    C     C_3   0.320572 0.681127 0.230832 -0.124568
C3    C     C_3   0.378563 0.741694 0.306815 0.044089
C4    C     C_R   0.366676 0.343519 0.360045 0.528239
C5    C     C_3   0.499351 0.733730 0.262902 -0.128247
C6    C     C_3   0.398233 0.888600 0.240905 -0.137213
C7    C     C_3   0.279797 0.895513 0.286641 -0.081239
C8    C     C_3   0.219892 0.835961 0.210226 -0.061228
C9    C     C_3   0.339286 0.828125 0.164885 0.040022
C10   C     C_3   0.433878 0.224472 0.764052 -0.098164
C11   C     C_3   0.378111 0.372615 0.734129 -0.104775
C12   C     C_3   0.740093 0.394509 0.255451 -0.149912
C13   C     C_3   0.320979 0.319582 0.654328 0.051129
C14   C     C_3   0.376312 0.171711 0.683944 -0.117421
C15   C     C_3   0.228515 0.226351 0.717162 -0.150075
C16   C     C_R   0.783883 0.372760 0.404965 0.557094
C17   C     C_3   0.173298 0.375306 0.685795 -0.124009
C18   C     C_3   0.230777 0.427497 0.766877 -0.101559
C19   C     C_3   0.286960 0.279268 0.796503 0.044682
C20   C     C_1   0.817745 0.341808 0.709508 -0.043264
C21   C     C_1   0.843767 0.315037 0.778142 -0.046898
C22   C     C_1   0.337894 0.812821 0.709585 -0.047959
C23   C     C_3   0.845962 0.332140 0.328718 0.075461
C24   C     C_1   0.313864 0.839103 0.778618 -0.045025
C25   C     C_R   0.959489 0.283890 0.102596 0.542370
C26   C     C_R   0.291753 0.262368 0.122933 0.542268
C27   C     C_R   0.296712 0.887845 0.087626 0.538997
C28   C     C_R   0.355839 0.772785 0.626936 0.553584
C29   C     C_R   0.884458 0.299725 0.861077 0.549256
C30   C     C_R   0.277009 0.252053 0.877052 0.563578
C31   C     C_R   0.281021 0.883671 0.859276 0.544115
C32   C     C_R   0.363489 0.343181 0.582400 0.538412
C33   C     C_R   0.774536 0.379389 0.629424 0.541528
C34   C     C_3   0.919673 0.186816 0.280895 0.224995
C35   C     C_1   0.325988 0.317970 0.278080 -0.058236
C36   C     C_1   0.306134 0.293953 0.207204 -0.064000
C37   C     C_3   0.815689 0.248887 0.206453 -0.073532
C38   C     C_3   0.026799 0.231455 0.256546 -0.153176
C39   C     C_3   0.949961 0.379024 0.305602 -0.150433
C40   C     C_3   0.843685 0.442894 0.231837 -0.124300
C41   C     C_3   0.919759 0.296979 0.183644 0.015488
C42   C     C_3   0.440004 0.674109 0.184703 -0.147910
Cl1   Cl    Cl    0.944651 0.029195 0.319626 -0.626534
Cr1   Cr    Cr6+3 0.608340 0.611040 0.520430 1.022002
Cr2   Cr    Cr6+3 0.287650 0.601120 0.489350 1.047913
Cr3   Cr    Cr6+3 0.604040 0.287870 0.490280 1.071320
Cr4   Cr    Cr6+3 0.054020 0.052700 0.970850 1.020929
Cr5   Cr    Cr6+3 0.059230 0.375120 0.993390 1.027462
Cr6   Cr    Cr6+3 0.374950 0.061200 0.992340 1.022072
H1    H     H_    0.622334 0.450707 0.259555 0.112040
H2    H     H_    0.171768 0.532054 0.802262 0.141426
H3    H     H_    0.760932 0.196066 0.164301 0.155988
H4    H     H_    0.144588 0.168679 0.252574 0.086269
H5    H     H_    0.004404 0.431759 0.348095 0.138075
H6    H     H_    0.812443 0.548130 0.210380 0.149139
H7    H     H_    0.288608 0.595817 0.228498 0.134201
H8    H     H_    0.504823 0.586015 0.140488 0.132614
H9    H     H_    0.612400 0.695858 0.289213 0.140532
H10   H     H_    0.429858 0.974219 0.243259 0.133327
H11   H     H_    0.222623 0.982167 0.333358 0.174865
H12   H     H_    0.104540 0.877376 0.187284 0.186230
H13   H     H_    0.440014 0.433306 0.739936 0.115531
H14   H     H_    0.541821 0.163112 0.796230 0.144314
H15   H     H_    0.435281 0.067308 0.648397 0.135549
H16   H     H_    0.166801 0.165756 0.712345 0.108109
H17   H     H_    0.067467 0.436595 0.651671 0.137604
O1    O     O_R   0.751220 0.499230 0.435170 -0.539781
O2    O     O_R   0.412990 0.180750 0.091610 -0.490015
O3    O     O_R   0.366620 0.943130 0.065760 -0.514277
O4    O     O_R   0.477220 0.727600 0.436870 -0.502146
O5    O     O_R   0.160510 0.906330 0.879210 -0.503245
O6    O     O_R   0.930190 0.179050 0.889450 -0.489644
O7    O     O_R   0.909140 0.398170 0.896710 -0.508816
O8    O     O_R   0.186190 0.363460 0.918830 -0.491756
O9    O     O_R   0.401670 0.173200 0.913310 -0.508180
O10   O     O_R   0.356120 0.936130 0.900470 -0.510078
O11   O     O_3   0.162740 0.163010 0.985530 -0.320151
O12   O     O_R   0.297880 0.469080 0.560050 -0.503859
O13   O     O_R   0.258650 0.745120 0.411470 -0.462074
O14   O     O_R   0.297070 0.467240 0.395960 -0.522690
O15   O     O_R   0.488830 0.252610 0.387790 -0.487600
O16   O     O_R   0.724400 0.302390 0.420980 -0.453736
O17   O     O_R   0.752100 0.501210 0.612190 -0.513989
O18   O     O_R   0.478040 0.729440 0.600970 -0.494049
O19   O     O_R   0.259530 0.747110 0.588490 -0.496228
O20   O     O_R   0.489720 0.254590 0.564810 -0.512557
O21   O     O_R   0.725220 0.304230 0.585080 -0.488596
O22   O     O_3   0.500010 0.500010 0.500020 -0.291161
O23   O     O_R   0.171830 0.913880 0.057510 -0.525876
O24   O     O_R   0.940690 0.186050 0.054730 -0.494880
O25   O     O_R   0.920470 0.405720 0.075010 -0.512448
O26   O     O_R   0.196690 0.370460 0.084120 -0.494908

loop_
_geom_bond_atom_site_label_1
_geom_bond_atom_site_label_2
_ccdc_geom_bond_type
C5    C42   S    
C11   C18   S    
Cr6   O2    S    
C28   O18   A    
C34   C37   S    
C13   C32   S    
C35   C36   T    
Cr1   O17   S    
C6    C9    S    
C7    C8    S    
C15   C19   S    
C12   C23   S    
C17   H17   S    
C5    H9    S    
C4    O14   A    
C3    C7    S    
C38   C39   S    
C30   O8    A    
C39   H5    S    
C29   O7    A    
C26   O26   A    
C15   H16   S    
C18   C19   S    
C12   C37   S    
Cr3   O16   S    
C4    O15   A    
C10   H14   S    
C8    C9    S    
Cr5   O25   S    
Cr6   O9    S    
Cr1   O4    S    
Cr2   O12   S    
C27   O3    A    
C8    H12   S    
C29   O6    A    
C11   H13   S    
C31   O5    A    
C4    C35   S    
C32   O20   A    
Cr6   O3    S    
C13   C14   S    
Cr4   O23   S    
C6    H10   S    
C42   H8    S    
C18   H2    S    
Cr3   O22   S    
C25   O25   A    
Cr5   O8    S    
Cr2   O22   S    
C38   C41   S    
C10   C14   S    
C25   C41   S    
C39   C40   S    
C37   H3    S    
C3    C5    S    
C21   C29   S    
C1    C3    S    
Cr5   O11   S    
C12   C40   S    
Cr2   O19   S    
Cr3   O15   S    
C25   O24   A    
C10   C19   S    
C23   C34   S    
C14   H15   S    
C16   O16   A    
C17   C18   S    
C9    C42   S    
Cr6   O10   S    
Cr2   O13   S    
C16   O1    A    
C33   O17   A    
Cr4   O5    S    
C20   C33   S    
C26   C36   S    
C40   C41   S    
C16   C23   S    
C1    O13   A    
Cr4   O24   S    
C22   C24   T    
Cr4   O11   S    
C7    H11   S    
C9    C27   S    
Cr3   O21   S    
C15   C17   S    
C34   C38   S    
Cr5   O7    S    
C2    C8    S    
C34   Cl1   S    
Cr1   O18   S    
C40   H6    S    
C12   H1    S    
C6    C7    S    
C1    O4    A    
C13   C17   S    
C26   O2    A    
C2    C3    S    
C33   O21   A    
C24   C31   S    
C2    H7    S    
C30   O9    A    
C11   C13   S    
C31   O10   A    
C5    C6    S    
C38   H4    S    
C2    C42   S    
C23   C39   S    
Cr6   O11   S    
C27   O23   A    
Cr2   O14   S    
C37   C41   S    
Cr4   O6    S    
C10   C11   S    
C32   O12   A    
C20   C21   T    
Cr5   O26   S    
C28   O19   A    
C14   C15   S    
Cr1   O1    S    
C22   C28   S    
Cr1   O22   S    
C19   C30   S    
Cr3   O20   S    
