data_mof_unit_8.cif
_audit_creation_date              2013-03-05T16:34:33-0500
_audit_creation_method            fapswitch 2.2
_symmetry_space_group_name_H-M    P1
_symmetry_Int_Tables_number       1
_space_group_crystal_system       triclinic
_cell_length_a                    12.999835
_cell_length_b                    9.096507
_cell_length_c                    7.790769
_cell_angle_alpha                 90.003048
_cell_angle_beta                  96.113006
_cell_angle_gamma                 89.99935
_cell_volume                      916.043907495

loop_
_atom_site_label
_atom_site_type_symbol
_atom_site_description
_atom_site_fract_x
_atom_site_fract_y
_atom_site_fract_z
_atom_type_partial_charge
O1    O     O_R   0.500000 0.288400 0.642760 -0.578076
O2    O     O_R   0.500000 0.711600 0.357240 -0.578076
O3    O     O_R   0.500000 0.288400 0.357240 -0.573046
O4    O     O_R   0.500000 0.711600 0.642760 -0.573045
N1    N     N_1   0.499980 0.500000 0.076820 -0.038593
N2    N     N_1   0.500020 0.500000 0.923180 -0.038593
C1    C     C_R   0.499998 0.220046 0.499998 0.847414
C2    C     C_R   0.500002 0.779954 0.500002 0.847413
O5    O     O_R   0.349000 0.500000 0.619590 -0.583342
O6    O     O_R   0.651000 0.500000 0.380410 -0.583342
O7    O     O_R   0.348990 0.500000 0.334020 -0.579880
O8    O     O_R   0.651010 0.500000 0.665980 -0.579881
C3    C     C_R   0.300128 0.500907 0.468150 0.821050
C4    C     C_R   0.699872 0.499093 0.531850 0.821050
Cu1   Cu    Cu3+1 0.500010 0.500000 0.669080 1.032069
Cu2   Cu    Cu3+1 0.499990 0.500000 0.330920 1.032070
C5    C     C_R   0.812234 0.493127 0.550355 -0.118991
C6    C     C_R   0.187766 0.506876 0.449645 -0.118990
C7    C     C_R   0.027178 0.585133 0.290640 0.301770
C8    C     C_R   0.972823 0.414879 0.709367 0.301768
C9    C     C_R   0.134141 0.569964 0.302847 -0.161110
C10   C     C_R   0.865860 0.430042 0.697156 -0.161115
C11   C     C_R   0.134570 0.455466 0.583995 -0.189900
C12   C     C_R   0.865430 0.544540 0.416008 -0.189898
C13   C     C_R   0.027199 0.466984 0.574173 0.058639
C14   C     C_R   0.972801 0.533026 0.425832 0.058640
H1    H     H_    0.822033 0.593169 0.304026 0.203681
H2    H     H_    0.177966 0.406836 0.695976 0.203682
H3    H     H_    0.824282 0.388501 0.800365 0.190854
H4    H     H_    0.175719 0.611506 0.199638 0.190854
C15   C     C_1   0.500000 0.065372 0.499997 -0.150141
C16   C     C_1   0.500000 0.934628 0.500003 -0.150141
Br1   Br    Br    0.961080 0.682330 0.088856 -0.482394
Br2   Br    Br    0.038922 0.317700 0.911162 -0.482401

loop_
_geom_bond_atom_site_label_1
_geom_bond_atom_site_label_2
_geom_bond_distance
_ccdc_geom_bond_type
C12   H1    1.081795 S    
O1    Cu1   1.935701 S    
C10   H3    1.083549 S    
C6    C9    1.397704 A    
O2    Cu2   1.935700 S    
C9    H4    1.083549 S    
C5    C10   1.397705 A    
O8    Cu1   1.965694 S    
O8    C4    1.279408 A    
O4    C2    1.274231 A    
C8    Br2   1.924534 S    
O4    Cu1   1.935722 S    
O5    Cu1   1.959907 S    
C13   C14   1.422178 A    
O6    Cu2   1.959907 S    
C11   H2    1.081794 S    
O7    C3    1.279408 A    
C4    C5    1.453434 S    
C3    C6    1.453434 S    
C6    C11   1.395241 A    
C7    C9    1.390465 A    
C8    C10   1.390465 A    
O3    C1    1.274231 A    
C11   C13   1.393682 A    
C7    Br1   1.924534 S    
N1    N2    1.197030 T    
C12   C14   1.393685 A    
C5    C12   1.395239 A    
C1    C15   1.406993 S    
C8    C13   1.411501 A    
Cu1   Cu2   2.634500 S    
C2    C16   1.406993 S    
O7    Cu2   1.965694 S    
C7    C14   1.411500 A    
O5    C3    1.279093 A    
N1    Cu2   1.979620 S    
N2    Cu1   1.979620 S    
O1    C1    1.274199 A    
O2    C2    1.274198 A    
O3    Cu2   1.935723 S    
C15   C16   1.189316 T    
O6    C4    1.279093 A    
