data_mof_unit_4587.cif
_audit_creation_date              2012-12-10T22:11:07-0500
_audit_creation_method            fapswitch 2.2
_symmetry_space_group_name_H-M    P1
_symmetry_Int_Tables_number       1
_space_group_crystal_system       triclinic
_cell_length_a                    12.182622
_cell_length_b                    12.35945
_cell_length_c                    23.252948
_cell_angle_alpha                 90.375273
_cell_angle_beta                  90.346455
_cell_angle_gamma                 92.022684
_cell_volume                      3498.88259572

loop_
_atom_site_label
_atom_site_type_symbol
_atom_type_description
_atom_site_fract_x
_atom_site_fract_y
_atom_site_fract_z
_atom_type_partial_charge
C1    C     C_R   0.653552 0.998225 0.580433 0.912156
C2    C     C_R   0.086522 0.901849 0.840204 0.005921
C3    C     C_R   0.309739 0.841516 0.024723 -0.090128
C4    C     C_R   0.200413 0.869443 0.031618 -0.096588
C5    C     C_R   0.127432 0.861936 0.985157 -0.107508
C6    C     C_2   0.156854 0.842005 0.423780 0.906159
C7    C     C_2   0.633054 0.139444 0.683292 0.916678
C8    C     C_R   0.819373 0.180141 0.414975 0.124403
C9    C     C_R   0.894359 0.183882 0.460990 -0.110688
C10   C     C_R   0.911738 0.279295 0.492618 -0.118598
C11   C     C_R   0.850517 0.369867 0.480592 -0.142899
C12   C     C_R   0.773182 0.365964 0.435919 -0.172106
C13   C     C_R   0.894379 0.224369 0.146713 -0.091807
C14   C     C_R   0.758857 0.271962 0.402529 -0.028800
C15   C     C_R   0.325466 0.818763 0.658547 0.166315
C16   C     C_R   0.432055 0.831188 0.681392 -0.068781
C17   C     C_R   0.506024 0.748051 0.675284 -0.135816
C18   C     C_R   0.473834 0.651759 0.647116 -0.105629
C19   C     C_R   0.367389 0.638392 0.624834 -0.146589
C20   C     C_R   0.293393 0.721701 0.630263 -0.087913
C21   C     C_R   0.085051 0.820179 0.881996 -0.088194
C22   C     C_R   0.103566 0.914559 0.330086 -0.259408
C23   C     C_R   0.811162 0.069450 0.715391 -0.152188
C24   C     C_R   0.176602 0.919405 0.375879 -0.028765
C25   C     C_R   0.726505 0.066790 0.674660 -0.076539
C26   C     C_R   0.900156 0.084849 0.331722 0.024379
C27   C     C_R   0.163052 0.907068 0.701532 0.027403
C28   C     C_R   0.818290 0.087259 0.373765 -0.084332
C29   C     C_R   0.344391 0.001451 0.420652 0.953707
C30   C     C_R   0.248704 0.910020 0.661493 -0.090462
C31   C     C_3   0.000205 0.996976 0.247114 -0.095641
C32   C     C_3   0.998486 0.000894 0.753484 -0.084877
C33   C     C_R   0.653734 0.003045 0.420465 0.895776
C34   C     C_R   0.344654 0.997308 0.578809 0.977536
C35   C     C_R   0.102091 0.994612 0.287365 0.108849
C36   C     C_R   0.897892 0.996389 0.712664 0.076036
C37   C     C_R   0.260180 0.001294 0.376499 -0.106343
C38   C     C_R   0.732742 0.995272 0.627278 -0.178379
C39   C     C_R   0.903605 0.995876 0.291233 -0.056623
C40   C     C_R   0.925238 0.826065 0.113436 -0.246958
C41   C     C_R   0.097965 0.001817 0.710624 -0.012931
C42   C     C_R   0.734843 0.005979 0.374482 -0.169314
C43   C     C_R   0.257901 0.995518 0.622167 -0.166203
C44   C     C_R   0.999741 0.097603 0.206163 -0.043609
C45   C     C_R   0.998604 0.906032 0.797808 -0.083242
C46   C     C_R   0.993108 0.262612 0.121805 -0.113006
C47   C     C_R   0.004118 0.737117 0.879367 -0.125743
C48   C     C_R   0.994786 0.900433 0.204676 0.198939
C49   C     C_R   0.997722 0.100252 0.793427 0.117027
C50   C     C_R   0.992972 0.739737 0.119596 -0.004742
C51   C     C_R   0.092204 0.251548 0.842174 -0.149280
C52   C     C_R   0.006085 0.256315 0.881117 0.005529
C53   C     C_R   0.993484 0.659085 0.075665 0.857584
C54   C     C_R   0.006541 0.339265 0.924752 0.856406
C55   C     C_R   0.997416 0.350392 0.079969 0.877767
C56   C     C_R   0.001951 0.649157 0.920259 0.884801
C57   C     C_R   0.180762 0.080337 0.292098 -0.111995
C58   C     C_R   0.896131 0.920426 0.667125 -0.148754
C59   C     C_R   0.263429 0.080925 0.333236 -0.004044
C60   C     C_R   0.816929 0.920181 0.624501 -0.034861
C61   C     C_R   0.820961 0.909266 0.296299 -0.056815
C62   C     C_R   0.061357 0.809288 0.210028 -0.059452
C63   C     C_R   0.111428 0.090019 0.669737 -0.081772
C64   C     C_R   0.731681 0.922284 0.333333 -0.074534
C65   C     C_R   0.184312 0.080395 0.623581 -0.076375
C66   C     C_R   0.094231 0.124827 0.170644 -0.021526
C67   C     C_R   0.910517 0.825517 0.802235 0.070190
C68   C     C_R   0.090145 0.212664 0.134015 -0.238280
C69   C     C_R   0.919343 0.740154 0.839864 -0.223981
C70   C     C_R   0.925961 0.905046 0.155219 -0.162807
C71   C     C_R   0.088772 0.173030 0.799406 -0.125723
C72   C     C_R   0.351003 0.166592 0.328188 0.096681
C73   C     C_R   0.913478 0.105326 0.834801 -0.190376
C74   C     C_R   0.428475 0.159280 0.284046 -0.087557
C75   C     C_R   0.503331 0.245142 0.273958 -0.088634
C76   C     C_R   0.503150 0.337939 0.308572 -0.137896
C77   C     C_R   0.426638 0.345706 0.352810 -0.159241
C78   C     C_R   0.349551 0.261158 0.362046 -0.085286
C79   C     C_R   0.828762 0.844781 0.575410 0.130719
C80   C     C_R   0.874235 0.882266 0.523682 -0.141540
C81   C     C_R   0.876743 0.813920 0.475598 -0.077878
C82   C     C_R   0.834399 0.707557 0.479128 -0.089659
C83   C     C_R   0.789944 0.669503 0.530839 -0.180169
C84   C     C_R   0.060964 0.730555 0.167514 -0.185039
C85   C     C_R   0.787849 0.737544 0.579047 -0.070878
C86   C     C_R   0.825539 0.800487 0.268411 0.128042
C87   C     C_R   0.877496 0.716006 0.296969 -0.136606
C88   C     C_R   0.879962 0.613012 0.272069 -0.108551
C89   C     C_R   0.825491 0.591766 0.220077 -0.107506
C90   C     C_R   0.763234 0.671385 0.194645 -0.117799
C91   C     C_R   0.761456 0.774816 0.219267 -0.093030
C92   C     C_R   0.045068 0.190404 0.669552 0.129932
C93   C     C_R   0.090549 0.289465 0.690867 -0.083423
C94   C     C_R   0.031904 0.384491 0.687575 -0.114818
C95   C     C_R   0.916632 0.183276 0.877346 -0.176867
C96   C     C_R   0.930006 0.383496 0.659857 -0.082850
C97   C     C_R   0.889511 0.288758 0.633187 -0.135710
C98   C     C_R   0.949609 0.194480 0.635584 -0.163361
C99   C     C_2   0.203035 0.070657 0.169605 0.859968
C100  C     C_2   0.802700 0.824920 0.772933 0.892359
C101  C     C_2   0.789421 0.126635 0.219589 0.882732
C102  C     C_2   0.181057 0.981618 0.844182 0.900814
C103  C     C_2   0.978846 0.180568 0.331000 0.895631
C104  C     C_2   0.143815 0.799563 0.729544 0.887531
C105  C     C_2   0.630622 0.850882 0.327360 0.936825
C106  C     C_R   0.897966 0.150488 0.192230 0.023498
C107  C     C_2   0.176831 0.154649 0.573366 0.927657
C108  C     C_R   0.785677 0.248472 0.120505 0.160903
C109  C     C_R   0.752742 0.196268 0.069034 -0.090979
C110  C     C_R   0.650836 0.216809 0.044204 -0.125843
C111  C     C_R   0.580795 0.288781 0.070773 -0.084697
C112  C     C_R   0.612455 0.340102 0.122286 -0.163267
C113  C     C_R   0.714363 0.319892 0.147181 -0.128533
C114  C     C_R   0.163571 0.826540 0.931277 0.161342
C115  C     C_R   0.273537 0.798798 0.924372 -0.084215
C116  C     C_R   0.346298 0.806229 0.971109 -0.153429
H1    H     H_    0.871542 0.969331 0.147391 0.180106
H2    H     H_    0.163150 0.306639 0.845563 0.147410
H3    H     H_    0.113868 0.662376 0.171972 0.144208
H4    H     H_    0.850195 0.184821 0.908107 0.153103
H5    H     H_    0.175038 0.153197 0.267322 0.149309
H6    H     H_    0.959867 0.863255 0.662710 0.189844
H7    H     H_    0.428978 0.088194 0.256565 0.173590
H8    H     H_    0.560148 0.240338 0.238666 0.181136
H9    H     H_    0.561686 0.404091 0.300812 0.149689
H10   H     H_    0.425965 0.417921 0.379367 0.140192
H11   H     H_    0.289168 0.269283 0.395590 0.150450
H12   H     H_    0.162355 0.163745 0.774633 0.143933
H13   H     H_    0.906066 0.964627 0.520679 0.120519
H14   H     H_    0.910323 0.843806 0.435500 0.133091
H15   H     H_    0.835464 0.654876 0.441777 0.138306
H16   H     H_    0.755429 0.587893 0.533442 0.120025
H17   H     H_    0.751424 0.707876 0.618533 0.159050
H18   H     H_    0.913927 0.728515 0.339040 0.137066
H19   H     H_    0.923561 0.549531 0.293255 0.161545
H20   H     H_    0.830858 0.513452 0.199868 0.131137
H21   H     H_    0.717795 0.653539 0.155380 0.136208
H22   H     H_    0.712298 0.835346 0.199248 0.165400
H23   H     H_    0.118837 0.799083 0.244598 0.153458
H24   H     H_    0.172371 0.293926 0.709264 0.128131
H25   H     H_    0.066379 0.459224 0.705668 0.154824
H26   H     H_    0.884493 0.456965 0.657167 0.150321
H27   H     H_    0.813165 0.289051 0.609150 0.158613
H28   H     H_    0.921835 0.124538 0.610751 0.140137
H29   H     H_    0.289807 0.935094 0.173545 0.338031
H30   H     H_    0.652282 0.887551 0.767929 0.337917
H31   H     H_    0.647539 0.037675 0.219853 0.349363
H32   H     H_    0.325367 0.038322 0.812267 0.340999
H33   H     H_    0.099681 0.265053 0.372525 0.336085
H34   H     H_    0.845694 0.046586 0.834901 0.191949
H35   H     H_    0.201712 0.686469 0.782925 0.334048
H36   H     H_    0.466782 0.842118 0.313732 0.340158
H37   H     H_    0.194862 0.306329 0.542580 0.331104
H38   H     H_    0.806258 0.140074 0.048192 0.109210
H39   H     H_    0.626081 0.176757 0.004430 0.133647
H40   H     H_    0.501763 0.304332 0.051613 0.137968
H41   H     H_    0.557683 0.394892 0.143192 0.138017
H42   H     H_    0.736511 0.357720 0.187771 0.145379
H43   H     H_    0.302524 0.771500 0.883004 0.163378
H44   H     H_    0.430997 0.784717 0.965766 0.135871
H45   H     H_    0.040211 0.852414 0.330280 0.154574
H46   H     H_    0.366048 0.847265 0.060885 0.132783
H47   H     H_    0.171728 0.896578 0.072895 0.180037
H48   H     H_    0.042875 0.883774 0.991040 0.110037
H49   H     H_    0.106188 0.691787 0.447639 0.340430
H50   H     H_    0.469746 0.160137 0.677379 0.347051
H51   H     H_    0.945583 0.116006 0.469200 0.174745
H52   H     H_    0.975120 0.284028 0.525295 0.165630
H53   H     H_    0.864896 0.443481 0.505218 0.131883
H54   H     H_    0.726752 0.436679 0.426112 0.134675
H55   H     H_    0.702689 0.271201 0.366291 0.168069
H56   H     H_    0.808951 0.132468 0.747311 0.184890
H57   H     H_    0.458016 0.905512 0.703148 0.163234
H58   H     H_    0.588503 0.758485 0.692014 0.176063
H59   H     H_    0.531488 0.587676 0.642420 0.139128
H60   H     H_    0.342541 0.563904 0.602903 0.143584
H61   H     H_    0.211733 0.711444 0.611899 0.144650
H62   H     H_    0.163524 0.237671 0.110747 0.204758
H63   H     H_    0.855109 0.676872 0.840395 0.173157
H64   H     H_    0.872407 0.832938 0.076038 0.149568
O1    O     O_R   0.621380 0.090460 0.561410 -0.615800
O2    O     O_R   0.912410 0.372520 0.941210 -0.628135
O3    O     O_R   0.905660 0.383870 0.059980 -0.620227
O4    O     O_R   0.094340 0.616130 0.940020 -0.620398
O5    O     O_R   0.092570 0.390420 0.063230 -0.625166
O6    O     O_R   0.907430 0.609580 0.936770 -0.625607
O7    O     O_R   0.900680 0.620930 0.055550 -0.631684
O8    O     O_R   0.099320 0.379070 0.944450 -0.620038
O9    O     O_2   0.287562 0.125872 0.163386 -0.651380
O10   O     O_R   0.211182 0.959319 0.174765 -0.835544
O11   O     O_2   0.779695 0.754479 0.737268 -0.651564
O12   O     O_R   0.378620 0.909540 0.438590 -0.611771
O13   O     O_R   0.723782 0.897585 0.790134 -0.833696
O14   O     O_2   0.756200 0.188391 0.256296 -0.650906
O15   O     O_R   0.720423 0.042278 0.199033 -0.856090
O16   O     O_2   0.189323 0.041791 0.886116 -0.625720
O17   O     O_R   0.264905 0.982057 0.803533 -0.798925
O18   O     O_2   0.967403 0.253419 0.296472 -0.624530
O19   O     O_R   0.057844 0.192890 0.374577 -0.806886
O20   O     O_2   0.065693 0.740630 0.715107 -0.668157
O21   O     O_R   0.221849 0.761520 0.768143 -0.780423
O22   O     O_2   0.634797 0.753124 0.334404 -0.630729
O23   O     O_R   0.617150 0.909540 0.438590 -0.609899
O24   O     O_R   0.530025 0.897580 0.315828 -0.840816
O25   O     O_2   0.150472 0.117700 0.526154 -0.628144
O26   O     O_R   0.202583 0.265159 0.579869 -0.810701
O27   O     O_2   0.168878 0.871773 0.473767 -0.608158
O28   O     O_R   0.119153 0.736075 0.411607 -0.839776
O29   O     O_2   0.649024 0.229105 0.704986 -0.635439
O30   O     O_R   0.526213 0.104063 0.668672 -0.828179
O31   O     O_R   0.382850 0.090460 0.561410 -0.602272
O32   O     O_R   0.619720 0.093230 0.440890 -0.628320
O33   O     O_R   0.380280 0.906770 0.559110 -0.607816
O34   O     O_R   0.618800 0.906770 0.559110 -0.620433
O35   O     O_R   0.381200 0.093230 0.440890 -0.619748
O36   O     O_R   0.087590 0.627480 0.058790 -0.621270
Zn1   Zn    Zn3+2 0.501730 0.123520 0.501540 1.000926
Zn2   Zn    Zn3+2 0.498270 0.876480 0.498460 1.020610
Zn3   Zn    Zn3+2 0.125690 0.504390 0.002180 0.966949
Zn4   Zn    Zn3+2 0.874310 0.495610 0.997820 0.961988

loop_
_geom_bond_atom_site_label_1
_geom_bond_atom_site_label_2
_ccdc_geom_bond_type
C16   H57   S    
C108  C113  A    
C66   C68   A    
C87   C88   A    
C63   C65   A    
C60   C79   S    
O2    Zn4   S    
C93   C94   A    
C5    C114  A    
C32   C45   S    
C44   C66   A    
C111  C112  A    
O36   Zn3   S    
O12   Zn2   S    
C7    O30   S    
C114  C115  A    
C90   C91   A    
C92   C98   A    
C64   C105  S    
C100  O13   S    
C17   H58   S    
C22   C35   A    
O3    Zn4   S    
C40   C70   A    
C33   C42   S    
C32   C36   S    
C88   C89   A    
C116  H44   S    
C36   C58   A    
C86   C91   A    
O35   Zn1   S    
C13   C46   A    
H29   O10   S    
C33   O32   A    
C26   C39   A    
C57   C59   A    
O32   Zn1   S    
C2    C102  S    
C70   H1    S    
C58   C60   A    
C115  C116  A    
C27   C104  S    
C101  C106  S    
C51   H2    S    
C108  C109  A    
C52   C95   A    
C18   C19   A    
C68   H62   S    
C19   H60   S    
C47   C69   A    
C107  O26   S    
C72   C78   A    
C110  H39   S    
C3    H46   S    
C40   H64   S    
O4    Zn3   S    
C97   H27   S    
C23   H56   S    
C19   C20   A    
C16   C17   A    
C46   C55   S    
C45   C67   A    
C32   C41   S    
C54   O2    A    
C25   C38   A    
H31   O15   S    
C62   H23   S    
C9    C10   A    
C6    O28   S    
C59   C72   S    
C18   H59   S    
C55   O5    A    
C74   H7    S    
C112  H41   S    
C89   H20   S    
C54   O8    A    
C27   C30   A    
C76   H9    S    
C104  O20   D    
C87   H18   S    
C51   C71   A    
H35   O21   S    
C13   C108  S    
C39   C61   A    
C78   H11   S    
C73   H34   S    
C105  O22   D    
C112  C113  A    
C7    O29   D    
C52   C54   S    
C97   C98   A    
O7    Zn4   S    
C2    C45   A    
C15   C20   A    
O31   Zn1   S    
C58   H6    S    
C50   C53   S    
C31   C44   S    
C50   C84   A    
C51   C52   A    
C5    H48   S    
C9    H51   S    
C4    H47   S    
C76   C77   A    
C72   C74   A    
O34   Zn2   S    
C102  O17   S    
C48   C70   A    
C110  C111  A    
C99   O9    D    
C22   H45   S    
C1    O1    A    
C86   C87   A    
C8    C9    A    
C105  O24   S    
C12   H54   S    
C56   O4    A    
C77   C78   A    
O6    Zn4   S    
C33   O23   A    
C81   C82   A    
C75   H8    S    
C115  H43   S    
C67   C69   A    
C103  O18   D    
C66   C99   S    
C63   C92   S    
C61   C64   A    
C75   C76   A    
C46   C68   A    
C21   C114  S    
C26   C103  S    
C91   H22   S    
C27   C41   A    
C48   C62   A    
C43   C65   A    
C6    C24   S    
C96   C97   A    
C2    C21   A    
C17   C18   A    
C29   O12   A    
C103  O19   S    
C14   H55   S    
H30   O13   S    
C94   C96   A    
C109  H38   S    
C6    O27   D    
C37   C59   A    
C1    C38   S    
H33   O19   S    
C38   C60   A    
C30   C43   A    
C67   C100  S    
C83   C85   A    
C56   O6    A    
C11   H53   S    
C53   O36   A    
C31   C48   S    
O1    Zn1   S    
C113  H42   S    
C22   C24   A    
C71   H12   S    
C100  O11   D    
C73   C95   A    
C3    C4    A    
C89   C90   A    
C42   C64   A    
C13   C106  A    
C90   H21   S    
C101  O14   D    
C15   C30   S    
C111  H40   S    
O8    Zn3   S    
C24   C37   A    
C62   C84   A    
C8    C14   A    
C80   H13   S    
O5    Zn3   S    
O23   Zn2   S    
C98   H28   S    
C94   H25   S    
C34   C43   S    
C88   H19   S    
C12   C14   A    
C80   C81   A    
C34   O33   A    
C102  O16   D    
C99   O10   S    
C11   C12   A    
C20   H61   S    
C44   C106  A    
C95   H4    S    
C61   C86   S    
C26   C28   A    
C7    C25   S    
C35   C57   A    
C3    C116  A    
O33   Zn2   S    
C10   C11   A    
C104  O21   S    
C53   O7    A    
C83   H16   S    
C93   H24   S    
C109  C110  A    
C69   H63   S    
C57   H5    S    
C81   H14   S    
C84   H3    S    
C40   C50   A    
C15   C16   A    
C31   C35   S    
C28   C42   A    
C92   C93   A    
C79   C85   A    
C31   C39   S    
C49   C73   A    
H37   O26   S    
C23   C25   A    
H32   O17   S    
H49   O28   S    
C55   O3    A    
C32   C49   S    
C107  O25   D    
C29   O35   A    
C34   O31   A    
C96   H26   S    
C79   C80   A    
C4    C5    A    
C74   C75   A    
C8    C28   S    
C10   H52   S    
C23   C36   A    
C49   C71   A    
C29   C37   S    
C1    O34   A    
C41   C63   A    
H36   O24   S    
C82   C83   A    
C82   H15   S    
C65   C107  S    
H50   O30   S    
C77   H10   S    
C101  O15   S    
C85   H17   S    
C47   C56   S    
C21   C47   A    
