data_mof_unit_2270.cif
_audit_creation_date              2013-03-05T16:02:49-0500
_audit_creation_method            fapswitch 2.2
_symmetry_space_group_name_H-M    P1
_symmetry_Int_Tables_number       1
_space_group_crystal_system       triclinic
_cell_length_a                    23.612045
_cell_length_b                    11.822261
_cell_length_c                    10.460378
_cell_angle_alpha                 89.859199
_cell_angle_beta                  90.014176
_cell_angle_gamma                 90.114989
_cell_volume                      2919.97629089

loop_
_atom_site_label
_atom_site_type_symbol
_atom_site_description
_atom_site_fract_x
_atom_site_fract_y
_atom_site_fract_z
_atom_type_partial_charge
O1    O     O_R   0.500000 0.337200 0.605810 -0.544986
O2    O     O_R   0.500000 0.662800 0.394190 -0.579150
O3    O     O_R   0.500000 0.662800 0.605810 -0.546414
O4    O     O_R   0.500000 0.337200 0.394190 -0.578797
C1    C     C_R   0.500036 0.283193 0.500120 0.844692
C2    C     C_R   0.499845 0.716808 0.499866 0.860406
O5    O     O_R   0.417880 0.500000 0.605840 -0.545840
O6    O     O_R   0.582120 0.500000 0.394160 -0.586354
O7    O     O_R   0.582120 0.500000 0.605840 -0.548904
O8    O     O_R   0.417880 0.500000 0.394160 -0.593155
C3    C     C_R   0.390632 0.499799 0.499966 0.823475
C4    C     C_R   0.609207 0.500048 0.500011 0.834957
Cu1   Cu    Cu3+1 0.500000 0.500000 0.625300 1.057100
Cu2   Cu    Cu3+1 0.500000 0.500000 0.374700 1.015442
C5    C     C_R   0.880265 0.595201 0.474093 0.629609
C6    C     C_R   0.118618 0.398771 0.513480 0.627379
C7    C     C_R   0.880179 0.400710 0.532499 0.620449
C8    C     C_R   0.118622 0.599267 0.494882 0.616644
N1    N     N_R   0.851744 0.497862 0.503196 -0.477106
N2    N     N_R   0.147256 0.499131 0.503990 -0.471495
C9    C     C_R   0.939659 0.396139 0.521725 -0.143721
C10   C     C_R   0.059225 0.600225 0.481205 -0.150349
C11   C     C_R   0.939687 0.600295 0.485674 -0.147368
C12   C     C_R   0.059220 0.397352 0.527212 -0.154003
C13   C     C_R   0.969562 0.498360 0.503877 -0.100314
C14   C     C_R   0.029347 0.498649 0.504132 -0.101088
C15   C     C_R   0.970066 0.293892 0.533310 0.265453
C16   C     C_R   0.028762 0.699918 0.451834 0.304855
C17   C     C_R   0.970065 0.702837 0.474457 0.267072
C18   C     C_R   0.028743 0.297391 0.556404 0.306994
O9    O     O_2   0.851238 0.684879 0.428787 -0.440972
O10   O     O_2   0.147418 0.300870 0.503312 -0.447626
O11   O     O_2   0.851015 0.310767 0.577210 -0.443159
O12   O     O_2   0.147457 0.697357 0.505116 -0.449448
C19   C     C_R   0.237978 0.558328 0.407938 -0.043756
C20   C     C_R   0.760990 0.421499 0.426359 -0.036685
C21   C     C_R   0.238626 0.440128 0.596459 -0.156491
C22   C     C_R   0.761168 0.574924 0.578551 -0.157281
H1    H     H_    0.214221 0.603930 0.335786 0.212032
H2    H     H_    0.784631 0.361989 0.368703 0.208324
H3    H     H_    0.215598 0.394506 0.670014 0.176781
H4    H     H_    0.784765 0.633900 0.637391 0.171722
C23   C     C_R   0.297288 0.563121 0.408199 -0.093608
C24   C     C_R   0.701627 0.419530 0.425969 -0.099716
C25   C     C_R   0.297698 0.434133 0.592638 -0.044005
C26   C     C_R   0.702054 0.579708 0.575476 -0.041804
C27   C     C_R   0.327987 0.498652 0.499957 -0.142044
C28   C     C_R   0.671570 0.500243 0.500024 -0.135458
C29   C     C_R   0.208410 0.499347 0.502942 0.259286
C30   C     C_R   0.790774 0.497838 0.502979 0.261990
C31   C     C_1   0.500027 0.161764 0.500290 -0.127489
C32   C     C_1   0.499890 0.838241 0.499687 -0.122782
C33   C     C_1   0.499999 0.059751 0.500141 0.044966
C34   C     C_1   0.499944 0.940254 0.499840 0.044092
N3    N     N_1   0.500000 0.500000 0.186410 -0.139733
N4    N     N_1   0.500000 0.500000 0.813590 -0.132495
C35   C     C_1   0.499995 0.500000 0.072040 0.120558
C36   C     C_1   0.499995 0.499999 0.927960 0.124791
S1    S     S_3+6 0.939795 0.164933 0.479651 0.169517
O13   O     O_2   0.913037 0.103619 0.590212 -0.084700
O14   O     O_2   0.895334 0.186926 0.379708 -0.248035
O15   O     O_3   0.990439 0.084148 0.414137 -0.381171
H5    H     H_    0.004626 0.128437 0.340250 0.337703
S2    S     S_3+6 0.059933 0.809172 0.357505 0.120076
O16   O     O_2   0.088388 0.894108 0.442599 -0.143503
O17   O     O_2   0.103189 0.759106 0.268713 -0.261711
O18   O     O_3   0.010297 0.874190 0.268808 -0.451344
H6    H     H_    0.031407 0.929678 0.215984 0.381514
S3    S     S_3+6 0.939668 0.831441 0.528071 0.166550
O19   O     O_2   0.913098 0.892713 0.417372 -0.082950
O20   O     O_2   0.895027 0.808876 0.627491 -0.261175
O21   O     O_3   0.990182 0.912553 0.594280 -0.380987
H7    H     H_    0.004274 0.868227 0.668159 0.337824
S4    S     S_3+6 0.059866 0.188455 0.650944 0.116620
O22   O     O_2   0.088437 0.103758 0.566062 -0.144665
O23   O     O_2   0.103023 0.238970 0.739953 -0.273801
O24   O     O_3   0.010170 0.122989 0.739370 -0.450227
H8    H     H_    0.031242 0.067603 0.792204 0.381434
C37   C     C_2   0.325637 0.641019 0.316237 0.431335
H9    H     H_    0.368397 0.670894 0.333039 0.073539
O25   O     O_2   0.300928 0.675010 0.221049 -0.502056
C38   C     C_2   0.672141 0.329388 0.352164 0.428989
H10   H     H_    0.627446 0.312567 0.366116 0.064129
O26   O     O_2   0.697805 0.271108 0.275364 -0.491768
C39   C     C_2   0.324884 0.354848 0.684107 0.433719
H11   H     H_    0.304758 0.337574 0.775420 0.082273
O27   O     O_2   0.367640 0.302669 0.655959 -0.522528
C40   C     C_2   0.674969 0.672248 0.649193 0.423279
H12   H     H_    0.697576 0.710553 0.728501 0.090161
O28   O     O_2   0.628968 0.710881 0.619091 -0.533514

loop_
_geom_bond_atom_site_label_1
_geom_bond_atom_site_label_2
_geom_bond_distance
_ccdc_geom_bond_type
C3    C27   1.479211 S    
C4    C28   1.472501 S    
O3    C2    1.277633 A    
O24   H8    0.990524 S    
C5    N1    1.365913 A    
O15   H5    0.990539 S    
S4    O23   1.503916 D    
O1    C1    1.278043 A    
C11   C17   1.411995 A    
C16   C17   1.406571 A    
C12   C14   1.411327 A    
C22   H4    1.084340 S    
C24   C38   1.489031 S    
C18   S4    1.781520 S    
C23   C37   1.488295 S    
S3    O20   1.503946 D    
O7    Cu1   1.949727 S    
C33   C34   1.412729 S    
S4    O24   1.680733 S    
C19   C29   1.398636 A    
C19   C23   1.401475 A    
C17   S3    1.774824 S    
O3    Cu1   1.934933 S    
O6    C4    1.278551 A    
Cu1   N4    1.969586 S    
C5    C11   1.409440 A    
Cu2   N3    1.969585 S    
C9    C15   1.412115 A    
S1    O13   1.502171 D    
C6    C12   1.409960 A    
C10   C16   1.415057 A    
Cu1   Cu2   2.621371 S    
C15   C18   1.406868 A    
C21   H3    1.084222 S    
O2    C2    1.277932 A    
C7    O11   1.348482 S    
C32   C34   1.206033 T    
O5    C3    1.280672 A    
C26   C40   1.485836 S    
C25   C27   1.423968 A    
C26   C28   1.422760 A    
S1    O14   1.503952 D    
S4    O22   1.501151 D    
C39   O27   1.220658 D    
O18   H6    0.990524 S    
S2    O18   1.680727 S    
C20   H2    1.083576 S    
O8    Cu2   1.949729 S    
C37   O25   1.221468 D    
O4    C1    1.277497 A    
C13   C14   1.411643 A    
C39   H11   1.085709 S    
C7    C9    1.410127 A    
C31   C33   1.206034 T    
S2    O17   1.503928 D    
S3    O21   1.679312 S    
C19   H1    1.083493 S    
N2    C29   1.444027 S    
C21   C29   1.397999 A    
C6    N2    1.367873 A    
C8    O12   1.348032 S    
C16   S2    1.781547 S    
C40   O28   1.220093 D    
C38   O26   1.221448 D    
N3    C35   1.196357 T    
C20   C24   1.401845 A    
O1    Cu1   1.935930 S    
C21   C25   1.397348 A    
C20   C30   1.397212 A    
C9    C13   1.410452 A    
S1    O15   1.679267 S    
O6    Cu2   1.949627 S    
C8    C10   1.409801 A    
O21   H7    0.990518 S    
C5    O9    1.348580 S    
C22   C30   1.396599 A    
C6    O10   1.348008 S    
C25   C39   1.484515 S    
S2    O16   1.501145 D    
C15   S1    1.774810 S    
N1    C30   1.439615 S    
C35   C36   1.507126 S    
C7    N1    1.365729 A    
N4    C36   1.196354 T    
C8    N2    1.367572 A    
C11   C13   1.410090 A    
O4    Cu2   1.934934 S    
S3    O19   1.502165 D    
O2    Cu2   1.935930 S    
O7    C4    1.278632 A    
C12   C18   1.415132 A    
C22   C26   1.397418 A    
O8    C3    1.280320 A    
C37   H9    1.083433 S    
O5    Cu1   1.949629 S    
C40   H12   1.085773 S    
C38   H10   1.083367 S    
C10   C14   1.411566 A    
C1    C31   1.435558 S    
C2    C32   1.435606 S    
C23   C27   1.423323 A    
C24   C28   1.421586 A    
