data_mof_unit_296.cif
_audit_creation_date              2012-12-10T20:49:44-0500
_audit_creation_method            fapswitch 2.2
_symmetry_space_group_name_H-M    P1
_symmetry_Int_Tables_number       1
_space_group_crystal_system       triclinic
_cell_length_a                    8.111464
_cell_length_b                    8.928785
_cell_length_c                    16.673799
_cell_angle_alpha                 89.99397
_cell_angle_beta                  83.881907
_cell_angle_gamma                 89.916012
_cell_volume                      1200.72910976

loop_
_atom_site_label
_atom_site_type_symbol
_atom_type_description
_atom_site_fract_x
_atom_site_fract_y
_atom_site_fract_z
_atom_type_partial_charge
C1    C     C_R   0.499924 0.782003 0.499994 0.906380
C2    C     C_R   0.500071 0.218004 0.500000 0.981685
C3    C     C_1   0.499879 0.934812 0.499986 -0.183482
C4    C     C_1   0.500089 0.065213 0.499987 -0.173508
C5    C     C_R   0.475234 0.499577 0.653710 0.949190
C6    C     C_R   0.524890 0.496987 0.346200 0.902161
C7    C     C_R   0.455453 0.474243 0.739980 -0.191278
C8    C     C_R   0.547435 0.458696 0.261045 -0.209720
C9    C     C_R   0.520191 0.576357 0.793084 -0.098170
C10   C     C_R   0.473796 0.325565 0.236511 -0.062092
C11   C     C_R   0.518695 0.536522 0.874829 0.472648
C12   C     C_R   0.505705 0.277447 0.155765 0.386595
C13   C     C_R   0.450302 0.398183 0.901741 -0.045326
C14   C     C_R   0.609580 0.364341 0.101439 0.004686
C15   C     C_R   0.375161 0.302107 0.849902 -0.061791
C16   C     C_R   0.693522 0.489654 0.127552 0.049762
C17   C     C_R   0.378919 0.339757 0.767971 0.433067
C18   C     C_R   0.660926 0.539349 0.207112 0.352358
C19   C     C_2   0.458197 0.354808 0.985493 -0.097132
C20   C     C_2   0.604968 0.344298 0.014750 -0.019689
H1    H     H_    0.718790 0.357003 0.974533 0.160951
H2    H     H_    0.342598 0.350315 0.024911 0.169124
N1    N     N_1   0.926360 0.500000 0.499990 -0.021253
N2    N     N_1   0.073640 0.500000 0.500010 -0.019761
O1    O     O_R   0.363150 0.714660 0.500000 -0.619327
O2    O     O_R   0.636850 0.285340 0.500000 -0.619076
O3    O     O_R   0.636850 0.714660 0.500000 -0.618960
O4    O     O_R   0.363150 0.285340 0.500000 -0.592435
O5    O     O_R   0.346950 0.500000 0.615800 -0.580227
O6    O     O_R   0.653050 0.500000 0.384200 -0.612511
O7    O     O_R   0.620700 0.500000 0.615800 -0.617456
O8    O     O_R   0.379300 0.500000 0.384200 -0.593701
Zn1   Zn    Zn3+2 0.317220 0.500000 0.500010 1.027752
Zn2   Zn    Zn3+2 0.682780 0.500000 0.499990 1.009199
N3    N     N_3   0.301192 0.163836 0.879236 -0.465705
H3    H     H_    0.391505 0.099322 0.903469 0.220601
H4    H     H_    0.206937 0.188151 0.925173 0.206000
N4    N     N_3   0.804172 0.572590 0.071148 -0.414840
H5    H     H_    0.920551 0.575599 0.092691 0.216480
H6    H     H_    0.760146 0.682469 0.068819 0.256574
O9    O     O_3   0.437271 0.148810 0.126785 -0.770175
H7    H     H_    0.365572 0.097919 0.169948 0.338259
O10   O     O_3   0.580976 0.629957 0.930653 -0.769075
H8    H     H_    0.641979 0.714547 0.903202 0.354669
N5    N     N_3   0.583907 0.720837 0.766248 -0.448205
H9    H     H_    0.503256 0.801999 0.793413 0.194761
H10   H     H_    0.583616 0.736473 0.704301 0.190846
N6    N     N_3   0.370532 0.239602 0.294865 -0.429812
H11   H     H_    0.251736 0.231513 0.276333 0.199546
H12   H     H_    0.421525 0.132619 0.299012 0.181967
O11   O     O_3   0.739215 0.668545 0.228783 -0.759069
H13   H     H_    0.681423 0.709571 0.279285 0.330997
O12   O     O_3   0.315406 0.245796 0.712687 -0.760999
H14   H     H_    0.265449 0.155797 0.739944 0.358516

loop_
_geom_bond_atom_site_label_1
_geom_bond_atom_site_label_2
_ccdc_geom_bond_type
C18   O11   S    
C6    O8    A    
O10   H8    S    
C15   C17   A    
C12   O9    S    
C17   O12   S    
C11   C13   A    
O9    H7    S    
C2    C4    S    
N2    Zn1   S    
O1    Zn1   S    
N1    N2    T    
N1    Zn2   S    
C1    O3    A    
O8    Zn1   S    
C19   C20   D    
N6    H12   S    
O7    Zn2   S    
C2    O2    A    
O12   H14   S    
O2    Zn2   S    
C1    O1    A    
C9    C11   A    
C10   C12   A    
C9    N5    S    
C16   C18   A    
N6    H11   S    
N4    H6    S    
C12   C14   A    
O4    Zn1   S    
C5    O5    A    
C13   C15   A    
O3    Zn2   S    
C10   N6    S    
N4    H5    S    
C14   C16   A    
C11   O10   S    
C2    O4    A    
O6    Zn2   S    
O11   H13   S    
C14   C20   S    
C19   H2    S    
C20   H1    S    
C7    C9    A    
N5    H10   S    
C15   N3    S    
C1    C3    S    
C5    C7    S    
C13   C19   S    
C6    C8    S    
N3    H4    S    
N5    H9    S    
C6    O6    A    
C8    C10   A    
C8    C18   A    
C3    C4    T    
O5    Zn1   S    
C16   N4    S    
C5    O7    A    
N3    H3    S    
C7    C17   A    
