data_mof_unit_638.cif
_audit_creation_date              2012-12-11T15:36:44-0500
_audit_creation_method            fapswitch 2.2
_symmetry_space_group_name_H-M    P1
_symmetry_Int_Tables_number       1
_space_group_crystal_system       triclinic
_cell_length_a                    15.056056
_cell_length_b                    15.076275
_cell_length_c                    34.845922
_cell_angle_alpha                 91.306996
_cell_angle_beta                  91.693936
_cell_angle_gamma                 59.968566
_cell_volume                      6844.50041929

loop_
_atom_site_label
_atom_site_type_symbol
_atom_type_description
_atom_site_fract_x
_atom_site_fract_y
_atom_site_fract_z
_atom_type_partial_charge
C1    C     C_R   0.610993 0.302767 0.443889 0.555919
C2    C     C_R   0.726238 0.658117 0.176816 0.042498
C3    C     C_R   0.637687 0.123330 0.827128 0.012599
C4    C     C_R   0.673872 0.173914 0.851565 -0.060450
C5    C     C_R   0.692367 0.149673 0.890673 0.261442
C6    C     C_R   0.575152 0.235571 0.769168 0.283386
C7    C     C_R   0.579533 0.247865 0.729527 0.327591
C8    C     C_R   0.637719 0.161326 0.706038 0.012946
C9    C     C_R   0.694852 0.064237 0.722316 -0.197632
C10   C     C_R   0.692801 0.052470 0.761741 -0.184158
C11   C     C_R   0.633727 0.137597 0.785383 -0.010810
C12   C     C_R   0.546845 0.204139 0.642594 0.315932
C13   C     C_R   0.822022 0.613518 0.159483 0.299995
C14   C     C_R   0.539678 0.238855 0.605243 -0.098656
C15   C     C_R   0.716578 0.199889 0.609501 -0.156754
C16   C     C_R   0.723731 0.166444 0.647108 -0.185166
C17   C     C_R   0.637516 0.173387 0.664350 0.056879
C18   C     C_R   0.622866 0.241280 0.588984 -0.026769
C19   C     C_R   0.045020 0.739329 0.048735 0.543816
C20   C     C_R   0.746334 0.745279 0.063536 0.575770
C21   C     C_R   0.751160 0.040508 0.050661 0.543840
C22   C     C_R   0.015173 0.722955 0.939227 0.542358
C23   C     C_R   0.716651 0.729242 0.955259 0.537972
C24   C     C_R   0.826116 0.641003 0.121585 -0.163253
C25   C     C_R   0.721364 0.024522 0.942183 0.567730
C26   C     C_R   0.716972 0.567480 0.233457 -0.147592
C27   C     C_R   0.707592 0.561406 0.273102 0.269777
C28   C     C_R   0.702388 0.639881 0.297347 0.060417
C29   C     C_R   0.706332 0.722849 0.282047 -0.171160
C30   C     C_R   0.717688 0.728056 0.242389 0.284722
C31   C     C_R   0.720321 0.650729 0.218331 0.052733
C32   C     C_R   0.592888 0.718569 0.353572 -0.177959
C33   C     C_R   0.593251 0.609915 0.449309 0.552331
C34   C     C_R   0.566127 0.713059 0.390901 -0.144737
C35   C     C_R   0.727532 0.554995 0.400038 -0.122649
C36   C     C_R   0.754046 0.558073 0.361866 0.326010
C37   C     C_R   0.684571 0.639851 0.338549 0.091059
C38   C     C_R   0.631355 0.629053 0.413875 -0.017567
C39   C     C_R   0.099513 0.730219 0.085621 0.021241
C40   C     C_R   0.145812 0.636604 0.105209 -0.125721
C41   C     C_R   0.166931 0.633779 0.144478 -0.068455
C42   C     C_R   0.142684 0.724257 0.164718 0.067850
C43   C     C_R   0.106842 0.815872 0.144650 -0.128446
C44   C     C_R   0.303818 0.591609 0.442404 0.547006
C45   C     C_R   0.085400 0.818905 0.105236 -0.126377
C46   C     C_R   0.207149 0.753845 0.227546 -0.174141
C47   C     C_R   0.215920 0.745637 0.267448 -0.137856
C48   C     C_R   0.161742 0.708363 0.287422 -0.010320
C49   C     C_R   0.094985 0.684045 0.267001 -0.126827
C50   C     C_R   0.086045 0.691596 0.226804 0.233212
C51   C     C_R   0.144845 0.724106 0.206997 0.060399
C52   C     C_R   0.195209 0.594251 0.343370 -0.108200
C53   C     C_R   0.228323 0.566251 0.381246 -0.108528
C54   C     C_R   0.228401 0.725637 0.391699 -0.122275
C55   C     C_R   0.605920 0.299508 0.553441 0.539044
C56   C     C_R   0.195093 0.753684 0.353818 -0.117523
C57   C     C_R   0.181396 0.686771 0.328959 0.034224
C58   C     C_R   0.248674 0.630080 0.405392 0.019065
C59   C     C_R   0.724445 0.099273 0.086893 -0.022086
C60   C     C_R   0.796766 0.118196 0.106083 -0.145058
C61   C     C_R   0.783363 0.149755 0.144365 -0.174855
C62   C     C_R   0.697332 0.163511 0.163863 0.037925
C63   C     C_R   0.621369 0.150707 0.144268 0.284745
C64   C     C_R   0.634296 0.120983 0.105582 -0.105147
C65   C     C_R   0.615343 0.263536 0.222799 -0.096111
C66   C     C_R   0.588013 0.606841 0.559032 0.563548
C67   C     C_R   0.608361 0.270277 0.262544 -0.175274
C68   C     C_R   0.679819 0.189332 0.285617 0.032296
C69   C     C_R   0.760849 0.100944 0.268734 0.275869
C70   C     C_R   0.767090 0.095482 0.228388 -0.136955
C71   C     C_R   0.694547 0.176189 0.205668 0.005495
C72   C     C_R   0.749328 0.196055 0.351832 0.271784
C73   C     C_R   0.731676 0.216936 0.390841 -0.122192
C74   C     C_R   0.557940 0.247174 0.382666 0.251337
C75   C     C_R   0.576249 0.223227 0.343598 -0.139630
C76   C     C_R   0.669927 0.200623 0.327655 0.021197
C77   C     C_R   0.297913 0.589307 0.551693 0.540721
C78   C     C_R   0.634496 0.249791 0.406172 -0.025263
C79   C     C_R   0.691094 0.687465 0.920382 -0.048407
C80   C     C_R   0.771451 0.603217 0.901605 -0.185467
C81   C     C_R   0.761013 0.582375 0.863219 -0.145331
C82   C     C_R   0.671139 0.646640 0.842389 0.055414
C83   C     C_R   0.586245 0.725546 0.861712 0.359987
C84   C     C_R   0.594161 0.741970 0.901240 0.230733
C85   C     C_R   0.594163 0.626689 0.780257 0.225881
C86   C     C_R   0.589271 0.630031 0.740008 -0.199660
C87   C     C_R   0.663376 0.637739 0.719259 -0.056204
C88   C     C_R   0.736126 0.708004 0.100964 -0.007238
C89   C     C_R   0.746094 0.638387 0.738684 0.278881
C90   C     C_R   0.746165 0.645407 0.779178 0.221673
C91   C     C_R   0.670998 0.637749 0.799991 0.038405
C92   C     C_R   0.728464 0.560756 0.655309 -0.107737
C93   C     C_R   0.712392 0.550466 0.615770 0.258919
C94   C     C_R   0.550194 0.710929 0.619034 -0.119419
C95   C     C_R   0.565901 0.720788 0.658157 0.231952
C96   C     C_R   0.653833 0.642043 0.676933 0.019256
C97   C     C_R   0.620287 0.624879 0.597748 -0.017565
C98   C     C_R   0.055089 0.701859 0.900013 0.017348
C99   C     C_R   0.639097 0.745319 0.117494 0.264968
C100  C     C_R   0.075136 0.771881 0.881758 -0.118102
C101  C     C_R   0.092096 0.763900 0.842413 -0.112962
C102  C     C_R   0.088801 0.686101 0.820596 0.022164
C103  C     C_R   0.074161 0.612888 0.839190 -0.114607
C104  C     C_R   0.057803 0.620478 0.878577 -0.119436
C105  C     C_R   0.154822 0.589316 0.759133 -0.118405
C106  C     C_R   0.165210 0.586781 0.719507 -0.104460
C107  C     C_R   0.118579 0.678018 0.698542 0.016709
C108  C     C_R   0.059839 0.771849 0.717533 -0.111794
C109  C     C_R   0.048671 0.774392 0.757211 -0.109732
C110  C     C_R   0.635768 0.718870 0.155803 -0.143583
C111  C     C_R   0.097489 0.683205 0.778435 0.036730
C112  C     C_R   0.192195 0.724139 0.645488 -0.149722
C113  C     C_R   0.237889 0.701684 0.609734 -0.143920
C114  C     C_R   0.174666 0.584389 0.596327 -0.047671
C115  C     C_R   0.126373 0.608220 0.631651 0.253245
C116  C     C_R   0.140407 0.674319 0.657483 0.014594
C117  C     C_R   0.233394 0.628087 0.585690 -0.028531
C118  C     C_R   0.676477 0.072117 0.905015 0.032608
C119  C     C_R   0.632994 0.027287 0.880984 -0.185860
C120  C     C_R   0.614450 0.052226 0.842207 -0.162160
Cr1   Cr    Cr6+3 0.426010 0.422500 0.497000 1.043545
Cr2   Cr    Cr6+3 0.651300 0.426310 0.501970 1.044630
Cr3   Cr    Cr6+3 0.422670 0.651170 0.501050 1.013461
Cr4   Cr    Cr6+3 0.905130 0.911420 0.992650 1.040015
Cr5   Cr    Cr6+3 0.911860 0.682710 0.002320 1.009466
Cr6   Cr    Cr6+3 0.682710 0.906840 0.004710 1.047924
H1    H     H_    0.491773 0.771482 0.400920 0.140146
H2    H     H_    0.779761 0.492776 0.418471 0.118692
H3    H     H_    0.158239 0.566925 0.090862 0.122118
H4    H     H_    0.049487 0.892273 0.090983 0.127476
H5    H     H_    0.183207 0.826228 0.343603 0.103212
H6    H     H_    0.268613 0.764150 0.282490 0.119792
H7    H     H_    0.252010 0.779629 0.212544 0.108078
H8    H     H_    0.196357 0.562052 0.159550 0.131282
H9    H     H_    0.050863 0.657915 0.282313 0.098230
H10   H     H_    0.899830 0.614974 0.108792 0.138609
H11   H     H_    0.186164 0.540654 0.324769 0.117649
H12   H     H_    0.243545 0.492030 0.390876 0.159385
H13   H     H_    0.088341 0.886258 0.159911 0.096915
H14   H     H_    0.242766 0.776832 0.409700 0.126662
H15   H     H_    0.867087 0.101964 0.092414 0.137845
H16   H     H_    0.577050 0.107975 0.091135 0.136606
H17   H     H_    0.515146 0.226788 0.325260 0.127351
H18   H     H_    0.546882 0.338897 0.275447 0.130501
H19   H     H_    0.558556 0.325808 0.205359 0.142736
H20   H     H_    0.842695 0.158308 0.159413 0.112557
H21   H     H_    0.825535 0.027234 0.214296 0.096642
H22   H     H_    0.792318 0.216571 0.408505 0.158028
H23   H     H_    0.845601 0.557664 0.915649 0.149517
H24   H     H_    0.527828 0.625884 0.724642 0.127191
H25   H     H_    0.826103 0.520186 0.848961 0.150998
H26   H     H_    0.797354 0.503124 0.669720 0.126193
H27   H     H_    0.479807 0.769591 0.605661 0.163183
H28   H     H_    0.073686 0.835246 0.897588 0.138628
H29   H     H_    0.719562 0.508692 0.214252 0.098578
H30   H     H_    0.041298 0.566064 0.891741 0.132596
H31   H     H_    0.212399 0.513795 0.705301 0.155861
H32   H     H_    0.193757 0.518095 0.774774 0.088309
H33   H     H_    0.105685 0.819891 0.828904 0.122062
H34   H     H_    0.023618 0.842872 0.701689 0.106613
H35   H     H_    0.002111 0.847632 0.771307 0.099689
H36   H     H_    0.203657 0.774865 0.664908 0.132338
H37   H     H_    0.282655 0.736586 0.602116 0.144618
H38   H     H_    0.070356 0.552635 0.823020 0.117787
H39   H     H_    0.563615 0.747083 0.170137 0.099958
H40   H     H_    0.168120 0.529559 0.577549 0.158634
H41   H     H_    0.620907 0.967120 0.891488 0.142385
H42   H     H_    0.794270 0.141626 0.663583 0.109536
H43   H     H_    0.586389 0.012773 0.823549 0.101341
H44   H     H_    0.740463 0.997678 0.704439 0.131742
H45   H     H_    0.738768 0.977021 0.774006 0.117318
H46   H     H_    0.698702 0.783887 0.301112 0.105668
H47   H     H_    0.466641 0.269495 0.589984 0.147373
H48   H     H_    0.693416 0.227816 0.839888 0.143997
H49   H     H_    0.782403 0.198805 0.597338 0.125844
H50   H     H_    0.539261 0.781467 0.335597 0.109901
O1    O     O_R   0.324990 0.503440 0.453910 -0.494067
O2    O     O_R   0.639980 0.519500 0.542640 -0.438437
O3    O     O_R   0.500750 0.673190 0.545480 -0.537098
O4    O     O_R   0.336260 0.640450 0.538210 -0.501059
O5    O     O_3   0.499990 0.499990 0.500010 -0.249811
O6    O     O_R   0.834210 0.019400 0.034570 -0.514714
O7    O     O_R   0.002210 0.824620 0.031030 -0.501823
O8    O     O_R   0.024400 0.669340 0.039790 -0.518396
O9    O     O_R   0.830490 0.694950 0.045870 -0.519484
O10   O     O_R   0.675430 0.831160 0.051290 -0.456274
O11   O     O_R   0.698870 0.998880 0.039560 -0.506500
O12   O     O_R   0.522030 0.339050 0.458320 -0.443093
O13   O     O_R   0.811290 0.006780 0.950620 -0.462747
O14   O     O_R   0.980960 0.812920 0.953200 -0.500909
O15   O     O_R   0.001480 0.656720 0.955830 -0.519053
O16   O     O_R   0.809240 0.683250 0.968050 -0.503012
O17   O     O_R   0.652500 0.818540 0.967340 -0.494817
O18   O     O_R   0.677620 0.987170 0.961730 -0.510685
O19   O     O_3   0.833240 0.833660 0.999890 -0.251066
O20   O     O_R   0.676180 0.324490 0.458320 -0.537786
O21   O     O_R   0.643570 0.521510 0.464260 -0.500972
O22   O     O_R   0.504630 0.675350 0.460920 -0.516874
O23   O     O_R   0.339850 0.642450 0.459830 -0.505315
O24   O     O_R   0.321120 0.501280 0.538470 -0.519066
O25   O     O_R   0.518440 0.337050 0.536710 -0.509353
O26   O     O_R   0.672300 0.322330 0.542880 -0.512304
O27   O     O_3   0.551625 0.802216 0.094474 -0.540983
C121  C     C_3   0.464732 0.871599 0.115442 -0.112010
H51   H     H_    0.483402 0.914058 0.137755 0.101307
H52   H     H_    0.428149 0.831224 0.128209 0.112794
H53   H     H_    0.407721 0.929199 0.095285 0.144418
O28   O     O_3   0.909228 0.553509 0.182009 -0.548491
C122  C     C_3   0.987274 0.472030 0.160966 -0.112955
H54   H     H_    0.033049 0.498683 0.145546 0.138728
H55   H     H_    0.956543 0.434936 0.140819 0.095492
H56   H     H_    0.040248 0.412663 0.181503 0.143931
O29   O     O_3   0.020783 0.667643 0.206331 -0.683935
H57   H     H_    0.986785 0.644968 0.224463 0.352164
O30   O     O_3   0.848080 0.486007 0.346823 -0.556087
C123  C     C_3   0.874436 0.385160 0.356536 -0.074222
H58   H     H_    0.806961 0.373433 0.355647 0.170963
H59   H     H_    0.913559 0.364818 0.385141 0.105474
H60   H     H_    0.929541 0.331571 0.335230 0.161603
O31   O     O_3   0.825825 0.019378 0.292361 -0.562930
C124  C     C_3   0.928724 0.970897 0.280507 -0.108791
H61   H     H_    0.951841 0.026733 0.271452 0.114273
H62   H     H_    0.942112 0.914172 0.257293 0.109612
H63   H     H_    0.979238 0.928051 0.305190 0.165132
O32   O     O_3   0.842352 0.178556 0.338582 -0.711319
H64   H     H_    0.835127 0.195984 0.311059 0.327983
O33   O     O_3   0.535986 0.164093 0.163190 -0.577114
C125  C     C_3   0.553848 0.067256 0.174666 -0.108016
H65   H     H_    0.619796 0.030854 0.195372 0.150779
H66   H     H_    0.566948 0.015423 0.149590 0.123062
H67   H     H_    0.484919 0.077705 0.189415 0.138816
O34   O     O_3   0.460985 0.280378 0.396368 -0.545030
C126  C     C_3   0.452741 0.193725 0.404566 -0.112147
H68   H     H_    0.511514 0.144340 0.426360 0.114335
H69   H     H_    0.458618 0.148617 0.378070 0.106396
H70   H     H_    0.376179 0.220062 0.416773 0.137601
O35   O     O_3   0.507141 0.814580 0.919506 -0.663326
H71   H     H_    0.512945 0.794794 0.946778 0.338803
O36   O     O_3   0.492126 0.806939 0.676929 -0.713079
H72   H     H_    0.519433 0.813465 0.702369 0.331136
O37   O     O_3   0.698953 0.482487 0.288526 -0.698300
H73   H     H_    0.703859 0.434453 0.267667 0.314246
O38   O     O_3   0.525087 0.612686 0.800801 -0.642062
H74   H     H_    0.477102 0.605425 0.782632 0.331721
O39   O     O_3   0.822588 0.638825 0.717637 -0.559658
C127  C     C_3   0.918458 0.551370 0.726449 -0.091379
H75   H     H_    0.912891 0.485705 0.737809 0.092956
H76   H     H_    0.962459 0.572514 0.747117 0.173272
H77   H     H_    0.962882 0.523200 0.699802 0.141306
O40   O     O_3   0.822380 0.655528 0.798474 -0.584382
C128  C     C_3   0.793637 0.760030 0.799739 -0.116038
H78   H     H_    0.724967 0.804686 0.817668 0.094400
H79   H     H_    0.779986 0.793101 0.770477 0.145444
H80   H     H_    0.857220 0.767327 0.813341 0.151116
O41   O     O_3   0.786765 0.471345 0.593858 -0.532051
C129  C     C_3   0.820911 0.375367 0.611044 -0.099799
H81   H     H_    0.854386 0.315182 0.588459 0.148419
H82   H     H_    0.757275 0.369642 0.624098 0.104312
H83   H     H_    0.882744 0.358976 0.632677 0.107682
O42   O     O_3   0.493760 0.784678 0.842437 -0.483727
C130  C     C_3   0.489699 0.874782 0.829762 -0.091798
H84   H     H_    0.547696 0.857211 0.807477 0.073757
H85   H     H_    0.499369 0.918833 0.853982 0.134922
H86   H     H_    0.413078 0.924583 0.816354 0.148260
O43   O     O_3   0.069154 0.563266 0.640273 -0.702545
H87   H     H_    0.023247 0.602419 0.661567 0.332971
O44   O     O_3   0.736786 0.193057 0.913917 -0.555726
C131  C     C_3   0.662126 0.295358 0.922135 -0.114242
H88   H     H_    0.695917 0.327689 0.942901 0.149091
H89   H     H_    0.593846 0.299991 0.935718 0.114977
H90   H     H_    0.638673 0.343366 0.895935 0.134184
O45   O     O_3   0.521807 0.343791 0.713401 -0.531751
C132  C     C_3   0.580685 0.392831 0.714592 -0.109876
H91   H     H_    0.654303 0.347378 0.699320 0.093410
H92   H     H_    0.595610 0.408870 0.744695 0.155061
H93   H     H_    0.536574 0.467211 0.699689 0.138042
O46   O     O_3   0.517556 0.320220 0.792198 -0.564811
C133  C     C_3   0.417158 0.336061 0.793496 -0.098906
H94   H     H_    0.416643 0.269143 0.806113 0.107948
H95   H     H_    0.379546 0.352940 0.764509 0.153116
H96   H     H_    0.370973 0.403477 0.812200 0.142618
O47   O     O_3   0.460883 0.212088 0.659156 -0.547821
C134  C     C_3   0.463891 0.117623 0.654125 -0.115364
H97   H     H_    0.532600 0.054430 0.668685 0.125719
H98   H     H_    0.461735 0.099045 0.623119 0.115065
H99   H     H_    0.395067 0.123429 0.667380 0.155288
O48   O     O_3   0.717786 0.810811 0.225485 -0.581206
C135  C     C_3   0.775462 0.845034 0.247330 -0.094585
H100  H     H_    0.845198 0.781361 0.261226 0.123938
H101  H     H_    0.726372 0.902490 0.269076 0.145838
H102  H     H_    0.802044 0.883287 0.227698 0.156259

loop_
_geom_bond_atom_site_label_1
_geom_bond_atom_site_label_2
_ccdc_geom_bond_type
C8    C9    A    
C15   C18   A    
Cr1   O1    S    
O27   C121  S    
C127  H76   S    
C101  C102  A    
C22   C98   S    
C93   C97   A    
C134  H98   S    
C69   O31   S    
C41   C42   A    
C14   C18   A    
Cr3   O22   S    
C95   C96   A    
O30   C123  S    
C123  H60   S    
C85   O38   S    
C124  H63   S    
C72   C76   A    
C25   C118  S    
C132  H93   S    
C92   C93   A    
Cr4   O14   S    
C114  C115  A    
C9    H44   S    
C23   O16   A    
C48   C57   S    
O29   H57   S    
C56   C57   A    
C125  H65   S    
O46   C133  S    
C90   O40   S    
C59   C64   A    
C29   C30   A    
C83   C84   A    
C19   C39   S    
C66   C97   S    
Cr3   O23   S    
C28   C29   A    
O32   H64   S    
C21   C59   S    
C14   H47   S    
C77   C117  S    
C69   C70   A    
C109  C111  A    
C36   O30   S    
C54   C58   A    
C79   C84   A    
C80   C81   A    
C110  H39   S    
C98   C104  A    
C120  H43   S    
C128  H79   S    
C112  C116  A    
C16   C17   A    
C106  C107  A    
Cr5   O19   S    
O38   H74   S    
C55   O25   A    
C129  H83   S    
C92   C96   A    
C122  H56   S    
C108  C109  A    
C41   H8    S    
C7    O45   S    
O37   H73   S    
C2    C13   A    
O33   C125  S    
C118  C119  A    
Cr4   O13   S    
C75   C76   A    
C103  C104  A    
C122  H55   S    
C20   O9    A    
C46   C47   A    
Cr6   O19   S    
Cr2   O5    S    
C2    C110  A    
O36   H72   S    
C44   C58   S    
C34   H1    S    
C65   C67   A    
C133  H96   S    
C129  H82   S    
C12   C17   A    
C92   H26   S    
C47   C48   A    
C107  C108  A    
C131  H90   S    
C114  H40   S    
C70   C71   A    
C40   H3    S    
C22   O14   A    
C52   H11   S    
C126  H68   S    
C109  H35   S    
C42   C51   S    
C72   C73   A    
Cr6   O10   S    
C24   H10   S    
Cr1   O12   S    
C105  C111  A    
C45   H4    S    
C29   H46   S    
C4    H48   S    
O35   H71   S    
C129  H81   S    
C134  H99   S    
C1    C78   S    
C26   H29   S    
C61   C62   A    
C67   H18   S    
C27   O37   S    
C84   O35   S    
C125  H66   S    
O31   C124  S    
C126  H70   S    
C21   O11   A    
C54   C56   A    
C2    C31   S    
C85   C91   A    
C80   H23   S    
C54   H14   S    
C77   O4    A    
C74   C75   A    
C73   H22   S    
C67   C68   A    
C114  C117  A    
C135  H102  S    
C128  H78   S    
C35   C38   A    
C3    C11   S    
C123  H58   S    
C66   O2    A    
Cr4   O7    S    
C122  H54   S    
C3    C120  A    
C19   O7    A    
C6    C11   A    
C130  H85   S    
C86   C87   A    
C68   C69   A    
C128  H80   S    
C63   O33   S    
C94   C97   A    
C50   C51   A    
C10   H45   S    
C85   C86   A    
C55   O26   A    
C46   C51   A    
C81   C82   A    
C82   C91   S    
C53   H12   S    
C13   C24   A    
C60   C61   A    
C35   C36   A    
C135  H101  S    
C19   O8    A    
C61   H20   S    
Cr1   O24   S    
Cr4   O6    S    
C124  H61   S    
C60   H15   S    
C113  H37   S    
C32   H50   S    
Cr6   O18   S    
O48   C135  S    
C121  H53   S    
C33   O21   A    
C73   C78   A    
C87   C96   S    
C23   O17   A    
C62   C63   A    
C132  H91   S    
O47   C134  S    
C13   O28   S    
C83   O42   S    
Cr5   O15   S    
C95   O36   S    
C32   C37   A    
C104  H30   S    
C119  C120  A    
C43   H13   S    
C102  C111  S    
C126  H69   S    
O28   C122  S    
C3    C4    A    
C6    C7    A    
C75   H17   S    
C18   C55   S    
C113  C117  A    
C35   H2    S    
C74   O34   S    
C40   C41   A    
Cr3   O3    S    
C131  H89   S    
C5    O44   S    
C94   C95   A    
C98   C100  A    
C72   O32   S    
C87   C89   A    
C26   C27   A    
C30   O48   S    
C49   C50   A    
C133  H95   S    
C79   C80   A    
C42   C43   A    
O45   C132  S    
C65   H19   S    
O41   C129  S    
O43   H87   S    
C119  H41   S    
C134  H97   S    
C52   C53   A    
Cr1   O5    S    
C9    C10   A    
C1    O12   A    
C100  H28   S    
Cr2   O2    S    
C89   C90   A    
C127  H75   S    
Cr6   O11   S    
C99   O27   S    
C34   C38   A    
C66   O3    A    
C26   C31   A    
C24   C88   A    
C33   C38   S    
Cr2   O20   S    
Cr3   O4    S    
C123  H59   S    
C44   O1    A    
C130  H86   S    
Cr5   O9    S    
C53   C58   A    
C93   O41   S    
C103  H38   S    
C1    O20   A    
C108  H34   S    
C52   C57   A    
C15   H49   S    
C68   C76   S    
C106  H31   S    
C112  H36   S    
C105  C106  A    
C47   H6    S    
C8    C17   S    
C50   O29   S    
C39   C45   A    
C5    C118  A    
C124  H62   S    
O44   C131  S    
C23   C79   S    
C135  H100  S    
Cr2   O26   S    
C86   H24   S    
C12   C14   A    
C28   C37   S    
Cr1   O25   S    
C43   C45   A    
C105  H32   S    
C25   O13   A    
O42   C130  S    
C46   H7    S    
C121  H52   S    
C99   C110  A    
Cr6   O17   S    
C90   C91   A    
C30   C31   A    
C64   H16   S    
C33   O22   A    
C16   H42   S    
C94   H27   S    
C48   C49   A    
C4    C5    A    
C20   C88   S    
Cr4   O19   S    
O34   C126  S    
C132  H92   S    
C89   O39   S    
C62   C71   S    
Cr5   O16   S    
C112  C113  A    
C65   C71   A    
Cr2   O21   S    
C49   H9    S    
C102  C103  A    
C77   O24   A    
C107  C116  S    
O40   C128  S    
C88   C99   A    
C7    C8    A    
C10   C11   A    
C25   O18   A    
C20   O10   A    
C63   C64   A    
C39   C40   A    
C115  O43   S    
C59   C60   A    
C81   H25   S    
C121  H51   S    
C101  H33   S    
C44   O23   A    
C36   C37   A    
C82   C83   A    
C74   C78   A    
C12   O47   S    
C27   C28   A    
C130  H84   S    
C21   O6    A    
C133  H94   S    
Cr3   O5    S    
C100  C101  A    
C70   H21   S    
C115  C116  A    
C22   O15   A    
O39   C127  S    
C6    O46   S    
C125  H67   S    
C56   H5    S    
C15   C16   A    
C32   C34   A    
C131  H88   S    
Cr5   O8    S    
C127  H77   S    
