data_mof_unit_1696.cif
_audit_creation_date              2012-12-10T18:43:47-0500
_audit_creation_method            fapswitch 2.2
_symmetry_space_group_name_H-M    P1
_symmetry_Int_Tables_number       1
_space_group_crystal_system       triclinic
_cell_length_a                    10.795804
_cell_length_b                    10.559427
_cell_length_c                    9.983339
_cell_angle_alpha                 88.413563
_cell_angle_beta                  103.991793
_cell_angle_gamma                 91.906321
_cell_volume                      1103.47186464

loop_
_atom_site_label
_atom_site_type_symbol
_atom_type_description
_atom_site_fract_x
_atom_site_fract_y
_atom_site_fract_z
_atom_type_partial_charge
C1    C     C_R   0.501908 0.260839 0.501896 0.856556
C2    C     C_2   0.876734 0.484661 0.590536 -0.391432
C3    C     C_2   0.066639 0.460712 0.513321 -0.169487
C4    C     C_2   0.930960 0.461931 0.487624 -0.152765
C5    C     C_R   0.389273 0.063988 0.504933 -0.254452
C6    C     C_R   0.608439 0.936141 0.490729 -0.236057
C7    C     C_R   0.382555 0.932872 0.500269 0.156372
C8    C     C_R   0.615018 0.066308 0.496954 0.162320
C9    C     C_R   0.494674 0.871718 0.493903 -0.089037
C10   C     C_R   0.504012 0.128191 0.504808 -0.091623
C11   C     C_3   0.643389 0.696341 0.168559 -0.301162
C12   C     C_R   0.497835 0.739112 0.497903 0.861144
C13   C     C_3   0.560791 0.813163 0.133122 -0.826104
C14   C     C_3   0.349826 0.308074 0.827744 -0.319467
C15   C     C_3   0.426662 0.186279 0.847996 -0.863214
C16   C     C_3   0.789222 0.587897 0.931398 -0.279819
C17   C     C_3   0.332926 0.238672 0.138225 -0.228865
C18   C     C_3   0.260034 0.856332 0.500487 -0.385890
C19   C     C_3   0.142053 0.933403 0.498775 -0.899226
C20   C     C_3   0.741018 0.134931 0.499209 -0.397297
C21   C     C_3   0.764542 0.146822 0.354661 -0.859563
C22   C     C_R   0.259430 0.496346 0.442152 0.911639
C23   C     C_R   0.740490 0.497655 0.557939 0.917599
C24   C     C_R   0.577488 0.583502 0.087901 -0.018321
C25   C     C_R   0.423325 0.415183 0.912558 0.000632
C26   C     C_R   0.582606 0.577231 0.946229 0.527725
C27   C     C_R   0.419163 0.419884 0.055212 0.519668
C28   C     C_2   0.122478 0.483631 0.409762 -0.373516
H1    H     H_    0.875929 0.452384 0.381398 0.186615
H2    H     H_    0.668075 0.677360 0.280068 0.244264
H3    H     H_    0.736409 0.720539 0.145280 0.192806
H4    H     H_    0.524451 0.204679 0.833835 0.280079
H5    H     H_    0.437360 0.143531 0.951931 0.229126
H6    H     H_    0.376831 0.114845 0.772957 0.252421
H7    H     H_    0.256322 0.289648 0.853181 0.193786
H8    H     H_    0.324083 0.331892 0.717754 0.248869
H9    H     H_    0.852960 0.632486 0.870460 0.187113
H10   H     H_    0.778855 0.485052 0.907592 0.159770
H11   H     H_    0.838179 0.597395 0.041945 0.120939
H12   H     H_    0.120877 0.449996 0.619870 0.183306
H13   H     H_    0.295884 0.221116 0.231656 0.185424
H14   H     H_    0.434260 0.209355 0.162784 0.151561
H15   H     H_    0.273747 0.177112 0.057834 0.147548
H16   H     H_    0.157674 0.990821 0.593289 0.257423
H17   H     H_    0.118942 0.995943 0.405251 0.258974
H18   H     H_    0.058973 0.867843 0.496500 0.256655
H19   H     H_    0.236906 0.795366 0.408224 0.194338
H20   H     H_    0.277179 0.793207 0.593674 0.223598
H21   H     H_    0.769948 0.051560 0.312410 0.249786
H22   H     H_    0.686782 0.199881 0.284575 0.264061
H23   H     H_    0.932436 0.494239 0.696346 0.145352
H24   H     H_    0.856559 0.198780 0.359374 0.250564
H25   H     H_    0.744475 0.230713 0.542766 0.198358
H26   H     H_    0.820325 0.082431 0.567818 0.202536
H27   H     H_    0.067570 0.494715 0.303552 0.154254
H28   H     H_    0.306534 0.118025 0.507994 0.150437
H29   H     H_    0.692644 0.884404 0.486529 0.139367
H30   H     H_    0.552311 0.843044 0.023772 0.263895
H31   H     H_    0.463488 0.793099 0.148401 0.270291
H32   H     H_    0.605363 0.892621 0.199987 0.237226
N1    N     N_R   0.499970 0.499970 0.857200 -0.165926
N2    N     N_R   0.500030 0.500030 0.142800 -0.162533
O1    O     O_R   0.499990 0.316750 0.614620 -0.626869
O2    O     O_3   0.315150 0.367223 0.097766 -0.596598
O3    O     O_R   0.500010 0.683250 0.385380 -0.627706
O4    O     O_R   0.499990 0.316780 0.385290 -0.609128
O5    O     O_R   0.500010 0.683220 0.614710 -0.568265
O6    O     O_R   0.317810 0.500000 0.571850 -0.646822
O7    O     O_R   0.682190 0.500000 0.428150 -0.637107
O8    O     O_R   0.317810 0.500030 0.342520 -0.557886
O9    O     O_R   0.682190 0.499970 0.657480 -0.589686
O10   O     O_3   0.671211 0.650303 0.897052 -0.572021
Zn1   Zn    Zn3+2 0.500000 0.499980 0.653120 0.953642
Zn2   Zn    Zn3+2 0.500000 0.500020 0.346880 0.949804

loop_
_geom_bond_atom_site_label_1
_geom_bond_atom_site_label_2
_ccdc_geom_bond_type
O8    Zn2   S    
C2    C4    D    
C16   H10   S    
C19   H17   S    
C13   H31   S    
C27   N2    A    
C6    C8    A    
C25   C27   A    
C26   O10   S    
C12   O3    A    
C23   O7    A    
C15   H6    S    
C4    H1    S    
C16   O10   S    
C16   H9    S    
C7    C18   S    
C18   H19   S    
C2    C23   S    
C6    C9    A    
C21   H21   S    
C1    O4    A    
C19   H18   S    
C11   H3    S    
C5    C10   A    
C17   O2    S    
C13   H32   S    
C22   C28   S    
C19   H16   S    
C24   N2    A    
C11   C13   S    
C6    H29   S    
C22   O6    A    
C8    C20   S    
O5    Zn1   S    
C1    O1    A    
C8    C10   A    
C21   H22   S    
C12   O5    A    
C28   H27   S    
C15   H5    S    
C3    H12   S    
C5    C7    A    
C14   C25   S    
O7    Zn2   S    
C9    C12   S    
C17   H13   S    
C27   O2    S    
C1    C10   S    
C16   H11   S    
C3    C4    S    
O4    Zn2   S    
C23   O9    A    
C11   C24   S    
C15   H4    S    
C22   O8    A    
C20   C21   S    
C17   H15   S    
C20   H26   S    
C18   C19   S    
C2    H23   S    
O9    Zn1   S    
C14   H7    S    
C7    C9    A    
C14   C15   S    
C3    C28   D    
C14   H8    S    
C25   N1    A    
C13   H30   S    
C5    H28   S    
N1    Zn1   S    
O6    Zn1   S    
C17   H14   S    
O1    Zn1   S    
C26   N1    A    
C21   H24   S    
N2    Zn2   S    
O3    Zn2   S    
C11   H2    S    
C24   C26   A    
C20   H25   S    
C18   H20   S    
