data_mof_unit_4557.cif
_audit_creation_date              2012-12-11T16:48:33-0500
_audit_creation_method            fapswitch 2.2
_symmetry_space_group_name_H-M    P1
_symmetry_Int_Tables_number       1
_space_group_crystal_system       triclinic
_cell_length_a                    17.361462
_cell_length_b                    24.532301
_cell_length_c                    14.909071
_cell_angle_alpha                 89.755976
_cell_angle_beta                  125.808524
_cell_angle_gamma                 90.124849
_cell_volume                      5149.67252642

loop_
_atom_site_label
_atom_site_type_symbol
_atom_type_description
_atom_site_fract_x
_atom_site_fract_y
_atom_site_fract_z
_atom_type_partial_charge
C1    C     C_R   0.342152 0.351647 0.910493 0.510456
C2    C     C_R   0.433639 0.499600 0.631936 0.077778
C3    C     C_R   0.097384 0.878692 0.906549 -0.166617
C4    C     C_R   0.356297 0.325676 0.002545 -0.060570
C5    C     C_R   0.682039 0.358862 0.996374 -0.021593
C6    C     C_R   0.856232 0.825702 0.002518 -0.060480
C7    C     C_R   0.182025 0.858843 0.996383 -0.021486
C8    C     C_3   0.369829 0.285054 0.826064 0.156505
C9    C     C_3   0.333315 0.260252 0.713750 -0.236598
C10   C     C_3   0.381099 0.205736 0.726461 -1.012029
C11   C     C_3   0.683001 0.317963 0.219009 0.159619
C12   C     C_3   0.745599 0.282941 0.322549 -0.248559
C13   C     C_R   0.953313 0.998946 0.279255 0.068499
C14   C     C_3   0.688386 0.258292 0.360594 -1.067601
C15   C     C_3   0.869850 0.785097 0.826055 0.156562
C16   C     C_3   0.833313 0.760272 0.713750 -0.236672
C17   C     C_3   0.881095 0.705752 0.726480 -1.012001
C18   C     C_3   0.182869 0.817988 0.218992 0.159693
C19   C     C_3   0.245356 0.782891 0.322440 -0.248592
C20   C     C_3   0.188111 0.758401 0.360578 -1.067653
C21   C     C_3   0.009470 0.523406 0.394845 0.164507
C22   C     C_3   0.094794 0.484628 0.450702 -0.299860
C23   C     C_3   0.127273 0.473599 0.376960 -1.001128
C24   C     C_R   0.933635 0.999598 0.631940 0.077806
C25   C     C_3   0.060713 0.572681 0.778877 0.152771
C26   C     C_3   0.987461 0.556831 0.800276 -0.284657
C27   C     C_3   0.014812 0.579072 0.910812 -1.013848
C28   C     C_3   0.509475 0.023436 0.394818 0.164493
C29   C     C_3   0.594650 0.984551 0.450528 -0.300125
C30   C     C_3   0.627162 0.973578 0.376801 -1.001000
C31   C     C_3   0.560700 0.072676 0.778852 0.152771
C32   C     C_3   0.487457 0.056814 0.800257 -0.284644
C33   C     C_3   0.514805 0.079051 0.910794 -1.013887
C34   C     C_3   0.560865 0.280224 0.715305 -0.332871
C35   C     C_R   0.177597 0.500013 0.735431 -0.099046
C36   C     C_3   0.425911 0.250416 0.251641 -0.353776
C37   C     C_3   0.060861 0.780207 0.715306 -0.333099
C38   C     C_3   0.925622 0.750805 0.252237 -0.354435
C39   C     C_R   0.819851 0.499397 0.343665 -0.107754
C40   C     C_R   0.677593 0.000013 0.735413 -0.099069
C41   C     C_R   0.319865 0.999396 0.343631 -0.107644
C42   C     C_2   0.928220 0.465514 0.529985 -0.218349
C43   C     C_2   0.022787 0.458615 0.632881 -0.288781
C44   C     C_2   0.428224 0.965512 0.529948 -0.218370
C45   C     C_R   0.683493 0.368273 0.089286 0.519312
C46   C     C_2   0.522785 0.958614 0.632850 -0.288774
C47   C     C_2   0.913608 0.498688 0.448933 0.598965
C48   C     C_2   0.076316 0.501882 0.689944 0.629179
C49   C     C_2   0.413621 0.998687 0.448900 0.598957
C50   C     C_2   0.576310 0.001881 0.689919 0.629205
C51   C     C_R   0.386686 0.777925 0.051535 0.157201
C52   C     C_R   0.620643 0.763120 0.900242 0.174038
C53   C     C_R   0.886685 0.277927 0.051514 0.157173
C54   C     C_R   0.120680 0.263165 0.900361 0.174106
C55   C     C_R   0.338292 0.733500 0.983369 -0.027874
C56   C     C_R   0.842118 0.851663 0.910478 0.510339
C57   C     C_R   0.641304 0.738964 0.997179 -0.032358
C58   C     C_R   0.838282 0.233497 0.983369 -0.027878
C59   C     C_R   0.141377 0.238964 0.997279 -0.032401
C60   C     C_R   0.241073 0.738006 0.899691 -0.387229
C61   C     C_R   0.715919 0.761202 0.097641 -0.391804
C62   C     C_R   0.741062 0.238004 0.899699 -0.387213
C63   C     C_R   0.216090 0.261136 0.097760 -0.391759
C64   C     C_R   0.689564 0.281595 0.897337 0.612565
C65   C     C_R   0.290276 0.287263 0.103063 0.657549
C66   C     C_R   0.189565 0.781587 0.897339 0.612628
C67   C     C_R   0.183475 0.868253 0.089291 0.519261
C68   C     C_R   0.790085 0.787388 0.102980 0.657844
C69   C     C_R   0.737395 0.320575 0.983493 -0.104360
C70   C     C_R   0.280382 0.299594 0.003252 -0.133614
C71   C     C_R   0.237387 0.820560 0.983506 -0.104304
C72   C     C_R   0.780281 0.799643 0.003195 -0.133647
C73   C     C_R   0.441233 0.651278 0.089113 -0.144711
C74   C     C_R   0.552948 0.651363 0.908048 -0.148619
C75   C     C_R   0.941227 0.151277 0.089113 -0.144696
C76   C     C_R   0.052962 0.151370 0.908067 -0.148563
C77   C     C_R   0.836840 0.321205 0.051388 0.103072
C78   C     C_R   0.379477 0.681407 0.995105 0.141220
C79   C     C_R   0.189298 0.293533 0.904004 0.083591
C80   C     C_R   0.336831 0.821197 0.051410 0.102994
C81   C     C_R   0.689255 0.793499 0.903901 0.083637
C82   C     C_3   0.912358 0.333333 0.170588 -0.418377
C83   C     C_3   0.156045 0.275995 0.790818 -0.368937
C84   C     C_3   0.412328 0.833318 0.170622 -0.418441
C85   C     C_3   0.656133 0.775891 0.790800 -0.368831
C86   C     C_3   0.466724 0.784692 0.170460 -0.527266
C87   C     C_3   0.581795 0.742184 0.786855 -0.587830
C88   C     C_3   0.966743 0.284704 0.170426 -0.527317
C89   C     C_R   0.614474 0.683034 0.998618 0.127814
C90   C     C_3   0.081709 0.242295 0.786897 -0.587737
C91   C     C_R   0.393901 0.448800 0.466852 0.164276
C92   C     C_R   0.399854 0.448406 0.378656 0.177577
C93   C     C_R   0.894021 0.948783 0.466944 0.164264
C94   C     C_R   0.899989 0.948390 0.378762 0.178133
C95   C     C_R   0.396512 0.498146 0.515274 0.037187
C96   C     C_R   0.407031 0.497443 0.335485 0.030443
C97   C     C_R   0.896528 0.998132 0.515290 0.037177
C98   C     C_R   0.907073 0.997429 0.335524 0.030353
C99   C     C_R   0.378436 0.546444 0.454628 -0.205528
C100  C     C_R   0.879465 0.181404 0.995105 0.141216
C101  C     C_R   0.383226 0.546029 0.364045 -0.200574
C102  C     C_R   0.878393 0.046421 0.454600 -0.205618
C103  C     C_R   0.883196 0.046006 0.364026 -0.200597
C104  C     C_3   0.461585 0.398587 0.421551 -0.509057
C105  C     C_3   0.454153 0.398814 0.517030 -0.555382
C106  C     C_3   0.961861 0.898628 0.421774 -0.509531
C107  C     C_3   0.954405 0.898851 0.517230 -0.555438
C108  C     C_R   0.481311 0.453708 0.249692 -0.148126
C109  C     C_R   0.447272 0.454467 0.695035 -0.161406
C110  C     C_R   0.981326 0.953705 0.249704 -0.148121
C111  C     C_R   0.114496 0.183035 0.998655 0.127795
C112  C     C_R   0.947268 0.954466 0.695038 -0.161384
C113  C     C_R   0.233171 0.545286 0.756449 -0.082943
C114  C     C_R   0.765738 0.545254 0.288996 -0.079117
C115  C     C_R   0.733169 0.045286 0.756438 -0.082822
C116  C     C_R   0.265744 0.045254 0.288980 -0.079153
C117  C     C_R   0.482242 0.544982 0.251464 -0.122995
C118  C     C_R   0.452608 0.545073 0.696725 -0.127136
C119  C     C_R   0.982250 0.044981 0.251475 -0.123008
C120  C     C_R   0.952604 0.045073 0.696722 -0.127152
C121  C     C_R   0.233054 0.454176 0.756884 -0.178887
C122  C     C_R   0.453294 0.498950 0.279236 0.068472
C123  C     C_R   0.764108 0.453966 0.291239 -0.172908
C124  C     C_R   0.733050 0.954177 0.756871 -0.178934
C125  C     C_R   0.264122 0.953964 0.291209 -0.173163
C126  C     C_R   0.351967 0.650189 0.905587 -0.182976
C127  C     C_R   0.647913 0.651061 0.091475 -0.143194
C128  C     C_R   0.851958 0.150187 0.905586 -0.182990
C129  C     C_R   0.147920 0.151054 0.091494 -0.143294
C130  C     C_R   0.432530 0.352288 0.093067 -0.228921
C131  C     C_R   0.597387 0.378702 0.906545 -0.166503
C132  C     C_R   0.932496 0.852293 0.093052 -0.228536
H1    H     H_    0.202013 0.704285 0.844362 0.155157
H2    H     H_    0.207298 0.249436 0.790392 0.205617
H3    H     H_    0.062840 0.617863 0.774913 0.138673
H4    H     H_    0.133117 0.559608 0.849985 0.081566
H5    H     H_    0.916766 0.573259 0.732682 0.214728
H6    H     H_    0.982266 0.511688 0.800997 0.191988
H7    H     H_    0.083525 0.561306 0.979852 0.271064
H8    H     H_    0.959273 0.568060 0.922709 0.269463
H9    H     H_    0.021274 0.624168 0.912677 0.272741
H10   H     H_    0.530801 0.062633 0.377672 0.130568
H11   H     H_    0.450426 0.007010 0.312850 0.087749
H12   H     H_    0.654644 0.002815 0.529105 0.223414
H13   H     H_    0.391184 0.826586 0.226814 0.241528
H14   H     H_    0.575176 0.945260 0.469740 0.194171
H15   H     H_    0.568891 0.954662 0.297844 0.262779
H16   H     H_    0.688672 0.945225 0.419735 0.271252
H17   H     H_    0.649446 0.012158 0.358868 0.270073
H18   H     H_    0.562811 0.117859 0.774886 0.138675
H19   H     H_    0.633110 0.059611 0.849959 0.081567
H20   H     H_    0.416755 0.073235 0.732665 0.214726
H21   H     H_    0.482277 0.011669 0.800980 0.191986
H22   H     H_    0.583526 0.061291 0.979832 0.271076
H23   H     H_    0.459273 0.068029 0.922697 0.269463
H24   H     H_    0.707468 0.749334 0.790530 0.205562
H25   H     H_    0.521250 0.124148 0.912657 0.272727
H26   H     H_    0.566492 0.239016 0.689074 0.166364
H27   H     H_    0.600246 0.310707 0.700813 0.140481
H28   H     H_    0.484878 0.291874 0.661779 0.179290
H29   H     H_    0.443728 0.232877 0.197077 0.150703
H30   H     H_    0.388813 0.219611 0.268618 0.160498
H31   H     H_    0.493647 0.260493 0.331839 0.187484
H32   H     H_    0.066501 0.739000 0.689082 0.166358
H33   H     H_    0.100228 0.810696 0.700805 0.140545
H34   H     H_    0.984869 0.791846 0.661783 0.179290
H35   H     H_    0.533991 0.796320 0.182205 0.199522
H36   H     H_    0.943274 0.732847 0.197825 0.150736
H37   H     H_    0.888645 0.720267 0.269907 0.160711
H38   H     H_    0.993448 0.761097 0.332160 0.187359
H39   H     H_    0.508244 0.756663 0.723654 0.199191
H40   H     H_    0.033999 0.296326 0.182139 0.199533
H41   H     H_    0.008164 0.256815 0.723792 0.199200
H42   H     H_    0.472516 0.750844 0.223762 0.189411
H43   H     H_    0.594368 0.698175 0.782972 0.202498
H44   H     H_    0.972550 0.250863 0.223751 0.189414
H45   H     H_    0.726652 0.750018 0.174453 0.157668
H46   H     H_    0.094211 0.198290 0.782885 0.202450
H47   H     H_    0.372524 0.585285 0.484177 0.127900
H48   H     H_    0.380360 0.584594 0.326780 0.128314
H49   H     H_    0.872418 0.085259 0.484107 0.127935
H50   H     H_    0.880276 0.084567 0.326717 0.128350
H51   H     H_    0.425982 0.362820 0.366963 0.249137
H52   H     H_    0.523713 0.406403 0.597446 0.202579
H53   H     H_    0.926370 0.862824 0.367273 0.249303
H54   H     H_    0.023937 0.906500 0.597642 0.202642
H55   H     H_    0.535362 0.406360 0.448347 0.194987
H56   H     H_    0.701995 0.204281 0.844379 0.155160
H57   H     H_    0.413309 0.363562 0.515965 0.191698
H58   H     H_    0.035619 0.906468 0.448560 0.194984
H59   H     H_    0.913645 0.863564 0.516214 0.191679
H60   H     H_    0.483896 0.665238 0.173625 0.088824
H61   H     H_    0.500485 0.665084 0.824527 0.102820
H62   H     H_    0.983888 0.165237 0.173624 0.088829
H63   H     H_    0.000505 0.165097 0.824550 0.102781
H64   H     H_    0.468014 0.411821 0.256667 0.137760
H65   H     H_    0.422652 0.413533 0.665542 0.112920
H66   H     H_    0.968044 0.911816 0.256694 0.137984
H67   H     H_    0.226923 0.249903 0.174604 0.157815
H68   H     H_    0.922649 0.913531 0.665547 0.112921
H69   H     H_    0.211787 0.587362 0.747738 0.116089
H70   H     H_    0.784011 0.587150 0.315700 0.107059
H71   H     H_    0.711784 0.087363 0.747722 0.116069
H72   H     H_    0.284020 0.087149 0.315688 0.107077
H73   H     H_    0.471868 0.587144 0.262259 0.093143
H74   H     H_    0.436907 0.587049 0.669427 0.087021
H75   H     H_    0.971877 0.087142 0.262279 0.093151
H76   H     H_    0.936906 0.087048 0.669420 0.087032
H77   H     H_    0.211322 0.412351 0.748802 0.146894
H78   H     H_    0.948179 0.372903 0.181549 0.178778
H79   H     H_    0.781762 0.412788 0.322100 0.143641
H80   H     H_    0.711313 0.912353 0.748776 0.146948
H81   H     H_    0.281792 0.912783 0.322050 0.143647
H82   H     H_    0.314029 0.663602 0.820460 0.100744
H83   H     H_    0.688188 0.664102 0.176625 0.088382
H84   H     H_    0.814017 0.163601 0.820459 0.100753
H85   H     H_    0.188184 0.164083 0.176649 0.088425
H86   H     H_    0.476412 0.338746 0.177772 0.184052
H87   H     H_    0.572120 0.377959 0.821080 0.162707
H88   H     H_    0.976378 0.838727 0.177744 0.183915
H89   H     H_    0.125595 0.310160 0.730123 0.195323
H90   H     H_    0.072121 0.877949 0.821085 0.162715
H91   H     H_    0.873326 0.437438 0.514784 0.093938
H92   H     H_    0.053394 0.418332 0.646474 0.090914
H93   H     H_    0.373329 0.937435 0.514738 0.093969
H94   H     H_    0.553393 0.918332 0.646444 0.090949
H95   H     H_    0.371881 0.252701 0.880133 0.099369
H96   H     H_    0.443330 0.300385 0.864837 0.139632
H97   H     H_    0.255394 0.253553 0.665185 0.197185
H98   H     H_    0.346689 0.289195 0.666764 0.189119
H99   H     H_    0.459488 0.209977 0.780128 0.306687
H100  H     H_    0.448152 0.872887 0.181612 0.178830
H101  H     H_    0.358365 0.190957 0.644044 0.267715
H102  H     H_    0.360262 0.174996 0.763512 0.264373
H103  H     H_    0.625843 0.291772 0.151457 0.106030
H104  H     H_    0.650414 0.350803 0.237930 0.101955
H105  H     H_    0.777998 0.249564 0.304735 0.201896
H106  H     H_    0.803683 0.308391 0.390178 0.190788
H107  H     H_    0.656765 0.291084 0.380664 0.267165
H108  H     H_    0.735745 0.233131 0.435860 0.272789
H109  H     H_    0.630866 0.231905 0.294886 0.268505
H110  H     H_    0.871998 0.752748 0.880193 0.099379
H111  H     H_    0.625674 0.810016 0.730011 0.195416
H112  H     H_    0.943317 0.800466 0.864757 0.139641
H113  H     H_    0.755394 0.753571 0.665207 0.197233
H114  H     H_    0.846666 0.789203 0.666729 0.189061
H115  H     H_    0.959484 0.709992 0.780139 0.306721
H116  H     H_    0.858352 0.690962 0.644068 0.267690
H117  H     H_    0.860263 0.675022 0.763553 0.264370
H118  H     H_    0.125587 0.791867 0.151403 0.105968
H119  H     H_    0.150440 0.850879 0.238020 0.101997
H120  H     H_    0.277507 0.749429 0.304473 0.201868
H121  H     H_    0.303622 0.808252 0.390078 0.190872
H122  H     H_    0.891241 0.326615 0.226807 0.241530
H123  H     H_    0.156809 0.791281 0.380892 0.267092
H124  H     H_    0.235369 0.733141 0.435717 0.272816
H125  H     H_    0.130349 0.732144 0.294823 0.268541
H126  H     H_    0.030635 0.562610 0.377514 0.130529
H127  H     H_    0.950475 0.506875 0.312956 0.087730
H128  H     H_    0.154748 0.503005 0.529161 0.223354
H129  H     H_    0.075499 0.445344 0.470154 0.194235
H130  H     H_    0.069049 0.454563 0.298131 0.262788
H131  H     H_    0.188900 0.445331 0.420010 0.271265
H132  H     H_    0.149367 0.512176 0.358775 0.270077
N1    N     N_R   0.395410 0.396350 0.944340 -0.082395
N2    N     N_R   0.474920 0.471030 0.794350 -0.037641
N3    N     N_R   0.025080 0.971030 0.205650 -0.041074
N4    N     N_R   0.974920 0.971030 0.794350 -0.037643
N5    N     N_R   0.320260 0.527820 0.794570 -0.044851
N6    N     N_R   0.679740 0.527820 0.205430 -0.041577
N7    N     N_R   0.820260 0.027820 0.794570 -0.044849
N8    N     N_R   0.179740 0.027820 0.205430 -0.041557
N9    N     N_R   0.524590 0.527840 0.205200 -0.039674
N10   N     N_R   0.475410 0.527840 0.794800 -0.040980
N11   N     N_R   0.024590 0.027840 0.205200 -0.039669
N12   N     N_R   0.604590 0.396350 0.055660 -0.117664
N13   N     N_R   0.975410 0.027840 0.794800 -0.040979
N14   N     N_R   0.320750 0.471000 0.795020 -0.023324
N15   N     N_R   0.679250 0.471000 0.204980 -0.038255
N16   N     N_R   0.820750 0.971000 0.795020 -0.023329
N17   N     N_R   0.179250 0.971000 0.204980 -0.038255
N18   N     N_R   0.393620 0.602490 0.942710 -0.041012
N19   N     N_R   0.606380 0.602490 0.057290 -0.041456
N20   N     N_R   0.893620 0.102490 0.942710 -0.041015
N21   N     N_R   0.106380 0.102490 0.057290 -0.041448
N22   N     N_R   0.451720 0.396350 0.057510 -0.079713
N23   N     N_R   0.895410 0.896350 0.944340 -0.082420
N24   N     N_R   0.548280 0.396350 0.942490 -0.081273
N25   N     N_R   0.951720 0.896350 0.057510 -0.079750
N26   N     N_R   0.048280 0.896350 0.942490 -0.081288
N27   N     N_R   0.104590 0.896350 0.055660 -0.117681
N28   N     N_R   0.449930 0.602500 0.055880 -0.039133
N29   N     N_R   0.550070 0.602500 0.944120 -0.040872
N30   N     N_R   0.949930 0.102500 0.055880 -0.039130
N31   N     N_R   0.050070 0.102500 0.944120 -0.040871
N32   N     N_R   0.525080 0.471030 0.205650 -0.041048
Ni1   Ni    Ni4+2 0.435420 0.434270 0.870230 0.227094
Ni2   Ni    Ni4+2 0.564580 0.434270 0.129770 0.186704
Ni3   Ni    Ni4+2 0.935420 0.934270 0.870230 0.227052
Ni4   Ni    Ni4+2 0.064580 0.934270 0.129770 0.186675
Ni5   Ni    Ni4+2 0.563430 0.564580 0.128740 0.206673
Ni6   Ni    Ni4+2 0.436570 0.564580 0.871260 0.202980
Ni7   Ni    Ni4+2 0.063430 0.064580 0.128740 0.206691
Ni8   Ni    Ni4+2 0.936570 0.064580 0.871260 0.202998
O1    O     O_3   0.308513 0.327950 0.809887 -0.698542
O2    O     O_3   0.372029 0.298690 0.206063 -0.646649
O3    O     O_3   0.091188 0.779619 0.826358 -0.634318
O4    O     O_3   0.871696 0.799019 0.205970 -0.646616
O5    O     O_3   0.739661 0.340410 0.188500 -0.701648
O6    O     O_3   0.808482 0.827961 0.809878 -0.698561
O7    O     O_3   0.239574 0.840349 0.188468 -0.701624
O8    O     O_3   0.983564 0.534570 0.467126 -0.624710
O9    O     O_3   0.033080 0.551973 0.675483 -0.619751
O10   O     O_3   0.483574 0.034577 0.467112 -0.624697
O11   O     O_3   0.533071 0.051971 0.675458 -0.619739
O12   O     O_3   0.591187 0.279632 0.826355 -0.634348

loop_
_geom_bond_atom_site_label_1
_geom_bond_atom_site_label_2
_ccdc_geom_bond_type
C63   C65   A    
C61   H45   S    
C109  H65   S    
C19   C20   S    
C84   H13   S    
N3    N11   A    
N15   Ni2   S    
C38   H37   S    
C62   H56   S    
C118  H74   S    
C84   C86   S    
N4    Ni3   S    
C14   H107  S    
C95   C99   A    
C19   H120  S    
C106  C107  S    
C67   N27   A    
N8    N17   A    
C51   C80   A    
C62   C64   A    
C125  H81   S    
C115  H71   S    
C59   C111  S    
N23   N25   A    
C113  H69   S    
C44   H93   S    
C112  N4    A    
N19   Ni5   S    
C12   H106  S    
C15   H110  S    
C21   C22   S    
N10   Ni6   S    
C41   C49   S    
C110  N3    A    
C116  H72   S    
C44   C46   S    
C11   H103  S    
C24   C120  A    
C120  H76   S    
C41   C125  A    
C58   C100  S    
C6    C132  A    
C29   H14   S    
C31   H18   S    
C30   H17   S    
C4    C130  A    
C17   H116  S    
C29   H12   S    
N4    N13   A    
C47   O8    S    
C86   H42   S    
N9    N32   A    
N6    N15   A    
C6    C72   S    
C76   H63   S    
C23   H131  S    
C68   C72   A    
C87   H39   S    
N21   N31   A    
N30   Ni7   S    
C57   C89   S    
N18   N28   A    
C99   C101  A    
C3    H90   S    
C36   H29   S    
C20   H123  S    
C39   C47   S    
C54   C79   A    
C89   C127  A    
C10   H101  S    
C70   C79   A    
C59   C63   A    
C53   C58   A    
C57   C61   A    
C45   N12   A    
C117  H73   S    
C11   O5    S    
C129  N21   A    
C127  H83   S    
N5    Ni6   S    
C77   C82   S    
C27   H9    S    
C35   C113  A    
C73   N28   A    
C51   C55   A    
C105  H52   S    
C84   H100  S    
N18   Ni6   S    
C83   H89   S    
C104  H51   S    
C17   H115  S    
C22   C23   S    
C112  H68   S    
C2    C109  A    
C91   C105  S    
C69   C77   A    
C24   C112  A    
C130  N22   A    
C26   H5    S    
C8    H96   S    
C36   O2    S    
C30   H15   S    
C113  N5    A    
C54   C90   S    
C75   N30   A    
C115  N7    A    
C65   C70   A    
C92   C96   A    
C130  H86   S    
C19   H121  S    
C21   O8    S    
C5    C69   S    
C9    C10   S    
C20   H125  S    
N13   Ni8   S    
C34   H27   S    
C25   H3    S    
N17   Ni4   S    
N6    Ni5   S    
C54   C59   A    
C132  N25   A    
C40   C124  A    
C102  C103  A    
N3    Ni4   S    
C76   N31   A    
C91   C92   A    
C55   C78   S    
C92   C104  S    
C21   H127  S    
C37   H33   S    
C22   H128  S    
C25   C26   S    
C1    O1    S    
C27   H7    S    
C9    H98   S    
C132  H88   S    
C117  C122  A    
C29   C30   S    
C31   H19   S    
C31   C32   S    
C32   H20   S    
N20   N30   A    
C18   H119  S    
N28   Ni5   S    
C64   C69   A    
N27   Ni4   S    
C56   O6    S    
C128  H84   S    
C37   H32   S    
C50   O11   S    
C125  N17   A    
C37   O3    S    
C38   O4    S    
C128  N20   A    
C93   C97   A    
C118  N10   A    
C100  C128  A    
C68   O4    S    
C97   C102  A    
N12   Ni2   S    
C33   H23   S    
C87   H43   S    
C88   H44   S    
C101  H48   S    
C34   O12   S    
C120  N13   A    
N19   N29   A    
C76   C111  A    
C82   C88   S    
C17   H117  S    
C52   C81   A    
C73   H60   S    
C65   O2    S    
C123  N15   A    
C7    C67   A    
C75   H62   S    
C119  H75   S    
C107  H59   S    
C106  H58   S    
C3    N26   A    
C96   C101  A    
C81   C85   S    
C49   O10   S    
C82   H78   S    
C58   C62   A    
C90   H46   S    
C110  H66   S    
C80   C84   S    
C4    C70   S    
C2    C118  A    
C16   H113  S    
C38   H36   S    
C107  H54   S    
C26   C27   S    
N23   Ni3   S    
N21   Ni7   S    
C28   C29   S    
C3    C7    A    
C131  N24   A    
C40   C115  A    
C94   C98   A    
C98   C103  A    
C39   C123  A    
N26   N27   A    
C104  H55   S    
C104  C105  S    
C83   H2    S    
C129  H85   S    
C126  H82   S    
C111  C129  A    
C94   C106  S    
C16   C17   S    
N24   Ni1   S    
C114  H70   S    
C38   H38   S    
C28   O10   S    
C108  H64   S    
C72   C81   A    
N32   Ni2   S    
C74   H61   S    
C60   C66   A    
C55   C60   A    
N2    Ni1   S    
C36   H30   S    
N7    Ni8   S    
C35   C48   S    
C114  N6    A    
C51   C86   S    
C33   H25   S    
C20   H124  S    
C124  N16   A    
C10   H102  S    
N26   Ni3   S    
C24   C97   S    
C35   C121  A    
C121  N14   A    
C108  C122  A    
C18   C19   S    
C124  H80   S    
C5    C45   A    
C85   H24   S    
C53   C77   A    
C99   H47   S    
C105  H57   S    
C66   O3    S    
C66   C71   A    
C28   H11   S    
C117  N9    A    
N7    N16   A    
C42   C43   S    
C78   C126  A    
N12   N24   A    
C31   O11   S    
C11   H104  S    
C8    O1    S    
C102  H49   S    
C74   N29   A    
C106  H53   S    
C26   H6    S    
C30   H16   S    
N1    Ni1   S    
C96   C122  S    
C32   C33   S    
C45   O5    S    
C79   C83   S    
C25   O9    S    
C23   H132  S    
N2    N10   A    
C40   C50   S    
C126  N18   A    
C10   H99   S    
C52   C57   A    
C119  N11   A    
C32   H21   S    
C15   O6    S    
C5    C131  A    
N16   Ni3   S    
C82   H122  S    
C116  N8    A    
C60   H1    S    
C34   H28   S    
C44   C49   D    
C14   H108  S    
C93   C94   A    
C88   H40   S    
C103  H50   S    
C108  N32   A    
C90   H41   S    
C18   O7    S    
C74   C89   A    
C131  H87   S    
C2    C95   S    
N9    Ni5   S    
C7    C71   S    
N11   Ni7   S    
C21   H126  S    
N14   Ni1   S    
C22   H129  S    
C15   C16   S    
C85   H111  S    
C9    H97   S    
C127  N19   A    
C13   C98   S    
C25   H4    S    
C8    C9    S    
C123  H79   S    
C73   C78   A    
C121  H77   S    
C56   N23   A    
C43   C48   D    
C64   O12   S    
N8    Ni7   S    
C71   C80   A    
C13   C119  A    
C8    H95   S    
C85   C87   S    
C33   H22   S    
C23   H130  S    
C91   C95   A    
C13   C110  A    
C36   H31   S    
C14   H109  S    
C39   C114  A    
C46   H94   S    
C48   O9    S    
N1    N22   A    
C34   H26   S    
C12   C14   S    
C28   H10   S    
C41   C116  A    
C42   H91   S    
C83   C90   S    
C15   H112  S    
N20   Ni8   S    
N25   Ni4   S    
C52   C87   S    
C86   H35   S    
C6    C56   A    
C109  N2    A    
C11   C12   S    
C37   H34   S    
C16   H114  S    
C46   C50   D    
C27   H8    S    
C1    C4    A    
C43   H92   S    
C93   C107  S    
C61   C68   A    
C67   O7    S    
C18   H118  S    
C12   H105  S    
C75   C100  A    
C63   H67   S    
N5    N14   A    
C53   C88   S    
C42   C47   D    
C1    N1    A    
N22   Ni2   S    
N29   Ni6   S    
N31   Ni8   S    
