data_mof_unit_4901.cif
_audit_creation_date              2013-03-05T16:35:29-0500
_audit_creation_method            fapswitch 2.2
_symmetry_space_group_name_H-M    P1
_symmetry_Int_Tables_number       1
_space_group_crystal_system       triclinic
_cell_length_a                    10.719157
_cell_length_b                    14.969856
_cell_length_c                    14.263272
_cell_angle_alpha                 88.673351
_cell_angle_beta                  89.333885
_cell_angle_gamma                 91.061653
_cell_volume                      2287.57239403

loop_
_atom_site_label
_atom_site_type_symbol
_atom_site_description
_atom_site_fract_x
_atom_site_fract_y
_atom_site_fract_z
_atom_type_partial_charge
O1    O     O_R   0.500010 0.369070 0.579480 -0.569684
O2    O     O_R   0.499990 0.630930 0.420520 -0.572637
O3    O     O_R   0.500010 0.369060 0.420520 -0.641742
O4    O     O_R   0.499990 0.630940 0.579480 -0.644806
C1    C     C_R   0.498353 0.327805 0.500771 0.864717
C2    C     C_R   0.498876 0.672122 0.499252 0.872269
O5    O     O_R   0.316760 0.500010 0.579480 -0.593642
O6    O     O_R   0.683240 0.499990 0.420520 -0.577510
O7    O     O_R   0.316760 0.500000 0.420520 -0.619086
O8    O     O_R   0.683240 0.500000 0.579480 -0.616433
C3    C     C_R   0.260484 0.502608 0.500378 0.878345
C4    C     C_R   0.739882 0.496928 0.499993 0.889040
Zn1   Zn    Zn3+2 0.500000 0.500010 0.606140 0.998086
Zn2   Zn    Zn3+2 0.500000 0.499990 0.393860 0.999651
C5    C     C_R   0.256823 0.733743 0.311653 -0.234879
C6    C     C_R   0.783192 0.285185 0.740555 -0.166115
H1    H     H_    0.308947 0.791217 0.335156 0.146206
H2    H     H_    0.752816 0.215892 0.738737 0.158868
C7    C     C_R   0.195135 0.680185 0.379606 -0.194596
C8    C     C_R   0.834043 0.326389 0.659446 -0.259002
H3    H     H_    0.201021 0.697877 0.452674 0.131116
H4    H     H_    0.842370 0.288587 0.595911 0.148071
C9    C     C_R   0.127195 0.603900 0.353802 0.156861
C10   C     C_R   0.875914 0.415447 0.661042 0.159577
C11   C     C_R   0.120630 0.582291 0.258948 -0.228539
C12   C     C_R   0.864137 0.463446 0.743778 -0.173122
H5    H     H_    0.068284 0.523678 0.237974 0.143204
H6    H     H_    0.895209 0.532653 0.745563 0.153068
C13   C     C_R   0.183666 0.635207 0.190926 -0.213914
C14   C     C_R   0.811477 0.422810 0.824416 -0.304794
H7    H     H_    0.179393 0.616659 0.118111 0.135161
H8    H     H_    0.800966 0.463000 0.885911 0.143892
C15   C     C_R   0.251306 0.712010 0.215617 0.638534
C16   C     C_R   0.773019 0.331778 0.824371 0.637803
C17   C     C_R   0.936560 0.537136 0.425444 -0.229297
C18   C     C_R   0.065381 0.462749 0.576148 -0.229186
H9    H     H_    0.887083 0.567513 0.367991 0.219823
H10   H     H_    0.116120 0.432011 0.633429 0.206442
C19   C     C_R   0.872810 0.494948 0.500549 -0.097744
C20   C     C_R   0.128259 0.505543 0.501288 -0.096884
C21   C     C_R   0.937245 0.458143 0.577599 0.002000
C22   C     C_R   0.064327 0.546319 0.426753 0.004240
C23   C     C_R   0.523834 0.090560 0.579412 -0.161058
C24   C     C_R   0.531046 0.910247 0.422394 -0.201696
H11   H     H_    0.558985 0.052730 0.638838 0.147141
H12   H     H_    0.570778 0.949261 0.364086 0.149386
C25   C     C_R   0.531414 0.182764 0.579314 -0.133346
C26   C     C_R   0.539125 0.818303 0.422487 -0.184362
H13   H     H_    0.572166 0.215620 0.638470 0.187781
H14   H     H_    0.584657 0.786927 0.364337 0.229186
C27   C     C_R   0.489954 0.231774 0.501641 -0.031291
C28   C     C_R   0.490914 0.767856 0.498558 -0.041423
C29   C     C_R   0.439750 0.188618 0.424126 -0.181628
C30   C     C_R   0.434180 0.809246 0.574659 -0.203069
H15   H     H_    0.406091 0.225993 0.363875 0.156661
H16   H     H_    0.395467 0.770590 0.633606 0.148623
C31   C     C_R   0.432312 0.096463 0.424086 -0.175836
C32   C     C_R   0.426542 0.901197 0.574811 -0.164172
H17   H     H_    0.394008 0.063214 0.363862 0.134205
H18   H     H_    0.383047 0.933137 0.633907 0.144713
C33   C     C_R   0.475096 0.047607 0.501471 0.102522
C34   C     C_R   0.475575 0.951532 0.498898 0.112777
C35   C     C_R   0.418434 0.438783 0.109239 0.453939
C36   C     C_R   0.508248 0.582464 0.891425 0.437497
C37   C     C_R   0.428812 0.437816 0.208166 -0.169809
C38   C     C_R   0.518388 0.578324 0.792655 -0.187095
H19   H     H_    0.375547 0.388934 0.249805 0.171361
H20   H     H_    0.535131 0.639359 0.752201 0.180634
N1    N     N_R   0.500000 0.499980 0.252470 -0.169683
N2    N     N_R   0.500000 0.500020 0.747530 -0.165319
C39   C     C_R   0.561894 0.565335 0.199736 0.418478
C40   C     C_R   0.473735 0.423350 0.799517 0.412296
C41   C     C_R   0.564306 0.562487 0.101536 -0.321021
C42   C     C_R   0.479852 0.422915 0.897840 -0.308438
H21   H     H_    0.624248 0.609963 0.063627 0.241261
H22   H     H_    0.469058 0.359786 0.935492 0.265772
C43   C     C_R   0.491306 0.500767 0.053352 -0.021349
C44   C     C_R   0.493501 0.502477 0.946657 -0.036395
O9    O     O_3   0.314164 0.759271 0.143592 -0.617052
C45   C     C_3   0.337373 0.849736 0.164302 -0.280508
H23   H     H_    0.417390 0.856186 0.212649 0.195455
H24   H     H_    0.252808 0.882135 0.192879 0.145361
H25   H     H_    0.363936 0.886174 0.098262 0.194542
O10   O     O_3   0.718199 0.286406 0.901125 -0.592325
C46   C     C_3   0.762506 0.317236 0.987623 -0.315810
H26   H     H_    0.715589 0.379846 0.006918 0.164990
H27   H     H_    0.865913 0.326183 0.987293 0.151192
H28   H     H_    0.738132 0.266374 0.042925 0.207502
O11   O     O_3   0.338869 0.377402 0.069118 -0.607269
C47   C     C_3   0.222290 0.417499 0.055995 -0.303102
H29   H     H_    0.230388 0.478877 0.010536 0.155053
H30   H     H_    0.177998 0.432800 0.124463 0.151835
H31   H     H_    0.159813 0.369565 0.020245 0.202807
O12   O     O_3   0.513313 0.665077 0.932424 -0.607836
C48   C     C_3   0.393865 0.702677 0.927700 -0.200614
H32   H     H_    0.397714 0.769003 0.960660 0.225744
H33   H     H_    0.323355 0.660487 0.967079 0.163635
H34   H     H_    0.364339 0.713552 0.853753 0.121105
N3    N     N_R   0.616828 0.642213 0.241733 0.208537
O13   O     O_R   0.704586 0.633191 0.302665 -0.427206
O14   O     O_R   0.601501 0.720544 0.202507 -0.414003
N4    N     N_R   0.426554 0.344670 0.756381 0.217844
O15   O     O_R   0.323637 0.349602 0.709301 -0.392719
O16   O     O_R   0.461633 0.266626 0.786967 -0.407761

loop_
_geom_bond_atom_site_label_1
_geom_bond_atom_site_label_2
_geom_bond_distance
_ccdc_geom_bond_type
C32   C34   1.396681 A    
C38   H20   1.080308 S    
C35   C37   1.416455 A    
C17   C19   1.396079 A    
C48   H32   1.108654 S    
C48   H34   1.113916 S    
C25   H13   1.079122 S    
C46   H26   1.110548 S    
C5    C7    1.396055 A    
C9    C22   1.483398 S    
C42   H22   1.079760 S    
O1    C1    1.293995 A    
C7    H3    1.083493 S    
C10   C12   1.401422 A    
C30   C32   1.380487 A    
C31   H17   1.083788 S    
Zn1   N2    2.016688 S    
C32   H18   1.083631 S    
C13   C15   1.401925 A    
O4    Zn1   1.987890 S    
N1    C39   1.375996 A    
C17   C22   1.374287 A    
C6    C16   1.402138 A    
C8    C10   1.399588 A    
C24   H12   1.083605 S    
C37   H19   1.081996 S    
C6    C8    1.398494 A    
C26   H14   1.078834 S    
C10   C21   1.479260 S    
C41   H21   1.080512 S    
C18   C21   1.373857 A    
O2    C2    1.293633 A    
C16   O10   1.393184 S    
C45   H25   1.109100 S    
C28   C30   1.400608 A    
O5    C3    1.285698 A    
C29   H15   1.083584 S    
C11   C13   1.398107 A    
C30   H16   1.083715 S    
C14   C16   1.416410 A    
C46   H27   1.113977 S    
N4    O15   1.300521 A    
C18   C20   1.392966 A    
O10   C46   1.411587 S    
C40   C42   1.404564 A    
C39   C41   1.402251 A    
C29   C31   1.380381 A    
C15   O9    1.393723 S    
C25   C27   1.396086 A    
C24   C34   1.398562 A    
C43   C44   1.521340 S    
C39   N3    1.430036 S    
C27   C29   1.401213 A    
C36   C38   1.414593 A    
C7    C9    1.401715 A    
O7    Zn2   1.996307 S    
O7    C3    1.284430 A    
C47   H30   1.111379 S    
N3    O13   1.294887 A    
C26   C28   1.396132 A    
O6    C4    1.292399 A    
C35   O11   1.380526 S    
O12   C48   1.409853 S    
N4    O16   1.301210 A    
C23   H11   1.083614 S    
O3    Zn2   1.987890 S    
O8    C4    1.282021 A    
O4    C2    1.287475 A    
N3    O14   1.301511 A    
C8    H4    1.083116 S    
C12   C14   1.396895 A    
Zn2   N1    2.016687 S    
O1    Zn1   2.005322 S    
C23   C33   1.398713 A    
C47   H31   1.109267 S    
C35   C43   1.425116 A    
C46   H28   1.109141 S    
C5    H1    1.079205 S    
O6    Zn2   2.004984 S    
C17   H9    1.077666 S    
C36   C44   1.423285 A    
C45   H23   1.110992 S    
O3    C1    1.287751 A    
O8    Zn1   1.996306 S    
C48   H33   1.114279 S    
C31   C33   1.396543 A    
C11   H5    1.082605 S    
C12   H6    1.083299 S    
C4    C19   1.425834 S    
C18   H10   1.085001 S    
C36   O12   1.380620 S    
C13   H7    1.082508 S    
C14   H8    1.081046 S    
C3    C20   1.418754 S    
C47   H29   1.113696 S    
C38   N2    1.362526 A    
C40   N4    1.428391 S    
C37   N1    1.363710 A    
C20   C22   1.405291 A    
C45   H24   1.113506 S    
C9    C11   1.400578 A    
C33   C34   1.439655 S    
O2    Zn2   2.005322 S    
O9    C45   1.410985 S    
O5    Zn1   2.004985 S    
C19   C21   1.411431 A    
C6    H2    1.082423 S    
C42   C44   1.399679 A    
C41   C43   1.397653 A    
C1    C27   1.438472 S    
N2    C40   1.374837 A    
C2    C28   1.437056 S    
O11   C47   1.408874 S    
C23   C25   1.381129 A    
C5    C15   1.416850 A    
C24   C26   1.380684 A    
