data_mof_unit_3928.cif
_audit_creation_date              2012-12-11T19:54:09-0500
_audit_creation_method            fapswitch 2.2
_symmetry_space_group_name_H-M    P1
_symmetry_Int_Tables_number       1
_space_group_crystal_system       triclinic
_cell_length_a                    8.271716
_cell_length_b                    16.058047
_cell_length_c                    17.33969
_cell_angle_alpha                 112.354274
_cell_angle_beta                  82.841323
_cell_angle_gamma                 96.263676
_cell_volume                      2108.71583758

loop_
_atom_site_label
_atom_site_type_symbol
_atom_type_description
_atom_site_fract_x
_atom_site_fract_y
_atom_site_fract_z
_atom_type_partial_charge
Ba1   Ba    Ba6+2 0.325860 0.460280 0.530510 1.713980
Ba2   Ba    Ba6+2 0.863950 0.539650 0.469460 1.708177
C1    C     C_3   0.023641 0.146862 0.685996 -0.272095
C2    C     C_3   0.813998 0.428513 0.757174 -0.053457
C3    C     C_2   0.766342 0.450449 0.848958 -0.066963
C4    C     C_3   0.496645 0.269544 0.704415 0.361131
C5    C     C_2   0.636174 0.499916 0.886377 0.015759
C6    C     C_2   0.556477 0.539961 0.836033 -0.119429
C7    C     C_1   0.624239 0.536795 0.761085 -0.023800
C8    C     C_R   0.402674 0.534225 0.146096 -0.124838
C9    C     C_R   0.343243 0.547009 0.228503 0.011612
C10   C     C_R   0.566755 0.468822 0.242267 0.056081
C11   C     C_R   0.626292 0.455250 0.158963 -0.110917
C12   C     C_3   0.022182 0.232881 0.668760 0.290429
C13   C     C_R   0.546971 0.489557 0.110537 0.009165
C14   C     C_2   0.572182 0.517776 0.975653 -0.069500
C15   C     C_2   0.612032 0.472313 0.021816 -0.067036
C16   C     C_3   0.462762 0.241011 0.779544 0.253285
C17   C     C_R   0.428169 0.517231 0.277033 -0.287136
C18   C     C_2   0.395633 0.764177 0.528937 -0.254423
C19   C     C_R   0.807463 0.248138 0.480469 -0.304600
C20   C     C_2   0.212890 0.886381 0.602136 -0.115039
C21   C     C_2   0.242327 0.799367 0.579161 -0.047734
C22   C     C_2   0.521839 0.820103 0.518544 0.002764
C23   C     C_3   0.185282 0.768599 0.764723 0.629785
C24   C     C_3   0.511373 0.920921 0.565631 0.093460
C25   C     C_3   0.335459 0.950387 0.577950 0.043558
C26   C     C_2   0.637080 0.978243 0.533464 -0.030421
C27   C     C_2   0.598673 0.033534 0.497769 -0.073167
C28   C     C_3   0.669540 0.261741 0.318001 0.296323
C29   C     C_R   0.873963 0.068461 0.436878 -0.001940
C30   C     C_R   0.721643 0.097739 0.477956 -0.029626
C31   C     C_R   0.989706 0.127591 0.414910 -0.133430
C32   C     C_R   0.955965 0.217520 0.435939 0.066288
C33   C     C_R   0.687206 0.188090 0.498392 0.000828
C34   C     C_3   0.248397 0.868416 0.790430 0.242222
C35   C     C_3   0.663082 0.159334 0.276626 -0.347966
C36   C     C_3   0.686511 0.744681 0.749532 0.594728
C37   C     C_3   0.713218 0.774944 0.842411 0.326343
C38   C     C_3   0.203203 0.331103 0.267551 0.295105
C39   C     C_3   0.225044 0.300485 0.172597 -0.345171
C40   C     C_3   0.705337 0.721176 0.296250 0.322755
C41   C     C_3   0.717199 0.747711 0.220328 -0.334979
C42   C     C_3   0.200756 0.769141 0.341889 0.338006
C43   C     C_3   0.203005 0.862033 0.337457 -0.347620
C44   C     C_2   0.763838 0.499153 0.728680 -0.154067
Cl1   Cl    Cl    0.705168 0.840659 0.719886 -0.586497
Cl2   Cl    Cl    0.577189 0.855855 0.910539 -0.533355
Cl3   Cl    Cl    0.087047 0.943270 0.822387 -0.536803
Cl4   Cl    Cl    0.542711 0.134556 0.756522 -0.623489
H1    H     H_    0.098576 0.225449 0.609412 0.089286
H2    H     H_    0.149906 0.134213 0.691688 0.158855
H3    H     H_    0.299895 0.240920 0.145777 0.151908
H4    H     H_    0.287226 0.355261 0.153634 0.055759
H5    H     H_    0.103972 0.282139 0.146984 0.141684
H6    H     H_    0.894099 0.240221 0.660767 -0.034291
H7    H     H_    0.973712 0.088592 0.633670 0.074860
H8    H     H_    0.279019 0.725002 0.725148 -0.001135
H9    H     H_    0.325736 0.887832 0.842885 0.177255
H10   H     H_    0.326717 0.879255 0.738067 0.015277
H11   H     H_    0.947110 0.152697 0.744948 0.182075
H12   H     H_    0.760904 0.138470 0.224365 0.151754
H13   H     H_    0.521646 0.292043 0.833726 -0.004115
H14   H     H_    0.788269 0.666351 0.282407 0.102314
H15   H     H_    0.577548 0.695924 0.307006 -0.050488
H16   H     H_    0.844317 0.772666 0.207426 0.153506
H17   H     H_    0.682406 0.688249 0.164727 0.084854
H18   H     H_    0.633406 0.801627 0.231959 0.120878
H19   H     H_    0.327926 0.755727 0.345437 -0.065367
H20   H     H_    0.124916 0.770249 0.399760 0.081656
H21   H     H_    0.254220 0.913796 0.393801 0.056715
H22   H     H_    0.076945 0.878069 0.334943 0.148643
H23   H     H_    0.680633 0.129215 0.322564 0.050902
H24   H     H_    0.449382 0.337246 0.722229 -0.004267
H25   H     H_    0.279949 0.863860 0.280788 0.127989
H26   H     H_    0.696350 0.419499 0.994415 0.084061
H27   H     H_    0.441887 0.570758 0.861218 0.133428
H28   H     H_    0.332360 0.556549 0.109938 0.079180
H29   H     H_    0.488374 0.570895 0.003437 0.082775
H30   H     H_    0.832087 0.420908 0.881347 0.071409
H31   H     H_    0.733091 0.417100 0.131659 0.093653
H32   H     H_    0.845357 0.521437 0.685054 0.064367
H33   H     H_    0.380597 0.527024 0.340651 0.069354
H34   H     H_    0.542485 0.133373 0.251807 0.138355
H35   H     H_    0.099074 0.911422 0.637681 0.156468
H36   H     H_    0.630577 0.273683 0.688952 -0.073967
H37   H     H_    0.104056 0.102795 0.380465 0.101571
H38   H     H_    0.404929 0.691671 0.500386 0.069582
H39   H     H_    0.781416 0.317663 0.496592 0.067184
H40   H     H_    0.763077 0.977981 0.544884 0.106256
H41   H     H_    0.472704 0.036589 0.488321 0.090007
H42   H     H_    0.329334 0.236318 0.797056 0.089556
H43   H     H_    0.791301 0.286598 0.340560 0.006668
H44   H     H_    0.573732 0.280675 0.371383 0.058532
H45   H     H_    0.780628 0.698844 0.711280 -0.005648
H46   H     H_    0.273258 0.702071 0.934535 0.361198
H47   H     H_    0.836874 0.807962 0.851696 0.167877
H48   H     H_    0.702856 0.716207 0.861792 0.006638
H49   H     H_    0.324814 0.347404 0.291865 0.008028
H50   H     H_    0.131899 0.392063 0.292875 0.061928
O1    O     O_2   0.351410 0.559500 0.703710 -0.402438
O2    O     O_2   0.862186 0.810683 0.503867 -0.465523
O3    O     O_3   0.751871 0.796572 0.365873 -0.614293
O4    O     O_3   0.622300 0.553110 0.604480 -0.492642
O5    O     O_3   0.040530 0.390860 0.438530 -0.493372
O6    O     O_2   0.927940 0.718960 0.581060 -0.398659
O7    O     O_3   0.046738 0.750029 0.720856 -0.653771
O8    O     O_2   0.005032 0.537846 0.225228 -0.486759
O9    O     O_3   0.134428 0.704096 0.270706 -0.593862
O10   O     O_3   0.077860 0.395310 0.623380 -0.490870
O11   O     O_2   0.148004 0.482858 0.781039 -0.419058
O12   O     O_3   0.121084 0.260679 0.288538 -0.626015
O13   O     O_3   0.531028 0.702657 0.733652 -0.629535
O14   O     O_3   0.084792 0.307004 0.735303 -0.606978
O15   O     O_2   0.261760 0.281010 0.418880 -0.465212
O16   O     O_3   0.488390 0.347430 0.574410 -0.494609
O17   O     O_2   0.352672 0.185438 0.487089 -0.498825
O18   O     O_2   0.072451 0.816995 0.929073 -0.259650
O19   O     O_2   0.011250 0.660262 0.836405 -0.341467
O20   O     O_3   0.305265 0.708365 0.879918 -0.501471
O21   O     O_3   0.418205 0.206661 0.636446 -0.587161
O22   O     O_2   0.838300 0.440470 0.296230 -0.463044
O23   O     O_3   0.567380 0.446810 0.395500 -0.505086
O24   O     O_3   0.111820 0.604620 0.376600 -0.493360
O25   O     O_3   0.643243 0.296880 0.258585 -0.625816
O26   O     O_3   0.149150 0.609060 0.561440 -0.470284
O27   O     O_3   0.701290 0.652490 0.425560 -0.487487
P1    P     P_3+3 0.533580 0.585010 0.696460 1.024960
P2    P     P_3+3 0.097450 0.292710 0.397510 0.987714
P3    P     P_3+3 0.486817 0.231090 0.547311 0.947197
P4    P     P_3+3 0.656110 0.414920 0.303520 0.984443
P5    P     P_3+3 0.709372 0.770014 0.455722 0.984585
P6    P     P_3+3 0.033143 0.405951 0.726971 1.008337
P7    P     P_3+3 0.098850 0.722080 0.613123 0.992038
P8    P     P_3+3 0.147877 0.597117 0.273304 0.947264
S1    S     S_3+6 0.137041 0.738542 0.855237 -0.040541

loop_
_geom_bond_atom_site_label_1
_geom_bond_atom_site_label_2
_ccdc_geom_bond_type
C12   H6    S    
C10   P4    S    
C40   H14   S    
C43   H21   S    
Ba1   P1    S    
O21   P3    S    
C34   H9    S    
C40   O3    S    
C38   H49   S    
C35   H12   S    
C8    H28   S    
C5    C6    S    
C38   O12   S    
O13   P1    S    
C19   H39   S    
Ba2   O23   S    
C9    C17   A    
C24   C25   S    
C26   C27   D    
O2    P5    D    
O7    P7    S    
Ba1   P2    S    
C8    C13   A    
C36   C37   S    
C2    C44   S    
C16   H13   S    
C37   H47   S    
O9    P8    S    
C11   H31   S    
O1    P1    D    
Ba1   Ba2   S    
C20   H35   S    
C23   S1    S    
O25   P4    S    
O27   P5    S    
C39   H5    S    
C44   H32   S    
C29   C30   A    
C32   P2    S    
C6    C7    D    
C1    H7    S    
C36   H45   S    
C40   H15   S    
C29   C31   A    
C35   H34   S    
C42   H20   S    
Ba1   O16   S    
O12   P2    S    
O3    P5    S    
C21   P7    S    
Ba2   O27   S    
C1    H11   S    
C28   O25   S    
C7    C44   D    
C43   H22   S    
C17   H33   S    
C4    H24   S    
Ba2   O22   S    
C4    C16   S    
C7    P1    S    
C30   C33   A    
C18   C22   D    
Ba1   O26   S    
O8    P8    D    
C3    C5    D    
C36   O13   S    
O11   P6    D    
C37   H48   S    
O5    P2    S    
C19   C32   A    
C12   O14   S    
Ba2   O6    S    
C28   C35   S    
O20   S1    S    
Ba1   O23   S    
C9    P8    S    
Ba1   O10   S    
C15   H26   S    
C22   P5    S    
C12   H1    S    
O4    P1    S    
C18   C21   S    
Ba2   O4    S    
Ba2   P4    S    
C42   H19   S    
C3    H30   S    
O17   P3    D    
Ba1   O4    S    
C39   H3    S    
C36   Cl1   S    
C1    C12   S    
Ba2   O26   S    
C5    C14   S    
C33   P3    S    
C20   C25   S    
C11   C13   A    
C6    H27   S    
C23   H8    S    
Ba1   O1    S    
O22   P4    D    
C27   H41   S    
O18   S1    D    
C42   C43   S    
C16   Cl4   S    
O15   P2    D    
C13   C15   S    
C35   H23   S    
C38   C39   S    
O24   P8    S    
O23   P4    S    
H46   O20   S    
C22   C24   S    
C2    C3    S    
C34   H10   S    
C38   H50   S    
C1    H2    S    
C19   C33   A    
Ba2   O24   S    
C28   H43   S    
C41   H18   S    
Ba2   O5    S    
C24   C26   S    
O19   S1    D    
C4    H36   S    
C43   H25   S    
C14   H29   S    
C16   H42   S    
C31   H37   S    
C27   C30   S    
C28   H44   S    
C42   O9    S    
C14   C15   D    
C41   H16   S    
C18   H38   S    
C10   C17   A    
O14   P6    S    
C31   C32   A    
C39   H4    S    
C8    C9    A    
C23   C34   S    
O6    P7    D    
O16   P3    S    
C10   C11   A    
O26   P7    S    
C41   H17   S    
C40   C41   S    
C20   C21   D    
C37   Cl2   S    
O10   P6    S    
C26   H40   S    
Ba1   O15   S    
C4    O21   S    
C23   O7    S    
C34   Cl3   S    
Ba1   O5    S    
C2    P6    S    
