data_mof_unit_3723.cif
_audit_creation_date              2012-12-11T14:30:34-0500
_audit_creation_method            fapswitch 2.2
_symmetry_space_group_name_H-M    P1
_symmetry_Int_Tables_number       1
_space_group_crystal_system       triclinic
_cell_length_a                    17.448632
_cell_length_b                    24.513369
_cell_length_c                    14.894995
_cell_angle_alpha                 89.932359
_cell_angle_beta                  125.247118
_cell_angle_gamma                 90.157654
_cell_volume                      5202.95371982

loop_
_atom_site_label
_atom_site_type_symbol
_atom_type_description
_atom_site_fract_x
_atom_site_fract_y
_atom_site_fract_z
_atom_type_partial_charge
C1    C     C_R   0.830514 0.644218 0.907428 -0.146167
C2    C     C_R   0.956241 0.502000 0.644296 0.154152
C3    C     C_R   0.537395 0.001294 0.351944 0.159105
C4    C     C_R   0.549813 0.001650 0.726621 0.153767
C5    C     C_R   0.675604 0.499489 0.705468 0.033955
C6    C     C_R   0.311993 0.500846 0.351084 0.042427
C7    C     C_R   0.191702 0.999719 0.643562 0.040395
C8    C     C_R   0.824847 0.000875 0.295021 0.034068
C9    C     C_3   0.516141 0.447366 0.567361 -0.167180
C10   C     C_3   0.483010 0.470592 0.454192 -0.148313
C11   C     C_3   0.044423 0.948282 0.475930 -0.166424
C12   C     C_R   0.190059 0.626194 0.092840 -0.149973
C13   C     C_3   0.004003 0.982144 0.369778 -0.144335
C14   C     C_3   0.435836 0.477348 0.562363 -0.148773
C15   C     C_3   0.544860 0.521454 0.508091 -0.148681
C16   C     C_3   0.963350 0.966577 0.482262 -0.148381
C17   C     C_3   0.061562 0.032659 0.439484 -0.156523
C18   C     C_3   0.404693 0.500541 0.450779 0.186761
C19   C     C_3   0.577010 0.498403 0.620255 0.186999
C20   C     C_3   0.924579 0.000472 0.378124 0.185934
C21   C     C_3   0.099196 0.998789 0.543223 0.181558
C22   C     C_3   0.465612 0.551513 0.503884 -0.167755
C23   C     C_R   0.310076 0.126149 0.906840 -0.151878
C24   C     C_3   0.499114 0.528409 0.617590 -0.151305
C25   C     C_3   0.980056 0.050911 0.445625 -0.164648
C26   C     C_3   0.019176 0.016953 0.550326 -0.135755
C27   C     C_2   0.242647 0.691805 0.910936 -0.124891
C28   C     C_2   0.775737 0.702141 0.087177 -0.120762
C29   C     C_2   0.725277 0.201535 0.912905 -0.119327
C30   C     C_2   0.258334 0.192705 0.088462 -0.125012
C31   C     C_2   0.259255 0.668939 0.002020 -0.193785
C32   C     C_2   0.787026 0.706020 0.005473 -0.202039
C33   C     C_2   0.713752 0.205942 0.994365 -0.202732
C34   C     C_R   0.669531 0.144416 0.092499 -0.146321
C35   C     C_2   0.241650 0.169846 0.997382 -0.194365
C36   C     C_2   0.783486 0.240510 0.904547 -0.116010
C37   C     C_2   0.211994 0.243591 0.081488 -0.100891
C38   C     C_2   0.288885 0.742927 0.918056 -0.100849
C39   C     C_2   0.718106 0.741434 0.095283 -0.115422
C40   C     C_R   0.943748 0.349736 0.090642 0.181737
C41   C     C_R   0.074884 0.357829 0.908156 0.202059
C42   C     C_R   0.425265 0.857456 0.091607 0.201640
C43   C     C_R   0.556944 0.850082 0.909205 0.179604
C44   C     C_2   0.857288 0.262285 0.996229 -0.183144
C45   C     C_R   0.880474 0.319319 0.998761 0.051926
C46   C     C_2   0.190360 0.280458 0.003398 -0.186584
C47   C     C_2   0.310035 0.779736 0.996019 -0.186197
C48   C     C_2   0.644418 0.763072 0.003505 -0.183308
C49   C     C_2   0.874354 0.461046 0.358582 0.142886
C50   C     C_2   0.867738 0.470413 0.452185 0.196139
C51   C     C_2   0.627881 0.971691 0.544919 0.205787
C52   C     C_2   0.627070 0.963186 0.642729 0.170465
C53   C     C_2   0.896409 0.503896 0.320815 -0.294621
C54   C     C_2   0.933894 0.502764 0.534556 -0.279220
C55   C     C_2   0.557167 0.000938 0.460439 -0.298171
C56   C     C_R   0.151183 0.332926 0.000561 0.033180
C57   C     C_2   0.601424 0.005656 0.677006 -0.334487
C58   C     C_R   0.982530 0.546280 0.250048 -0.154372
C59   C     C_R   0.963116 0.547137 0.703104 -0.174315
C60   C     C_R   0.533596 0.046802 0.295228 -0.171282
C61   C     C_R   0.517373 0.046690 0.750137 -0.136784
C62   C     C_R   0.732220 0.454378 0.740102 -0.125720
C63   C     C_R   0.261116 0.455327 0.294534 -0.155217
C64   C     C_R   0.241196 0.954789 0.703091 -0.138099
C65   C     C_R   0.768427 0.955172 0.259769 -0.138328
C66   C     C_R   0.981780 0.455623 0.248473 -0.119287
C67   C     C_R   0.348992 0.832449 0.999092 0.033444
C68   C     C_R   0.961601 0.456380 0.701514 -0.100931
C69   C     C_R   0.534862 0.955979 0.296154 -0.102548
C70   C     C_R   0.517046 0.956030 0.749918 -0.140267
C71   C     C_R   0.729692 0.546036 0.736887 -0.142494
C72   C     C_R   0.261346 0.546608 0.297314 -0.139440
C73   C     C_R   0.240206 0.045927 0.699559 -0.152869
C74   C     C_R   0.769911 0.046766 0.263732 -0.124034
C75   C     C_R   0.850020 0.351875 0.909023 -0.162161
C76   C     C_R   0.168125 0.360079 0.091321 -0.157187
C77   C     C_R   0.331973 0.859819 0.908482 -0.155824
C78   C     C_R   0.620613 0.819861 0.001081 0.051081
C79   C     C_R   0.650547 0.852207 0.090954 -0.163427
C80   C     C_R   0.925112 0.644596 0.090953 -0.135891
C81   C     C_R   0.097059 0.626424 0.908816 -0.112679
C82   C     C_R   0.403198 0.126800 0.090974 -0.113144
C83   C     C_R   0.574921 0.144754 0.909092 -0.136764
C84   C     C_R   0.847015 0.668086 0.000851 0.140040
C85   C     C_R   0.185940 0.639714 0.000118 0.133119
C86   C     C_R   0.314431 0.140104 0.999501 0.133570
C87   C     C_R   0.653133 0.168320 0.999110 0.140024
C88   C     C_3   0.938710 0.369429 0.405137 -0.973712
C89   C     C_R   0.949962 0.500891 0.273293 0.164061
C90   C     C_3   0.733085 0.471492 0.461105 -0.937189
C91   C     C_3   0.763819 0.983152 0.541437 -0.924671
C92   C     C_3   0.594863 0.865360 0.627091 -0.979567
C93   C     C_3   0.098896 0.328253 0.254490 -0.964025
C94   C     C_3   0.928079 0.321078 0.753062 -0.977327
C95   C     C_3   0.572592 0.821369 0.246568 -0.977192
C96   C     C_3   0.402036 0.827834 0.745745 -0.966355
H1    H     H_    0.780434 0.657098 0.823534 0.089323
H2    H     H_    0.508934 0.551776 0.687335 0.114887
H3    H     H_    0.953712 0.093332 0.433303 0.105085
H4    H     H_    0.027216 0.031082 0.626175 0.116715
H5    H     H_    0.184961 0.678584 0.829707 0.118623
H6    H     H_    0.815419 0.673074 0.153829 0.122476
H7    H     H_    0.685306 0.172308 0.846518 0.123083
H8    H     H_    0.315742 0.179409 0.169692 0.118287
H9    H     H_    0.321111 0.680373 0.082264 0.133132
H10   H     H_    0.749363 0.735525 0.939310 0.131017
H11   H     H_    0.751755 0.235590 0.060290 0.130771
H12   H     H_    0.248601 0.632637 0.177082 0.096269
H13   H     H_    0.180025 0.181304 0.917087 0.133016
H14   H     H_    0.754139 0.257895 0.824005 0.119790
H15   H     H_    0.204096 0.252860 0.146953 0.118581
H16   H     H_    0.296964 0.752419 0.852770 0.118619
H17   H     H_    0.747462 0.758857 0.175795 0.120155
H18   H     H_    0.888067 0.241145 0.073832 0.128645
H19   H     H_    0.201061 0.272219 0.939817 0.124526
H20   H     H_    0.299075 0.771270 0.059362 0.124604
H21   H     H_    0.613585 0.741928 0.925890 0.128233
H22   H     H_    0.888059 0.544834 0.342126 0.120350
H23   H     H_    0.251570 0.132142 0.822363 0.097215
H24   H     H_    0.981472 0.526971 0.525876 0.124742
H25   H     H_    0.505882 0.021749 0.467268 0.129339
H26   H     H_    0.602107 0.046321 0.648064 0.131265
H27   H     H_    0.973082 0.587816 0.264727 0.092935
H28   H     H_    0.947139 0.588653 0.673165 0.099477
H29   H     H_    0.549037 0.088222 0.325802 0.099148
H30   H     H_    0.526359 0.088315 0.735166 0.089774
H31   H     H_    0.711407 0.412101 0.721385 0.091356
H32   H     H_    0.277858 0.413385 0.321396 0.097418
H33   H     H_    0.225801 0.912637 0.677357 0.089560
H34   H     H_    0.719541 0.157497 0.176295 0.087987
H35   H     H_    0.790251 0.913055 0.277831 0.097665
H36   H     H_    0.969733 0.413872 0.256898 0.166338
H37   H     H_    0.946158 0.415351 0.670130 0.147435
H38   H     H_    0.549938 0.914971 0.327578 0.144386
H39   H     H_    0.525804 0.914400 0.737017 0.147962
H40   H     H_    0.705314 0.587377 0.712658 0.097286
H41   H     H_    0.276685 0.588108 0.327363 0.086864
H42   H     H_    0.224321 0.087409 0.669386 0.094371
H43   H     H_    0.792883 0.088380 0.286796 0.088125
H44   H     H_    0.808191 0.339427 0.824050 0.104865
H45   H     H_    0.538455 0.404726 0.595346 0.106801
H46   H     H_    0.217418 0.348826 0.176491 0.111338
H47   H     H_    0.282844 0.848517 0.823258 0.111645
H48   H     H_    0.692553 0.839808 0.175943 0.106003
H49   H     H_    0.963754 0.659050 0.174752 0.088222
H50   H     H_    0.069457 0.632808 0.823663 0.088931
H51   H     H_    0.430967 0.133627 0.176039 0.088161
H52   H     H_    0.536273 0.159258 0.825353 0.087910
H53   H     H_    0.387915 0.459483 0.580933 0.113369
H54   H     H_    0.591652 0.539400 0.487815 0.121346
H55   H     H_    0.922356 0.938625 0.498078 0.106991
H56   H     H_    0.474196 0.447169 0.385008 0.115483
H57   H     H_    0.104855 0.059471 0.425105 0.111866
H58   H     H_    0.803818 0.391050 0.274614 0.160179
H59   H     H_    0.936595 0.330511 0.365713 0.249197
H60   H     H_    0.922564 0.360663 0.465755 0.248973
H61   H     H_    0.010651 0.386743 0.448371 0.267303
H62   H     H_    0.773776 0.406562 0.409639 0.164516
H63   H     H_    0.689012 0.444181 0.473467 0.246771
H64   H     H_    0.687242 0.492678 0.380886 0.244206
H65   H     H_    0.766223 0.502072 0.528379 0.266362
H66   H     H_    0.731320 0.913920 0.591663 0.182274
H67   H     H_    0.072855 0.906283 0.490146 0.108137
H68   H     H_    0.814028 0.959705 0.533991 0.240843
H69   H     H_    0.803586 0.005609 0.620836 0.245346
H70   H     H_    0.727682 0.012705 0.472473 0.267065
H71   H     H_    0.669883 0.910249 0.775011 0.173452
H72   H     H_    0.619390 0.827423 0.676942 0.247609
H73   H     H_    0.601724 0.859931 0.558071 0.255289
H74   H     H_    0.519742 0.871718 0.593021 0.259996
H75   H     H_    0.972856 0.296022 0.215489 0.153474
H76   H     H_    0.133807 0.314272 0.340630 0.247016
H77   H     H_    0.126131 0.369432 0.257009 0.262041
H78   H     H_    0.994616 0.968039 0.293216 0.114618
H79   H     H_    0.115744 0.299091 0.211333 0.248854
H80   H     H_    0.059650 0.307656 0.786806 0.159419
H81   H     H_    0.895403 0.304525 0.669011 0.247223
H82   H     H_    0.887048 0.357277 0.746095 0.256912
H83   H     H_    0.925735 0.289170 0.804520 0.263688
H84   H     H_    0.441130 0.806426 0.212443 0.159315
H85   H     H_    0.605462 0.804716 0.330576 0.247315
H86   H     H_    0.613056 0.858044 0.253657 0.257086
H87   H     H_    0.575500 0.789788 0.195132 0.263650
H88   H     H_    0.528325 0.796692 0.784226 0.155585
H89   H     H_    0.443839 0.594266 0.476441 0.105878
H90   H     H_    0.367043 0.813734 0.659657 0.246553
H91   H     H_    0.374468 0.868798 0.743171 0.262136
H92   H     H_    0.385719 0.798498 0.789346 0.249608
N1    N     N_R   0.892320 0.603520 0.941090 -0.039010
N2    N     N_R   0.973240 0.529450 0.794410 -0.042423
N3    N     N_R   0.526760 0.029450 0.205590 -0.042928
N4    N     N_R   0.473240 0.029450 0.794410 -0.042405
N5    N     N_R   0.819350 0.473090 0.793940 -0.037883
N6    N     N_R   0.180650 0.473090 0.206060 -0.036774
N7    N     N_R   0.319350 0.973090 0.793940 -0.037646
N8    N     N_R   0.680650 0.973090 0.206060 -0.037292
N9    N     N_R   0.027860 0.473090 0.206590 -0.050455
N10   N     N_R   0.972140 0.473090 0.793410 -0.049234
N11   N     N_R   0.527860 0.973090 0.206590 -0.048682
N12   N     N_R   0.107680 0.603520 0.058910 -0.042248
N13   N     N_R   0.472140 0.973090 0.793410 -0.044780
N14   N     N_R   0.818250 0.529450 0.792940 -0.037479
N15   N     N_R   0.181750 0.529450 0.207060 -0.034804
N16   N     N_R   0.318250 0.029450 0.792940 -0.034792
N17   N     N_R   0.681750 0.029450 0.207060 -0.038336
N18   N     N_R   0.896320 0.399020 0.944720 -0.052677
N19   N     N_R   0.103680 0.399020 0.055280 -0.051415
N20   N     N_R   0.396320 0.899020 0.944720 -0.052041
N21   N     N_R   0.603680 0.899020 0.055280 -0.052653
N22   N     N_R   0.949790 0.603520 0.054810 -0.041017
N23   N     N_R   0.392320 0.103520 0.941090 -0.041875
N24   N     N_R   0.050210 0.603520 0.945190 -0.045589
N25   N     N_R   0.449790 0.103520 0.054810 -0.045558
N26   N     N_R   0.550210 0.103520 0.945190 -0.041508
N27   N     N_2   0.870838 0.406924 0.321615 -0.110958
N28   N     N_2   0.803203 0.439520 0.461990 -0.108770
N29   N     N_2   0.697553 0.945922 0.537756 -0.110272
N30   N     N_2   0.650886 0.911137 0.695411 -0.111584
N31   N     N_2   0.998872 0.329966 0.200734 -0.123170
N32   N     N_2   0.024014 0.336521 0.799508 -0.123620
N33   N     N_2   0.476380 0.835853 0.200012 -0.123858
N34   N     N_R   0.607680 0.103520 0.058910 -0.039608
N35   N     N_2   0.501978 0.830299 0.799119 -0.124081
N36   N     N_R   0.953790 0.399020 0.058440 -0.057474
N37   N     N_R   0.046210 0.399020 0.941560 -0.055221
N38   N     N_R   0.453790 0.899020 0.058440 -0.055156
N39   N     N_R   0.546210 0.899020 0.941560 -0.056386
N40   N     N_R   0.026760 0.529450 0.205590 -0.042098
Ni1   Ni    Ni4+2 0.934100 0.565890 0.869590 0.208237
Ni2   Ni    Ni4+2 0.065900 0.565890 0.130410 0.210550
Ni3   Ni    Ni4+2 0.434100 0.065890 0.869590 0.209249
Ni4   Ni    Ni4+2 0.565900 0.065890 0.130410 0.207828
Ni5   Ni    Ni4+2 0.068420 0.436630 0.132700 0.209296
Ni6   Ni    Ni4+2 0.931580 0.436630 0.867300 0.209499
Ni7   Ni    Ni4+2 0.568420 0.936630 0.132700 0.209472
Ni8   Ni    Ni4+2 0.431580 0.936630 0.867300 0.209423

loop_
_geom_bond_atom_site_label_1
_geom_bond_atom_site_label_2
_ccdc_geom_bond_type
H88   N35   S    
C83   C87   A    
C21   C26   S    
C55   H25   S    
C93   H76   S    
C69   H38   S    
C31   C85   S    
C88   N27   S    
C54   H24   S    
N4    Ni3   S    
C96   H92   S    
C91   H70   S    
C43   N35   S    
C11   C21   S    
C33   H11   S    
C80   C84   A    
C17   H57   S    
C83   N26   A    
N40   Ni2   S    
C82   H51   S    
C7    C73   A    
C51   N29   S    
C1    C84   A    
C15   C19   S    
N39   Ni8   S    
C29   C36   S    
N19   Ni5   S    
C58   H27   S    
C95   N33   S    
N23   Ni3   S    
C12   C85   A    
C40   N36   A    
C24   H2    S    
N37   Ni6   S    
C88   H60   S    
C10   C18   S    
C68   H37   S    
C3    C69   A    
N3    N11   A    
C2    C68   A    
N1    N22   A    
C22   H89   S    
C23   H23   S    
C62   H31   S    
C35   C86   S    
C73   H42   S    
C27   C38   S    
C14   C24   S    
C64   N7    A    
C29   C33   D    
C90   H63   S    
C29   H7    S    
C68   N10   A    
C94   H82   S    
C48   C78   S    
N8    N17   A    
C14   C18   S    
N26   N34   A    
C10   H56   S    
C57   H26   S    
C3    C55   S    
C9    C19   S    
C15   C22   S    
C80   H49   S    
C92   H74   S    
N3    Ni4   S    
C39   H17   S    
C23   C86   A    
C67   C77   A    
C4    C57   S    
C61   N4    A    
C47   C67   S    
N4    N13   A    
C61   H30   S    
C50   N28   S    
C42   N33   S    
C9    C10   S    
N20   Ni8   S    
H71   N30   S    
C63   H32   S    
C35   H13   S    
C76   N19   A    
C76   H46   S    
C34   C87   A    
C65   N8    A    
N20   N38   A    
C3    C60   A    
C70   N13   A    
H66   N29   S    
C44   H18   S    
C8    C65   A    
C32   H10   S    
C31   H9    S    
C96   H91   S    
C47   H20   S    
N12   Ni2   S    
N12   N24   A    
C32   C84   S    
N26   Ni3   S    
C90   N28   S    
C65   H35   S    
C25   H3    S    
C66   C89   A    
C66   H36   S    
C42   N38   A    
C16   C26   S    
C40   C45   A    
C6    C18   S    
C73   N16   A    
C41   N37   A    
C4    C70   A    
C37   H15   S    
C90   H65   S    
C27   C31   D    
C51   C52   S    
C88   H59   S    
C96   H90   S    
C28   C32   D    
C20   C25   S    
C2    C54   S    
C77   N20   A    
C1    H1    S    
C71   H40   S    
C12   H12   S    
C9    H45   S    
C78   C79   A    
C95   H85   S    
N13   Ni8   S    
N7    N16   A    
C28   C39   S    
C46   H19   S    
C25   C26   S    
C82   C86   A    
C4    C61   A    
C27   H5    S    
C17   C21   S    
N5    N14   A    
C30   C37   S    
C43   C78   A    
C94   H81   S    
C6    C63   A    
C91   N29   S    
N1    Ni1   S    
C9    C14   S    
N21   Ni7   S    
C41   C56   A    
N11   Ni7   S    
C82   N25   A    
C11   C16   S    
C92   H72   S    
C79   H48   S    
C77   H47   S    
C92   H73   S    
C16   C20   S    
C96   N35   S    
C43   N39   A    
C11   H67   S    
C12   N12   A    
C63   N6    A    
H84   N33   S    
C6    C72   A    
C50   C54   D    
C88   H61   S    
C92   N30   S    
C38   C47   D    
N25   Ni4   S    
N14   Ni1   S    
C30   C35   D    
C72   H41   S    
C2    C59   A    
C8    C20   S    
C81   H50   S    
N18   N36   A    
C56   C76   A    
C72   N15   A    
N36   Ni5   S    
C36   H14   S    
C70   H39   S    
C22   C24   S    
C91   H68   S    
C36   C44   D    
C94   N32   S    
N6    Ni5   S    
C38   H16   S    
N5    Ni6   S    
C41   N32   S    
C58   N40   A    
C13   H78   S    
N2    N10   A    
C80   N22   A    
C59   H28   S    
C79   N21   A    
C60   H29   S    
N9    Ni5   S    
C13   C20   S    
N23   N25   A    
C10   C15   S    
C53   H22   S    
C91   H69   S    
C44   C45   S    
H58   N27   S    
C59   N2    A    
C46   C56   S    
N15   Ni2   S    
C95   H86   S    
C48   H21   S    
C5    C19   S    
N8    Ni7   S    
C13   C17   S    
C74   H43   S    
C49   N27   S    
C52   N30   S    
C45   C75   A    
C75   H44   S    
N2    Ni1   S    
C93   N31   S    
N16   Ni3   S    
C18   C22   S    
C19   C24   S    
C33   C87   S    
C17   C25   S    
C40   N31   S    
C7    C21   S    
C53   C89   S    
N24   Ni1   S    
C11   C13   S    
C95   H87   S    
C42   C67   A    
C23   N23   A    
N18   Ni6   S    
C60   N3    A    
C49   C53   D    
N6    N15   A    
C14   H53   S    
C93   H77   S    
C75   N18   A    
C93   H79   S    
C5    C62   A    
C16   H55   S    
C51   C55   D    
C94   H83   S    
C90   H64   S    
N7    Ni8   S    
C58   C89   A    
C81   C85   A    
C7    C64   A    
N22   Ni2   S    
C66   N9    A    
C52   C57   D    
N38   Ni7   S    
N34   Ni4   S    
C83   H52   S    
N9    N40   A    
C28   H6    S    
C81   N24   A    
N10   Ni6   S    
C64   H33   S    
C34   H34   S    
C5    C71   A    
C49   C50   S    
H80   N32   S    
C71   N14   A    
C30   H8    S    
C8    C74   A    
C69   N11   A    
N19   N37   A    
N17   Ni4   S    
N21   N39   A    
C62   N5    A    
C37   C46   D    
H62   N28   S    
C15   H54   S    
H75   N31   S    
C34   N34   A    
C26   H4    S    
C39   C48   D    
C74   N17   A    
C1    N1    A    
