data_mof_unit_4148.cif
_audit_creation_date              2012-12-10T21:00:46-0500
_audit_creation_method            fapswitch 2.2
_symmetry_space_group_name_H-M    P1
_symmetry_Int_Tables_number       1
_space_group_crystal_system       triclinic
_cell_length_a                    18.141826
_cell_length_b                    18.197343
_cell_length_c                    18.305163
_cell_angle_alpha                 119.893729
_cell_angle_beta                  90.034938
_cell_angle_gamma                 119.964219
_cell_volume                      4281.0051808

loop_
_atom_site_label
_atom_site_type_symbol
_atom_type_description
_atom_site_fract_x
_atom_site_fract_y
_atom_site_fract_z
_atom_type_partial_charge
C1    C     C_R   0.110297 0.220022 0.609839 0.504771
C2    C     C_3   0.450875 0.897561 0.947771 0.067749
C3    C     C_3   0.446572 0.031373 0.029754 -0.111013
C4    C     C_3   0.553429 0.968626 0.970243 -0.111013
C5    C     C_3   0.412171 0.428575 0.447157 -0.139954
C6    C     C_3   0.587827 0.571423 0.552842 -0.139946
C7    C     C_3   0.482709 0.404197 0.448357 -0.158526
C8    C     C_3   0.517290 0.595801 0.551642 -0.158516
C9    C     C_3   0.551237 0.500044 0.449536 0.039729
C10   C     C_3   0.448762 0.499954 0.550463 0.039731
C11   C     C_3   0.481809 0.524035 0.448743 0.283470
C12   C     C_R   0.889701 0.779977 0.390161 0.504771
C13   C     C_3   0.518189 0.475963 0.551256 0.283469
C14   C     C_R   0.108741 0.171840 0.837780 -0.101324
C15   C     C_R   0.891170 0.828111 0.162215 -0.101306
C16   C     C_R   0.393010 0.781198 0.888507 0.493329
C17   C     C_R   0.606990 0.218801 0.111492 0.493324
C18   C     C_R   0.099527 0.128316 0.747343 -0.055944
C19   C     C_R   0.900411 0.871648 0.252659 -0.055920
C20   C     C_R   0.024720 0.098223 0.688391 0.062655
C21   C     C_R   0.975248 0.901775 0.311600 0.062650
C22   C     C_R   0.958552 0.110276 0.720474 -0.086661
C23   C     C_3   0.983364 0.430618 0.413902 -0.108919
C24   C     C_R   0.041419 0.889748 0.279500 -0.086680
C25   C     C_R   0.967594 0.152902 0.810776 -0.115725
C26   C     C_R   0.032350 0.847109 0.189191 -0.115729
C27   C     C_R   0.042808 0.184096 0.869471 -0.102839
C28   C     C_R   0.957106 0.815878 0.130507 -0.102833
C29   C     C_R   0.960612 0.943698 0.536243 -0.156032
C30   C     C_R   0.039381 0.056302 0.463754 -0.156032
C31   C     C_R   0.946221 0.892283 0.444547 0.017806
C32   C     C_R   0.053772 0.107717 0.555450 0.017807
C33   C     C_R   0.985978 0.949293 0.407572 -0.036765
C34   C     C_3   0.016636 0.569382 0.586098 -0.108918
C35   C     C_R   0.014010 0.050707 0.592423 -0.036767
C36   C     C_R   0.695699 0.840910 0.024975 -0.115554
C37   C     C_R   0.304241 0.158953 0.974809 -0.115583
C38   C     C_R   0.655758 0.742125 0.005975 -0.086639
C39   C     C_R   0.344189 0.257764 0.993867 -0.086692
C40   C     C_R   0.111980 0.501800 0.890759 0.500569
C41   C     C_R   0.888020 0.498201 0.109242 0.500571
C42   C     C_R   0.574606 0.694888 0.021770 0.060480
C43   C     C_R   0.425405 0.305089 0.978195 0.060495
C44   C     C_R   0.534096 0.747799 0.056927 -0.066225
C45   C     C_3   0.436970 0.964839 0.930316 -0.122583
C46   C     C_R   0.465976 0.252238 0.943110 -0.066147
C47   C     C_R   0.574528 0.846790 0.076268 -0.098521
C48   C     C_R   0.425542 0.153224 0.923717 -0.098519
C49   C     C_R   0.655378 0.893422 0.060522 -0.102230
C50   C     C_R   0.344626 0.106504 0.939337 -0.102263
C51   C     C_R   0.586139 0.588077 0.058543 -0.151555
C52   C     C_R   0.413864 0.411916 0.941448 -0.151548
C53   C     C_R   0.550990 0.496232 0.051969 0.027730
C54   C     C_R   0.449012 0.503761 0.948026 0.027731
C55   C     C_R   0.464233 0.406607 0.992625 -0.032602
C56   C     C_3   0.563032 0.035160 0.069681 -0.122581
C57   C     C_R   0.535771 0.593382 0.007363 -0.032622
C58   C     C_R   0.212321 0.840940 0.030722 -0.099379
C59   C     C_R   0.787691 0.159063 0.969284 -0.099377
C60   C     C_R   0.173173 0.754825 0.034319 -0.075559
C61   C     C_R   0.826841 0.245167 0.965671 -0.075594
C62   C     C_R   0.082548 0.671366 0.983487 0.059799
C63   C     C_R   0.917458 0.328641 0.016521 0.059793
C64   C     C_R   0.392255 0.499916 0.607707 0.533417
C65   C     C_R   0.607745 0.500083 0.392293 0.533417
C66   C     C_R   0.031560 0.675258 0.929516 -0.087005
C67   C     C_3   0.540174 0.037357 0.953524 -0.131261
C68   C     C_R   0.968438 0.324775 0.070525 -0.086977
C69   C     C_R   0.071272 0.761117 0.925492 -0.115905
C70   C     C_R   0.928724 0.238927 0.074566 -0.115887
C71   C     C_R   0.161612 0.843907 0.976053 -0.094566
C72   C     C_R   0.838392 0.156121 0.023986 -0.094547
C73   C     C_R   0.982905 0.575548 0.039225 -0.161603
C74   C     C_R   0.017098 0.424455 0.960779 -0.161606
C75   C     C_R   0.943274 0.495869 0.051512 0.017892
C76   C     C_R   0.056729 0.504134 0.948491 0.017890
C77   C     C_R   0.959896 0.418529 0.010951 -0.034763
C78   C     C_3   0.459828 0.962643 0.046473 -0.131254
C79   C     C_R   0.040107 0.581475 0.989053 -0.034758
C80   C     C_R   0.393763 0.501803 0.890460 0.506450
C81   C     C_R   0.606237 0.498196 0.109540 0.506433
C82   C     C_R   0.108959 0.500195 0.607736 0.501342
C83   C     C_R   0.891041 0.499805 0.392264 0.501341
C84   C     C_3   0.078055 0.526062 0.483007 -0.125633
C85   C     C_3   0.921944 0.473938 0.516993 -0.125632
C86   C     C_3   0.042654 0.594912 0.517202 -0.123889
C87   C     C_3   0.957346 0.405088 0.482798 -0.123888
C88   C     C_3   0.948791 0.499515 0.448964 0.066085
C89   C     C_3   0.549127 0.102439 0.052226 0.067745
C90   C     C_3   0.051209 0.500485 0.551036 0.066085
C91   C     C_3   0.399335 0.566137 0.403558 -0.119303
C92   C     C_3   0.600634 0.433815 0.596413 -0.119317
H1    H     H_    0.076818 0.672822 0.530450 0.108281
H2    H     H_    0.099894 0.913589 0.324409 0.099116
H3    H     H_    0.916367 0.161902 0.835283 0.111229
H4    H     H_    0.083580 0.838126 0.164670 0.111245
H5    H     H_    0.929838 0.900517 0.564896 0.145472
H6    H     H_    0.070154 0.099484 0.435101 0.145472
H7    H     H_    0.687226 0.970470 0.076325 0.095446
H8    H     H_    0.312775 0.029438 0.923491 0.095470
H9    H     H_    0.758359 0.877170 0.012968 0.099733
H10   H     H_    0.241527 0.122622 0.986713 0.099729
H11   H     H_    0.688206 0.702645 0.979492 0.101214
H12   H     H_    0.923182 0.327177 0.469550 0.108280
H13   H     H_    0.311694 0.297196 0.020292 0.101190
H14   H     H_    0.472209 0.713117 0.070682 0.086490
H15   H     H_    0.527913 0.286983 0.929446 0.086475
H16   H     H_    0.143013 0.547480 0.469929 0.101255
H17   H     H_    0.856987 0.452520 0.530070 0.101256
H18   H     H_    0.543609 0.887650 0.104457 0.096170
H19   H     H_    0.456508 0.112410 0.895582 0.096172
H20   H     H_    0.652292 0.657304 0.105923 0.132707
H21   H     H_    0.347714 0.342689 0.894063 0.132712
H22   H     H_    0.192193 0.910574 0.973257 0.095989
H23   H     H_    0.049875 0.217532 0.939421 0.106987
H24   H     H_    0.807810 0.089464 0.026795 0.095968
H25   H     H_    0.281737 0.905710 0.070770 0.095595
H26   H     H_    0.718280 0.094282 0.929225 0.095592
H27   H     H_    0.213027 0.753377 0.077009 0.088119
H28   H     H_    0.786992 0.246597 0.922957 0.088117
H29   H     H_    0.961361 0.611793 0.890538 0.098496
H30   H     H_    0.038630 0.388253 0.109520 0.098496
H31   H     H_    0.031912 0.763672 0.883489 0.097535
H32   H     H_    0.968077 0.236392 0.116595 0.097531
H33   H     H_    0.970832 0.635224 0.070377 0.145527
H34   H     H_    0.950018 0.782430 0.060552 0.106968
H35   H     H_    0.029174 0.364782 0.929630 0.145531
H36   H     H_    0.969011 0.373592 0.342427 0.122325
H37   H     H_    0.030989 0.626408 0.657573 0.122330
H38   H     H_    0.572765 0.069080 0.915393 0.089341
H39   H     H_    0.427241 0.930920 0.084604 0.089345
H40   H     H_    0.384613 0.934046 0.871832 0.102602
H41   H     H_    0.615391 0.065950 0.128162 0.102606
H42   H     H_    0.402961 0.057874 0.055009 0.117585
H43   H     H_    0.597038 0.942124 0.944980 0.117566
H44   H     H_    0.470476 0.326822 0.406079 0.106082
H45   H     H_    0.166802 0.195724 0.883193 0.095276
H46   H     H_    0.529522 0.673176 0.593919 0.106091
H47   H     H_    0.339899 0.371260 0.405073 0.124405
H48   H     H_    0.660100 0.628736 0.594927 0.124412
H49   H     H_    0.419148 0.632186 0.473095 0.103861
H50   H     H_    0.333992 0.494956 0.385964 0.112350
H51   H     H_    0.389126 0.586443 0.358305 0.138797
H52   H     H_    0.665979 0.504958 0.613946 0.112338
H53   H     H_    0.580767 0.367720 0.526885 0.103874
H54   H     H_    0.610869 0.413553 0.641695 0.138796
H55   H     H_    0.833084 0.804197 0.116810 0.095295
H56   H     H_    0.150718 0.118670 0.723310 0.100360
H57   H     H_    0.849216 0.881274 0.276704 0.100355
H58   H     H_    0.900100 0.086461 0.675555 0.099110
O1    O     O_3   0.251620 0.500000 0.748430 -0.443978
O2    O     O_R   0.570330 0.268390 0.136490 -0.543071
O3    O     O_R   0.134680 0.268390 0.572240 -0.551335
O4    O     O_R   0.865320 0.731610 0.427760 -0.551332
O5    O     O_R   0.306670 0.731630 0.863510 -0.541082
O6    O     O_R   0.693330 0.268370 0.136490 -0.541078
O7    O     O_R   0.135450 0.439270 0.865360 -0.548792
O8    O     O_R   0.864550 0.560730 0.134640 -0.548795
O9    O     O_R   0.429670 0.560710 0.692610 -0.515329
O10   O     O_R   0.570330 0.439290 0.307390 -0.515327
O11   O     O_R   0.308540 0.439240 0.865360 -0.556554
O12   O     O_3   0.748380 0.500000 0.251570 -0.443977
O13   O     O_R   0.691460 0.560760 0.134640 -0.556558
O14   O     O_R   0.133580 0.439310 0.571150 -0.547436
O15   O     O_R   0.866420 0.560690 0.428850 -0.547435
O16   O     O_R   0.430770 0.560690 0.864590 -0.523430
O17   O     O_R   0.569230 0.439310 0.135410 -0.523438
O18   O     O_R   0.133580 0.560760 0.692610 -0.546544
O19   O     O_R   0.866420 0.439240 0.307390 -0.546545
O20   O     O_3   0.467381 0.549130 0.391101 -0.544796
O21   O     O_3   0.532620 0.450873 0.608902 -0.544797
O22   O     O_R   0.134680 0.560740 0.864590 -0.531183
O23   O     O_R   0.865320 0.439260 0.135410 -0.531180
O24   O     O_R   0.306670 0.439270 0.571150 -0.558384
O25   O     O_R   0.693330 0.560730 0.428850 -0.558383
O26   O     O_R   0.135450 0.268370 0.694460 -0.533877
O27   O     O_R   0.864550 0.731630 0.305540 -0.533879
O28   O     O_R   0.429670 0.731610 0.863510 -0.543063
Zn1   Zn    Zn3+2 0.207400 0.586780 0.791530 0.930777
Zn2   Zn    Zn3+2 0.792600 0.413220 0.208470 0.930775
Zn3   Zn    Zn3+2 0.208510 0.413230 0.792630 0.931653
Zn4   Zn    Zn3+2 0.791490 0.586770 0.207370 0.931644
Zn5   Zn    Zn3+2 0.383150 0.586740 0.791530 0.956415
Zn6   Zn    Zn3+2 0.616850 0.413260 0.208470 0.956409
Zn7   Zn    Zn3+2 0.207400 0.413250 0.618010 0.923817
Zn8   Zn    Zn3+2 0.792600 0.586750 0.381990 0.923820

loop_
_geom_bond_atom_site_label_1
_geom_bond_atom_site_label_2
_ccdc_geom_bond_type
C15   H55   S    
C22   H58   S    
C1    O26   A    
O1    Zn7   S    
C51   H20   S    
C81   O13   A    
C14   C18   A    
C76   C79   A    
C70   H32   S    
C6    C9    S    
C56   H41   S    
C47   C49   A    
C82   O18   A    
C52   H21   S    
C15   C19   A    
O4    Zn8   S    
C6    C13   S    
C7    H44   S    
C84   C90   S    
C53   C81   S    
C19   C21   A    
C84   C86   S    
O12   Zn4   S    
C85   H17   S    
O24   Zn7   S    
C63   C77   S    
C37   H10   S    
C86   C88   S    
C58   C71   A    
C66   C69   A    
C49   H7    S    
C69   H31   S    
C92   O21   S    
C58   C60   A    
O27   Zn4   S    
C67   C89   S    
C56   C78   S    
C60   H27   S    
C60   C62   A    
C34   C86   S    
C61   C63   A    
C12   O4    A    
C19   H57   S    
C20   C35   S    
C74   H35   S    
C34   H37   S    
O5    Zn1   S    
C74   C77   A    
C45   C67   S    
C31   C33   A    
C5    H47   S    
C51   C57   A    
C14   C27   A    
O2    Zn6   S    
C2    C16   S    
C17   O6    A    
O19   Zn2   S    
O12   Zn2   S    
O28   Zn5   S    
C91   O20   S    
C44   C47   A    
C59   C72   A    
C91   H50   S    
C52   C54   A    
C48   C50   A    
C83   C88   S    
C23   C87   S    
C4    C56   S    
C61   H28   S    
C6    H48   S    
C73   C75   A    
O7    Zn3   S    
C65   O10   A    
C42   C57   S    
C80   O16   A    
C28   H34   S    
O1    Zn3   S    
C91   H51   S    
C53   C55   A    
C2    C45   S    
C26   H4    S    
O26   Zn3   S    
C37   C39   A    
C46   C48   A    
C59   C61   A    
C69   C71   A    
C23   C84   S    
C62   C66   A    
C85   C87   S    
C92   H54   S    
C32   C35   A    
C62   C79   S    
C17   C89   S    
O14   Zn7   S    
C68   H30   S    
O12   Zn8   S    
C8    H46   S    
C6    C8    S    
O23   Zn2   S    
C22   C25   A    
C58   H25   S    
C40   C76   S    
C71   H22   S    
C36   H9    S    
C51   C53   A    
C34   C85   S    
C2    C4    S    
C78   H39   S    
C34   C90   S    
O12   Zn6   S    
C38   H11   S    
C2    C78   S    
C86   H1    S    
C24   H2    S    
C41   C75   S    
C75   C77   A    
C40   O7    A    
O1    Zn1   S    
O17   Zn6   S    
C14   H45   S    
C7    C13   S    
C46   H15   S    
C16   O5    A    
C81   O17   A    
C66   H29   S    
C1    O3    A    
O8    Zn4   S    
C74   C76   A    
C11   O20   S    
C4    H43   S    
O22   Zn1   S    
C43   C55   S    
C56   C89   S    
C16   O28   A    
C20   C22   A    
C25   H3    S    
C59   H26   S    
C23   C88   S    
C9    C11   S    
C54   C80   S    
C21   C24   A    
C67   H38   S    
C64   O24   A    
O18   Zn1   S    
C40   O22   A    
C5    C7    S    
C30   H6    S    
C83   O15   A    
C85   C88   S    
C39   H13   S    
C41   O23   A    
C63   C68   A    
C41   O8    A    
C30   C33   A    
C92   H53   S    
C26   C28   A    
O1    Zn5   S    
C8    C10   S    
C10   C64   S    
O16   Zn5   S    
C24   C26   A    
C73   C79   A    
C10   C13   S    
C4    C67   S    
C39   C43   A    
C52   C55   A    
C5    C11   S    
C44   H14   S    
C25   C27   A    
C47   H18   S    
C29   C35   A    
C72   H24   S    
C50   H8    S    
O15   Zn8   S    
C82   C90   S    
C29   H5    S    
C3    C89   S    
C3    H42   S    
O9    Zn5   S    
C36   C38   A    
C42   C44   A    
C5    C10   S    
C29   C31   A    
O25   Zn8   S    
C30   C32   A    
C37   C50   A    
O6    Zn2   S    
C15   C28   A    
O3    Zn7   S    
C8    C11   S    
C73   H33   S    
C83   O19   A    
C64   O9    A    
C84   H16   S    
C3    C45   S    
C12   O27   A    
C18   C20   A    
C1    C32   S    
O11   Zn3   S    
C92   H52   S    
C43   C46   A    
C9    C65   S    
C80   O11   A    
C38   C42   A    
C18   H56   S    
C87   H12   S    
C17   O2    A    
C82   O14   A    
C7    C9    S    
C13   O21   S    
C48   H19   S    
C21   C33   S    
C45   H40   S    
C68   C70   A    
C87   C90   S    
C70   C72   A    
C91   H49   S    
C3    C78   S    
O10   Zn6   S    
C65   O25   A    
C36   C49   A    
C12   C31   S    
C23   H36   S    
O13   Zn4   S    
C54   C57   A    
C27   H23   S    
