data_mof_unit_3434.cif
_audit_creation_date              2012-12-11T14:51:42-0500
_audit_creation_method            fapswitch 2.2
_symmetry_space_group_name_H-M    P1
_symmetry_Int_Tables_number       1
_space_group_crystal_system       triclinic
_cell_length_a                    6.942709
_cell_length_b                    16.640595
_cell_length_c                    16.940476
_cell_angle_alpha                 101.385174
_cell_angle_beta                  90.430579
_cell_angle_gamma                 90.297525
_cell_volume                      1918.53604668

loop_
_atom_site_label
_atom_site_type_symbol
_atom_type_description
_atom_site_fract_x
_atom_site_fract_y
_atom_site_fract_z
_atom_type_partial_charge
O1    O     O_R   0.506340 0.439070 0.579550 -0.537489
O2    O     O_R   0.170010 0.404890 0.412100 -0.540219
O3    O     O_R   0.005010 0.560930 0.420450 -0.537639
C1    C     C_R   0.339144 0.381428 0.383285 0.676598
O4    O     O_R   0.176280 0.429360 0.578400 -0.541468
O5    O     O_R   0.011320 0.585570 0.587940 -0.537861
C2    C     C_R   0.344159 0.413672 0.605192 0.696044
O6    O     O_R   0.500030 0.414430 0.412060 -0.537876
O7    O     O_3   0.340950 0.551220 0.502940 -0.367541
V1    V     V_3+5 0.064020 0.490500 0.499460 1.398245
O8    O     O_R   0.681910 0.595110 0.587900 -0.541631
C3    C     C_R   0.851642 0.618460 0.616606 0.680102
O9    O     O_R   0.675640 0.570640 0.421600 -0.542355
C4    C     C_R   0.842348 0.586233 0.394627 0.699867
V2    V     V_3+5 0.564670 0.509500 0.500540 1.398273
O10   O     O_3   0.837610 0.448780 0.497060 -0.367453
C5    C     C_R   0.927883 0.860974 0.167068 -0.069670
C6    C     C_R   0.837743 0.639067 0.333085 -0.069753
C7    C     C_R   0.646894 0.696719 0.235749 -0.203587
C8    C     C_R   0.667367 0.641559 0.287581 -0.166143
C9    C     C_R   0.990055 0.692322 0.323995 -0.245851
C10   C     C_R   0.969458 0.748768 0.272218 0.160969
C11   C     C_R   0.796090 0.751325 0.227989 0.160983
C12   C     C_R   0.775530 0.807747 0.176182 -0.245939
C13   C     C_R   0.098205 0.858518 0.212616 -0.166113
C14   C     C_R   0.118643 0.803382 0.264472 -0.203376
H1    H     H_    0.644315 0.808276 0.141190 0.122082
H2    H     H_    0.218296 0.898906 0.207352 0.125953
H3    H     H_    0.513273 0.697149 0.202342 0.121568
H4    H     H_    0.252245 0.802964 0.297893 0.121660
H5    H     H_    0.547286 0.601166 0.292847 0.126050
H6    H     H_    0.121293 0.691781 0.358971 0.122184
C15   C     C_3   0.808395 0.818186 0.731060 -0.140863
C16   C     C_3   0.978204 0.768772 0.687141 -0.139141
H7    H     H_    0.056238 0.783714 0.634869 0.102093
H8    H     H_    0.747244 0.874900 0.716060 0.096947
C17   C     C_3   0.865881 0.688800 0.687316 -0.007791
C18   C     C_3   0.695896 0.737385 0.730401 -0.115739
C19   C     C_3   0.787928 0.731471 0.812650 -0.139601
C20   C     C_3   0.957752 0.682078 0.768746 -0.141328
C21   C     C_3   0.070238 0.762868 0.769395 -0.115724
C22   C     C_3   0.900254 0.811430 0.812491 -0.007142
H9    H     H_    0.541645 0.726526 0.713820 0.106119
H10   H     H_    0.709881 0.716543 0.864924 0.101790
H11   H     H_    0.019043 0.625404 0.783760 0.098316
H12   H     H_    0.224487 0.773737 0.785976 0.106070
C23   C     C_3   0.479991 0.234561 0.314022 -0.133141
C24   C     C_3   0.317830 0.179931 0.267953 -0.138348
H13   H     H_    0.264863 0.121551 0.282556 0.098222
H14   H     H_    0.559144 0.221907 0.367388 0.099669
C25   C     C_3   0.410018 0.189136 0.187607 -0.010722
C26   C     C_3   0.572027 0.242989 0.232907 -0.118135
C27   C     C_3   0.448315 0.320120 0.232019 -0.138120
C28   C     C_3   0.286149 0.265491 0.185952 -0.132882
C29   C     C_3   0.194115 0.257061 0.267066 -0.118467
C30   C     C_3   0.356121 0.310918 0.312361 -0.010731
H15   H     H_    0.727186 0.236870 0.218012 0.102992
H16   H     H_    0.501279 0.378501 0.217419 0.098323
H17   H     H_    0.206982 0.278149 0.132593 0.100994
H18   H     H_    0.038963 0.263179 0.281966 0.102981
C31   C     C_R   0.424994 0.136842 0.831228 -0.113545
C32   C     C_R   0.343279 0.361161 0.666943 -0.056643
C33   C     C_R   0.170632 0.312447 0.773429 -0.178925
C34   C     C_R   0.187159 0.366019 0.719991 -0.175646
C35   C     C_R   0.484342 0.301338 0.668787 -0.248800
C36   C     C_R   0.467987 0.244945 0.721619 0.091875
C37   C     C_R   0.308067 0.251348 0.774496 0.149370
C38   C     C_R   0.287295 0.197234 0.828282 -0.258279
C39   C     C_R   0.581090 0.129373 0.777836 -0.159459
C40   C     C_R   0.605467 0.182034 0.722544 0.118538
H19   H     H_    0.167238 0.203783 0.869578 0.126807
H20   H     H_    0.684634 0.081754 0.780648 0.134389
H21   H     H_    0.047847 0.318035 0.813225 0.117859
H22   H     H_    0.075771 0.411309 0.719692 0.119596
H23   H     H_    0.602013 0.297815 0.626828 0.115311
O11   O     O_R   0.266070 0.085680 0.087850 -0.537858
O12   O     O_R   0.590090 0.070660 0.921580 -0.542284
O13   O     O_R   0.754780 0.914400 0.912080 -0.538365
C41   C     C_R   0.422420 0.085966 0.894402 0.710297
O14   O     O_R   0.596110 0.095130 0.087880 -0.540161
O15   O     O_R   0.760850 0.939050 0.079570 -0.537668
C42   C     C_R   0.426973 0.118631 0.116668 0.677222
O16   O     O_R   0.260010 0.061030 0.920360 -0.536919
O17   O     O_3   0.425070 0.948840 0.997010 -0.368192
V3    V     V_3+5 0.702100 0.009490 0.000550 1.398098
O18   O     O_R   0.090200 0.929250 0.078500 -0.542676
C43   C     C_R   0.923427 0.913735 0.105459 0.699725
O19   O     O_R   0.084180 0.904770 0.912200 -0.541857
C44   C     C_R   0.914477 0.881609 0.883332 0.679754
V4    V     V_3+5 0.201420 0.990350 0.999580 1.398612
O20   O     O_3   0.928580 0.051150 0.002990 -0.367049
C45   C     C_3   0.775662 0.172508 0.664818 -0.362297
C46   C     C_3   0.916293 0.103193 0.670139 -0.764610
H24   H     H_    0.982222 0.111980 0.731145 0.232312
H25   H     H_    0.841738 0.042793 0.655291 0.216714
H26   H     H_    0.033911 0.103542 0.626134 0.223459
H27   H     H_    0.718699 0.161752 0.602074 0.175703
H28   H     H_    0.859618 0.230701 0.675820 0.190341

loop_
_geom_bond_atom_site_label_1
_geom_bond_atom_site_label_2
_ccdc_geom_bond_type
C24   C29   S    
C29   C30   S    
C46   H24   S    
C16   C17   S    
C21   C22   S    
C4    C6    S    
O2    C1    A    
C7    C8    A    
C12   H1    S    
C1    O6    A    
V3    O20   S    
C45   H28   S    
C27   C28   S    
C13   H2    S    
C17   C18   S    
C15   C22   S    
C9    C10   A    
C17   C20   S    
O5    C3    A    
C18   C19   S    
V2    O10   S    
C6    C9    A    
C15   H8    S    
C16   H7    S    
C3    C17   S    
C32   C34   A    
O8    V2    S    
C24   C25   S    
C21   H12   S    
O1    V2    S    
C23   H14   S    
O7    V1    S    
C36   C37   A    
O12   V3    S    
C46   H25   S    
C5    C43   S    
O9    C4    A    
C1    C30   S    
C16   C21   S    
O17   V4    S    
C45   H27   S    
C19   C22   S    
C28   H17   S    
O12   C41   A    
O13   C44   A    
C20   H11   S    
C9    H6    S    
C33   C37   A    
C5    C12   A    
C37   C38   A    
O17   V3    S    
O14   C42   A    
O18   V4    S    
O11   C42   A    
C19   C20   S    
O4    C2    A    
O18   C43   A    
C33   H21   S    
C13   C14   A    
C25   C26   S    
C39   H20   S    
C7    C11   A    
C2    C32   S    
O14   V3    S    
C23   C24   S    
C11   C12   A    
C15   C16   S    
C25   C42   S    
O15   C43   A    
O3    C4    A    
O13   V3    S    
C24   H13   S    
O19   V4    S    
C14   H4    S    
C46   H26   S    
O9    V2    S    
O2    V1    S    
C26   C27   S    
C27   C30   S    
C31   C39   A    
O16   V4    S    
C28   C29   S    
C20   C21   S    
C32   C35   A    
O1    C2    A    
C40   C45   S    
O5    V1    S    
C27   H16   S    
C19   H10   S    
O6    V2    S    
C15   C18   S    
C35   H23   S    
C25   C28   S    
C5    C13   A    
C22   C44   S    
O7    V2    S    
O4    V1    S    
O3    V1    S    
V1    O10   S    
C41   O16   A    
C31   C38   A    
V4    O20   S    
C36   C40   A    
C31   C41   S    
C38   H19   S    
C45   C46   S    
C6    C8    A    
C39   C40   A    
C26   H15   S    
C33   C34   A    
C18   H9    S    
O19   C44   A    
C35   C36   A    
C10   C14   A    
C23   C26   S    
C34   H22   S    
C10   C11   A    
C29   H18   S    
O15   V3    S    
O8    C3    A    
O11   V4    S    
C23   C30   S    
C8    H5    S    
C7    H3    S    
