data_mof_unit_2036.cif
_audit_creation_date              2012-12-11T19:49:37-0500
_audit_creation_method            fapswitch 2.2
_symmetry_space_group_name_H-M    P1
_symmetry_Int_Tables_number       1
_space_group_crystal_system       triclinic
_cell_length_a                    8.388597
_cell_length_b                    15.176214
_cell_length_c                    18.964999
_cell_angle_alpha                 104.034192
_cell_angle_beta                  92.375764
_cell_angle_gamma                 97.826779
_cell_volume                      2313.51579694

loop_
_atom_site_label
_atom_site_type_symbol
_atom_type_description
_atom_site_fract_x
_atom_site_fract_y
_atom_site_fract_z
_atom_type_partial_charge
Ba1   Ba    Ba6+2 0.853520 0.540910 0.466490 1.741668
Ba2   Ba    Ba6+2 0.336320 0.459170 0.533520 1.792437
C1    C     C_3   0.669849 0.859515 0.297951 -0.353197
C2    C     C_R   0.891262 0.416808 0.088763 0.042837
C3    C     C_R   0.730804 0.381231 0.062114 -0.063777
C4    C     C_3   0.129859 0.715401 0.276567 0.320842
C5    C     C_R   0.674494 0.383499 0.992165 -0.061296
C6    C     C_R   0.777571 0.420712 0.946747 0.022284
C7    C     C_R   0.938326 0.457247 0.972346 0.036196
C8    C     C_R   0.721593 0.421296 0.876166 -0.112589
C9    C     C_R   0.824363 0.455994 0.828549 -0.050161
C10   C     C_R   0.985741 0.494322 0.853763 0.022200
C11   C     C_R   0.041711 0.494967 0.926442 0.005389
C12   C     C_3   0.646509 0.768060 0.318557 0.344487
C13   C     C_R   0.770730 0.451183 0.755909 0.013264
C14   C     C_R   0.876669 0.483835 0.708921 -0.272935
C15   C     C_R   0.033862 0.529424 0.732929 -0.016617
C16   C     C_3   0.125342 0.736471 0.202184 -0.283810
C17   C     C_R   0.091169 0.531513 0.806875 -0.008856
C18   C     C_R   0.155309 0.492448 0.070340 0.012913
C19   C     C_R   0.210600 0.493062 0.142900 -0.000696
C20   C     C_R   0.104699 0.455974 0.189649 -0.053602
C21   C     C_R   0.947921 0.414509 0.159508 -0.056689
C22   C     C_R   0.249281 0.570059 0.836811 0.063711
C23   C     C_3   0.561309 0.291828 0.305027 0.368919
C24   C     C_R   0.305720 0.568527 0.907483 0.046104
C25   C     C_R   0.202130 0.531089 0.952764 0.012083
C26   C     C_R   0.259503 0.529772 0.024286 0.002692
C27   C     C_R   0.466484 0.603632 0.933065 -0.056764
C28   C     C_3   0.277622 0.757501 0.756196 0.669127
C29   C     C_R   0.525169 0.602166 0.002942 -0.033510
C30   C     C_R   0.421517 0.565487 0.049451 -0.003140
C31   C     C_R   0.372128 0.531044 0.168182 -0.031033
C32   C     C_R   0.475928 0.564265 0.120397 -0.099290
C33   C     C_R   0.425835 0.536307 0.240947 -0.010625
C34   C     C_3   0.531948 0.258748 0.221714 0.396986
C35   C     C_R   0.320176 0.502836 0.287476 -0.272429
C36   C     C_R   0.160490 0.461230 0.264122 -0.038550
C37   C     C_R   0.856843 0.166882 0.545652 -0.032684
C38   C     C_R   0.783665 0.077632 0.546587 -0.067528
C39   C     C_R   0.647520 0.891595 0.532405 -0.060005
C40   C     C_3   0.361519 0.846304 0.739869 -0.098336
C41   C     C_R   0.797186 0.929277 0.571932 0.033408
C42   C     C_R   0.864759 0.020274 0.578225 -0.066003
C43   C     C_R   0.576563 0.799459 0.526011 -0.038327
C44   C     C_R   0.414164 0.774057 0.500174 0.103537
C45   C     C_3   0.078591 0.286580 0.728409 0.327866
C46   C     C_R   0.612504 0.189941 0.480815 -0.027350
C47   C     C_R   0.539921 0.100228 0.478890 -0.092440
C48   C     C_R   0.627562 0.042677 0.509801 0.033713
C49   C     C_R   0.389314 0.063787 0.441033 -0.000536
C50   C     C_R   0.323020 0.973450 0.434498 -0.072625
C51   C     C_R   0.405713 0.915378 0.464654 -0.093751
C52   C     C_3   0.121756 0.251502 0.275450 0.377232
C53   C     C_R   0.560448 0.949765 0.502250 0.057084
C54   C     C_R   0.333782 0.825460 0.461929 -0.053921
C55   C     C_R   0.778475 0.210589 0.500769 0.162728
C56   C     C_3   0.104356 0.268181 0.803117 -0.291439
C57   C     C_3   0.087620 0.220439 0.192748 -0.379619
C58   C     C_3   0.706621 0.669072 0.685353 0.263084
C59   C     C_3   0.776917 0.695469 0.763833 -0.308180
C60   C     C_1   0.709846 0.771351 0.810416 0.401872
C61   C     C_1   0.692688 0.639405 0.025232 0.270300
C62   C     C_3   0.593014 0.229041 0.685483 0.378022
C63   C     C_3   0.675079 0.176301 0.731814 0.315879
C64   C     C_R   0.995069 0.455791 0.043940 0.020067
H1    H     H_    0.725651 0.775219 0.368680 0.076106
H2    H     H_    0.779367 0.620087 0.653185 -0.007770
H3    H     H_    0.581854 0.635054 0.683199 0.092243
H4    H     H_    0.797583 0.877567 0.286872 0.150585
H5    H     H_    0.906229 0.717225 0.762117 0.190336
H6    H     H_    0.758043 0.635763 0.788021 0.026593
H7    H     H_    0.518326 0.752496 0.330017 -0.076248
H8    H     H_    0.638904 0.914434 0.343352 0.073410
H9    H     H_    0.520594 0.360033 0.322696 -0.129391
H10   H     H_    0.691670 0.300353 0.319103 0.127848
H11   H     H_    0.419611 0.279748 0.203110 -0.073186
H12   H     H_    0.272117 0.880527 0.715910 0.127628
H13   H     H_    0.631164 0.293320 0.197082 -0.079601
H14   H     H_    0.590322 0.855119 0.248528 0.136386
H15   H     H_    0.150304 0.676473 0.159902 0.074574
H16   H     H_    0.162542 0.348829 0.726241 0.085604
H17   H     H_    0.952439 0.298685 0.720584 -0.063658
H18   H     H_    0.234259 0.266707 0.815597 0.180906
H19   H     H_    0.064385 0.322565 0.845694 0.047651
H20   H     H_    0.033685 0.201221 0.804369 0.157023
H21   H     H_    0.688933 0.262799 0.657768 -0.574845
H22   H     H_    0.510287 0.180907 0.641411 0.083188
H23   H     H_    0.419207 0.895701 0.790333 0.188247
H24   H     H_    0.774368 0.146041 0.702713 -0.002756
H25   H     H_    0.037633 0.654639 0.274258 0.089752
H26   H     H_    0.727756 0.223654 0.784341 0.030455
H27   H     H_    0.647652 0.352296 0.095511 0.086586
H28   H     H_    0.549751 0.355785 0.973472 0.096832
H29   H     H_    0.833037 0.476771 0.653090 0.058382
H30   H     H_    0.596841 0.393157 0.858982 0.113853
H31   H     H_    0.867871 0.380906 0.191069 0.092583
H32   H     H_    0.333067 0.600292 0.805449 0.075674
H33   H     H_    0.547351 0.631958 0.898190 0.066660
H34   H     H_    0.460291 0.834847 0.703583 0.110684
H35   H     H_    0.600970 0.589811 0.138005 0.118597
H36   H     H_    0.251649 0.699308 0.288840 -0.066626
H37   H     H_    0.364495 0.507893 0.342942 0.074071
H38   H     H_    0.863944 0.889640 0.599261 0.108624
H39   H     H_    0.982450 0.044522 0.607057 0.101355
H40   H     H_    0.204967 0.950700 0.406021 0.116282
H41   H     H_    0.321147 0.103649 0.414548 0.133591
H42   H     H_    0.004312 0.752379 0.188316 0.155213
H43   H     H_    0.218072 0.796330 0.202626 0.130884
H44   H     H_    0.373452 0.716815 0.763329 -0.112226
H45   H     H_    0.132031 0.189495 0.295535 0.140997
H46   H     H_    0.680288 0.036517 0.187894 0.364433
H47   H     H_    0.364636 0.034216 0.655624 0.338311
H48   H     H_    0.180494 0.824314 0.592484 0.290156
H49   H     H_    0.780287 0.108763 0.351577 0.331289
H50   H     H_    0.031796 0.745352 0.915442 0.380327
H51   H     H_    0.239358 0.296666 0.290768 -0.093876
H52   H     H_    0.130051 0.276832 0.167358 0.073282
H53   H     H_    0.956756 0.197980 0.177642 0.190183
H54   H     H_    0.152511 0.162173 0.170022 0.177388
N1    N     N_1   0.659662 0.831550 0.848175 -0.184361
N2    N     N_1   0.826825 0.669134 0.042933 -0.284065
O1    O     O_2   0.871960 0.437280 0.322960 -0.477878
O2    O     O_2   0.196490 0.179008 0.545155 -0.442075
O3    O     O_3   0.110094 0.210109 0.675598 -0.588862
O4    O     O_3   0.121410 0.444460 0.412450 -0.378208
O5    O     O_3   0.580430 0.613240 0.540320 -0.431817
O6    O     O_2   0.337390 0.273050 0.457610 -0.402243
O7    O     O_3   0.479697 0.228596 0.339246 -0.596354
O8    O     O_2   0.435899 0.456906 0.756889 -0.533805
O9    O     O_3   0.503073 0.289936 0.729702 -0.564719
O10   O     O_3   0.661450 0.607570 0.372550 -0.495453
O11   O     O_2   0.760616 0.535030 0.244890 -0.504975
O12   O     O_3   0.711481 0.747682 0.658673 -0.606261
O13   O     O_3   0.992609 0.291391 0.308053 -0.525052
O14   O     O_3   0.688789 0.699481 0.261105 -0.594528
O15   O     O_2   0.852310 0.726980 0.542430 -0.404477
O16   O     O_3   0.084010 0.657370 0.410280 -0.414903
O17   O     O_2   0.995554 0.820785 0.458988 -0.482582
O18   O     O_2   0.390459 0.086080 0.218857 -0.296016
O19   O     O_2   0.486475 0.114512 0.105016 -0.241544
O20   O     O_3   0.699315 0.104437 0.204684 -0.502304
O21   O     O_2   0.629781 0.035679 0.793665 -0.237239
O22   O     O_2   0.404217 0.122052 0.791582 -0.258038
O23   O     O_3   0.095091 0.792003 0.328646 -0.614812
O24   O     O_3   0.462806 0.011214 0.670079 -0.567723
O25   O     O_2   0.251006 0.613032 0.497600 -0.240996
O26   O     O_2   0.382863 0.701623 0.613529 -0.388623
O27   O     O_3   0.136760 0.758702 0.571532 -0.461662
O28   O     O_2   0.897937 0.334428 0.442816 -0.288914
O29   O     O_2   0.049246 0.204402 0.429586 -0.307797
O30   O     O_3   0.783944 0.174349 0.351730 -0.518259
O31   O     O_2   0.322002 0.835077 0.900700 -0.258152
O32   O     O_2   0.092045 0.871002 0.835477 -0.268633
O33   O     O_3   0.066928 0.714296 0.867724 -0.592274
O34   O     O_2   0.317750 0.562750 0.677090 -0.489589
O35   O     O_3   0.068300 0.555620 0.587560 -0.372834
O36   O     O_3   0.528270 0.392500 0.627460 -0.448997
O37   O     O_3   0.161087 0.711457 0.697017 -0.589562
O38   O     O_3   0.609290 0.386840 0.459690 -0.453042
O39   O     O_3   0.105700 0.342700 0.589730 -0.449103
P1    P     P_3+3 0.039430 0.410940 0.333230 1.116408
P2    P     P_3+3 0.676770 0.715000 0.563590 1.116139
P3    P     P_3+3 0.127845 0.774960 0.415846 1.016540
P4    P     P_3+3 0.150290 0.589140 0.666780 1.154020
P5    P     P_3+3 0.064569 0.224686 0.588678 1.057908
P6    P     P_3+3 0.632253 0.592159 0.279333 0.930326
P7    P     P_3+3 0.515599 0.269044 0.434198 1.081597
P8    P     P_3+3 0.561481 0.400794 0.719092 0.963104
S1    S     S_3+6 0.522187 0.137153 0.186244 -0.036797
S2    S     S_3+6 0.538707 0.084982 0.749389 -0.057169
S3    S     S_3+6 0.295425 0.707596 0.545848 -0.065476
S4    S     S_3+6 0.886150 0.233082 0.430914 -0.098664
S5    S     S_3+6 0.187949 0.796037 0.841712 -0.100417

loop_
_geom_bond_atom_site_label_1
_geom_bond_atom_site_label_2
_ccdc_geom_bond_type
C63   H26   S    
C6    C8    A    
C57   H54   S    
O29   S4    D    
O27   S3    S    
O10   P6    S    
Ba1   O10   S    
C23   O7    S    
C46   C55   A    
C42   H39   S    
O25   S3    D    
C26   C30   A    
O22   S2    D    
C24   C25   A    
C63   S2    S    
C22   H32   S    
O34   P4    D    
C18   C64   A    
O17   P3    D    
C33   C35   A    
C22   C24   A    
C40   H34   S    
C34   H11   S    
O11   P6    D    
C31   C33   A    
C62   H22   S    
C19   C31   A    
O8    P8    D    
C4    H25   S    
C37   C55   A    
C16   H15   S    
O12   P2    S    
C13   P8    S    
Ba1   Ba2   S    
C45   H16   S    
H46   O20   S    
C1    H8    S    
C7    C11   A    
C7    C64   A    
C39   C53   A    
H50   O33   S    
C15   C17   A    
C41   H38   S    
C9    C13   A    
C14   C15   A    
C47   C49   A    
H49   O30   S    
C57   H53   S    
C12   H1    S    
C16   H43   S    
C45   H17   S    
C62   H21   S    
O39   P5    S    
O20   S1    S    
Ba2   O5    S    
C59   H5    S    
C4    H36   S    
C50   H40   S    
O24   S2    S    
C39   C41   A    
C63   H24   S    
C1    H14   S    
C56   H20   S    
Ba2   O39   S    
O18   S1    D    
C45   O3    S    
C52   C57   S    
C51   C53   A    
C28   O37   S    
C4    C16   S    
C32   H35   S    
C27   H33   S    
C49   C50   A    
C12   H7    S    
C29   C61   S    
C5    C6    A    
C1    H4    S    
Ba1   O4    S    
O35   P4    S    
C37   C38   A    
O15   P2    D    
O1    P1    D    
O32   S5    D    
C6    C7    A    
C35   H37   S    
C18   C26   A    
C43   C44   A    
C36   P1    S    
O31   S5    D    
O37   P4    S    
O5    P2    S    
C58   C59   S    
C23   H9    S    
C30   C32   A    
H47   O24   S    
C41   C42   A    
Ba1   O1    S    
C35   C36   A    
C56   H18   S    
C33   P6    S    
C29   C30   A    
C46   P7    S    
C62   O9    S    
C8    H30   S    
Ba2   O36   S    
C31   C32   A    
C18   C19   A    
Ba2   P4    S    
C58   H2    S    
C1    C12   S    
C55   S4    S    
O30   S4    S    
Ba2   O4    S    
C59   H6    S    
C49   H41   S    
C46   C47   A    
C21   H31   S    
C28   H44   S    
Ba1   P1    S    
C40   H12   S    
C57   H52   S    
O13   P1    S    
O2    P5    D    
C56   H19   S    
C58   O12   S    
C61   N2    T    
Ba1   O15   S    
C50   C51   A    
O33   S5    S    
C3    C5    A    
C51   C54   A    
C2    C21   A    
C5    H28   S    
O9    P8    S    
C14   H29   S    
Ba2   O34   S    
O7    P7    S    
O4    P1    S    
Ba1   O38   S    
C28   C40   S    
Ba1   O5    S    
C2    C3    A    
C34   H13   S    
C3    H27   S    
C9    C10   A    
O36   P8    S    
O23   P3    S    
C54   P3    S    
C34   S1    S    
C48   C53   A    
C40   H23   S    
C62   C63   S    
C23   H10   S    
C37   P5    S    
Ba1   O35   S    
C17   C22   A    
C43   P2    S    
O21   S2    D    
C27   C29   A    
C15   P4    S    
C45   C56   S    
C2    C64   A    
C12   O14   S    
C58   H3    S    
Ba2   O35   S    
C38   C48   A    
C52   O13   S    
C10   C17   A    
O19   S1    D    
O26   S3    D    
C44   S3    S    
C52   H45   S    
O3    P5    S    
O38   P7    S    
C59   C60   S    
C16   H42   S    
O14   P6    S    
C8    C9    A    
C23   C34   S    
C38   C42   A    
O28   S4    D    
C10   C11   A    
Ba1   P2    S    
C24   C27   A    
Ba2   O38   S    
C47   C48   A    
C4    O23   S    
C52   H51   S    
C44   C54   A    
C25   C26   A    
O6    P7    D    
C39   C43   A    
C20   C21   A    
C11   C25   A    
O16   P3    S    
H48   O27   S    
C19   C20   A    
C28   S5    S    
C60   N1    T    
Ba1   O16   S    
C13   C14   A    
Ba2   O6    S    
C20   C36   A    
