data_mof_unit_3916.cif
_audit_creation_date              2012-12-10T16:51:17-0500
_audit_creation_method            fapswitch 2.2
_symmetry_space_group_name_H-M    P1
_symmetry_Int_Tables_number       1
_space_group_crystal_system       triclinic
_cell_length_a                    27.696805
_cell_length_b                    8.729671
_cell_length_c                    7.42974
_cell_angle_alpha                 102.900861
_cell_angle_beta                  94.062749
_cell_angle_gamma                 92.463696
_cell_volume                      1743.44980601

loop_
_atom_site_label
_atom_site_type_symbol
_atom_type_description
_atom_site_fract_x
_atom_site_fract_y
_atom_site_fract_z
_atom_type_partial_charge
C1    C     C_R   0.499272 0.200367 0.454328 0.828644
C2    C     C_R   0.500786 0.799321 0.546083 0.879366
C3    C     C_R   0.100547 0.513717 0.434118 -0.086549
C4    C     C_R   0.895823 0.526026 0.409990 -0.076249
C5    C     C_R   0.121815 0.367397 0.392366 -0.001989
C6    C     C_R   0.874532 0.665565 0.492891 -0.003769
C7    C     C_R   0.092480 0.228578 0.331433 -0.146258
C8    C     C_R   0.903740 0.802837 0.566711 -0.175097
C9    C     C_R   0.130584 0.654505 0.490551 -0.099674
C10   C     C_R   0.865957 0.387722 0.332491 -0.107506
C11   C     C_R   0.354352 0.491020 0.503426 -0.066720
C12   C     C_R   0.645067 0.511297 0.489842 -0.058444
C13   C     C_R   0.968537 0.382591 0.334521 -0.019578
C14   C     C_R   0.027604 0.663678 0.473519 -0.016507
C15   C     C_R   0.976448 0.665723 0.479492 0.070014
C16   C     C_R   0.019724 0.376676 0.353576 0.070717
C17   C     C_R   0.947053 0.524919 0.407163 0.071212
C18   C     C_R   0.049171 0.518216 0.419911 0.073157
C19   C     C_R   0.938095 0.250796 0.242262 -0.221412
C20   C     C_R   0.057941 0.802888 0.518498 -0.231322
C21   C     C_R   0.887690 0.251885 0.237790 0.266387
C22   C     C_R   0.108351 0.800700 0.525993 0.258445
C23   C     C_R   0.407437 0.497853 0.502104 0.800278
C24   C     C_R   0.592417 0.501997 0.497366 0.799047
C25   C     C_R   0.042475 0.232699 0.312989 -0.225857
C26   C     C_R   0.953659 0.803302 0.560214 -0.224420
C27   C     C_2   0.505495 0.035695 0.432802 0.011134
C28   C     C_2   0.495381 0.963750 0.570730 0.027361
C29   C     C_R   0.172198 0.362090 0.414896 0.500660
C30   C     C_R   0.824355 0.663984 0.504979 0.506008
C31   C     C_R   0.181488 0.642155 0.510427 0.565959
C32   C     C_R   0.815789 0.390818 0.357168 0.562118
C33   C     C_R   0.280714 0.546142 0.662639 0.319116
C34   C     C_R   0.725682 0.451573 0.596533 0.308733
C35   C     C_R   0.331624 0.547861 0.666186 -0.303032
C36   C     C_R   0.675312 0.445504 0.608066 -0.294306
C37   C     C_R   0.325948 0.427505 0.337760 -0.219688
C38   C     C_R   0.665268 0.586420 0.362282 -0.223735
C39   C     C_R   0.275837 0.425332 0.332881 -0.173290
C40   C     C_R   0.715188 0.595673 0.352432 -0.169046
C41   C     C_R   0.252719 0.488307 0.491805 0.338966
C42   C     C_R   0.745532 0.526557 0.466298 0.343992
Cu1   Cu    Cu3+1 0.505380 0.517380 0.684380 0.952065
Cu2   Cu    Cu3+1 0.494620 0.482620 0.315620 0.951500
H1    H     H_    0.342449 0.379652 0.210874 0.165909
H2    H     H_    0.642406 0.639167 0.271232 0.153677
H3    H     H_    0.254650 0.375507 0.204010 0.158754
H4    H     H_    0.730376 0.654957 0.254288 0.147470
H5    H     H_    0.659735 0.386901 0.706433 0.155001
H6    H     H_    0.353400 0.595273 0.795252 0.159633
H7    H     H_    0.022475 0.119967 0.273066 0.137670
H8    H     H_    0.973577 0.912370 0.626763 0.142814
N1    N     N_R   0.200881 0.497796 0.474514 -0.456837
N2    N     N_R   0.796475 0.527131 0.442560 -0.449680
N3    N     N_2   0.486510 0.456430 0.038510 -0.221684
N4    N     N_2   0.513490 0.543570 0.961490 -0.209795
O1    O     O_R   0.503500 0.286120 0.619780 -0.594444
O2    O     O_R   0.496500 0.713880 0.380220 -0.561911
O3    O     O_R   0.494410 0.256780 0.308360 -0.591561
O4    O     O_R   0.505590 0.743220 0.691640 -0.572094
O5    O     O_R   0.434810 0.514700 0.655690 -0.587281
O6    O     O_R   0.565190 0.485300 0.344310 -0.587486
O7    O     O_R   0.425720 0.485350 0.344280 -0.585784
O8    O     O_R   0.574280 0.514650 0.655720 -0.583291
O9    O     O_2   0.192519 0.221787 0.380057 -0.560943
O10   O     O_2   0.803609 0.797165 0.583260 -0.553260
O11   O     O_2   0.786442 0.258942 0.301473 -0.542041
O12   O     O_2   0.211671 0.771904 0.566712 -0.532401
H9    H     H_    0.461040 0.382442 0.949279 0.225895
H10   H     H_    0.538658 0.618678 0.051008 0.239621
H11   H     H_    0.108043 0.115017 0.298076 0.187479
H12   H     H_    0.888160 0.910895 0.632620 0.192646
N5    N     N_2   0.755881 0.376347 0.709447 -0.404760
H13   H     H_    0.738600 0.282054 0.745995 0.265855
C43   C     C_3   0.782039 0.481913 0.867469 -0.663080
H14   H     H_    0.804934 0.413344 0.945599 0.225815
H15   H     H_    0.756177 0.545231 0.960528 0.215444
H16   H     H_    0.806131 0.568596 0.822842 0.244188
N6    N     N_2   0.258422 0.607144 0.829108 -0.395970
H17   H     H_    0.281815 0.673459 0.934869 0.256158
C44   C     C_3   0.227439 0.495325 0.891964 -0.674979
H18   H     H_    0.216654 0.549390 0.032176 0.223358
H19   H     H_    0.246790 0.387317 0.896932 0.218333
H20   H     H_    0.193660 0.462953 0.799867 0.237311
N7    N     N_2   0.860344 0.118446 0.124974 -0.422267
H21   H     H_    0.829432 0.139861 0.051249 0.294660
C45   C     C_3   0.856836 0.981250 0.203393 -0.576698
H22   H     H_    0.836639 0.882682 0.101588 0.224193
H23   H     H_    0.837361 0.007456 0.331390 0.268192
H24   H     H_    0.893559 0.943400 0.236401 0.212172
N8    N     N_2   0.134979 0.948898 0.560950 -0.425109
H25   H     H_    0.163180 0.957869 0.480116 0.320032
C46   C     C_3   0.143372 0.029783 0.753761 -0.567233
H26   H     H_    0.161816 0.147332 0.764342 0.226386
H27   H     H_    0.166639 0.961251 0.830715 0.255476
H28   H     H_    0.108386 0.047051 0.817895 0.207267
H29   H     H_    0.952588 0.146071 0.163735 0.153093
H30   H     H_    0.043372 0.917614 0.541459 0.153399
N9    N     N_2   0.526388 0.955069 0.269837 -0.419470
H31   H     H_    0.513902 0.986571 0.149839 0.281097
C47   C     C_3   0.578738 0.954997 0.289723 -0.687695
H32   H     H_    0.591818 0.884434 0.160815 0.223114
H33   H     H_    0.590744 0.901466 0.406469 0.219327
H34   H     H_    0.595060 0.077277 0.314825 0.227049
N10   N     N_2   0.475206 0.038893 0.737488 -0.440533
H35   H     H_    0.496639 0.124809 0.829972 0.277364
C48   C     C_3   0.423703 0.060475 0.722498 -0.659655
H36   H     H_    0.411355 0.102962 0.862987 0.221363
H37   H     H_    0.403421 0.946778 0.656957 0.232242
H38   H     H_    0.415552 0.148436 0.639062 0.218051

loop_
_geom_bond_atom_site_label_1
_geom_bond_atom_site_label_2
_ccdc_geom_bond_type
N3    N4    D    
C46   H26   S    
C48   H37   S    
N5    H13   S    
C14   C18   A    
C34   C42   A    
C43   H14   S    
C44   H18   S    
C19   H29   S    
C39   C41   A    
N7    H21   S    
N10   C48   S    
C27   N9    S    
C47   H32   S    
C39   H3    S    
C19   C21   A    
C26   H8    S    
C1    O3    A    
C7    H11   S    
C2    O4    A    
C9    C22   A    
Cu2   O3    S    
C8    C26   A    
C3    C18   A    
C40   H4    S    
C11   C23   S    
C11   C37   A    
Cu2   O2    S    
C22   N8    S    
C12   C36   A    
C23   O7    A    
C47   H33   S    
N5    C43   S    
C32   N2    A    
C44   H19   S    
Cu1   O8    S    
C5    C29   A    
N7    C45   S    
C10   C21   A    
C31   O12   S    
C21   N7    S    
C8    H12   S    
C13   C19   A    
C14   C20   A    
C4    C6    A    
N8    H25   S    
C5    C7    A    
Cu1   O1    S    
C33   N6    S    
C15   C26   A    
C6    C8    A    
Cu2   O6    S    
Cu1   Cu2   S    
C25   H7    S    
C3    C9    A    
C1    O1    A    
N8    C46   S    
C30   N2    A    
N9    H31   S    
C28   N10   S    
C48   H36   S    
C35   H6    S    
C30   O10   S    
C31   N1    A    
C43   H15   S    
C41   N1    S    
N3    H9    S    
Cu1   O4    S    
C32   O11   S    
C29   O9    S    
C4    C17   A    
N9    C47   S    
C20   C22   A    
C46   H28   S    
N4    H10   S    
C45   H23   S    
C48   H38   S    
C13   C16   A    
C4    C10   A    
C44   H20   S    
Cu1   O5    S    
N6    C44   S    
C16   C25   A    
C15   C17   A    
C24   O6    A    
C6    C30   A    
C3    C5    A    
C2    O2    A    
C47   H34   S    
N10   H35   S    
C12   C24   S    
C7    C25   A    
C13   C17   A    
C33   C41   A    
C11   C35   A    
C37   C39   A    
C42   N2    S    
C38   C40   A    
Cu2   N3    S    
C46   H27   S    
C29   N1    A    
C40   C42   A    
C33   C35   A    
C24   O8    A    
C34   C36   A    
C12   C38   A    
C43   H16   S    
C38   H2    S    
C9    C31   A    
C34   N5    S    
N6    H17   S    
C10   C32   A    
Cu1   N4    S    
C23   O5    A    
C20   H30   S    
C45   H22   S    
C16   C18   A    
Cu2   O7    S    
C45   H24   S    
C27   C28   D    
C1    C27   S    
C14   C15   A    
C2    C28   S    
C37   H1    S    
C36   H5    S    
