data_mof_unit_4549.cif
_audit_creation_date              2012-10-26T19:08:20-0400
_audit_creation_method            fapswitch 2.2
_symmetry_space_group_name_H-M    P1
_symmetry_Int_Tables_number       1
_space_group_crystal_system       triclinic
_cell_length_a                    14.909898
_cell_length_b                    15.054313
_cell_length_c                    19.357182
_cell_angle_alpha                 73.248946
_cell_angle_beta                  102.281468
_cell_angle_gamma                 115.957633
_cell_volume                      3721.83408701

loop_
_atom_site_label
_atom_site_type_symbol
_atom_type_description
_atom_site_fract_x
_atom_site_fract_y
_atom_site_fract_z
_atom_type_partial_charge
C1    C     C_R   0.880553 0.312851 0.510297 0.537085
C2    C     C_R   0.289904 0.820053 0.506733 -0.136174
C3    C     C_R   0.639316 0.078785 0.506326 0.032391
C4    C     C_R   0.360684 0.921215 0.493675 0.032391
C5    C     C_R   0.676032 0.001919 0.536615 0.051477
C6    C     C_R   0.323968 0.998080 0.463386 0.051477
C7    C     C_R   0.533661 0.052039 0.491663 0.033793
C8    C     C_R   0.466339 0.947961 0.508338 0.033793
C9    C     C_R   0.506998 0.874158 0.538094 -0.140371
C10   C     C_R   0.493002 0.125841 0.461907 -0.140371
C11   C     C_R   0.609552 0.900812 0.551352 -0.140403
C12   C     C_R   0.119446 0.687149 0.489703 0.537084
C13   C     C_R   0.390448 0.099188 0.448649 -0.140403
C14   C     C_R   0.742497 0.700711 0.410794 -0.010923
C15   C     C_R   0.257504 0.299289 0.589207 -0.010922
C16   C     C_R   0.001007 0.501785 0.631828 0.539566
C17   C     C_R   0.998993 0.498214 0.368172 0.539567
C18   C     C_R   0.806552 0.654501 0.408479 0.165277
C19   C     C_R   0.193449 0.345499 0.591521 0.165278
C20   C     C_R   0.708277 0.502134 0.487419 0.117582
C21   C     C_R   0.291723 0.497866 0.512581 0.117581
C22   C     C_R   0.630861 0.538161 0.476026 0.003781
C23   C     C_R   0.812414 0.205273 0.515031 -0.006145
C24   C     C_R   0.369140 0.461839 0.523973 0.003780
C25   C     C_R   0.658110 0.642981 0.449712 0.028670
C26   C     C_R   0.341891 0.357019 0.550288 0.028670
C27   C     C_R   0.530551 0.476863 0.495718 0.027110
C28   C     C_R   0.469449 0.523137 0.504282 0.027110
C29   C     C_R   0.512700 0.628567 0.496680 -0.147126
C30   C     C_R   0.487299 0.371433 0.503320 -0.147126
C31   C     C_R   0.601010 0.687778 0.464416 -0.139512
C32   C     C_R   0.398990 0.312222 0.535584 -0.139513
C33   C     C_R   0.033356 0.437000 0.762909 -0.132274
C34   C     C_R   0.187586 0.794727 0.484970 -0.006147
C35   C     C_R   0.966629 0.562988 0.237090 -0.132276
C36   C     C_R   0.032305 0.432589 0.836068 0.271561
C37   C     C_R   0.967677 0.567397 0.163931 0.271561
C38   C     C_R   0.004478 0.500740 0.854184 0.028407
C39   C     C_R   0.995516 0.499256 0.145816 0.028411
C40   C     C_R   0.975796 0.569885 0.798670 -0.149166
C41   C     C_R   0.024213 0.430122 0.201329 -0.149167
C42   C     C_R   0.973854 0.572412 0.725564 -0.026496
C43   C     C_R   0.026158 0.427596 0.274435 -0.026496
C44   C     C_R   0.002212 0.504194 0.707493 -0.015492
C45   C     C_R   0.779398 0.026947 0.552555 -0.136453
C46   C     C_R   0.997788 0.495805 0.292507 -0.015494
C47   C     C_R   0.996720 0.499540 0.069637 0.358570
C48   C     C_R   0.003273 0.500455 0.930362 0.358567
C49   C     C_3   0.299241 0.590753 0.452543 -0.332783
C50   C     C_3   0.700759 0.409247 0.547457 -0.332782
C51   C     C_3   0.112730 0.287820 0.642687 -0.330999
C52   C     C_3   0.887270 0.712180 0.357313 -0.330999
C53   C     C_3   0.760566 0.809510 0.370978 -0.418028
C54   C     C_3   0.239436 0.190491 0.629024 -0.418029
C55   C     C_3   0.006983 0.265932 0.889063 0.000112
C56   C     C_R   0.220602 0.973053 0.447446 -0.136453
C57   C     C_3   0.071370 0.214003 0.882410 -0.379434
C58   C     C_3   0.992963 0.734045 0.110934 0.000111
C59   C     C_3   0.928558 0.785953 0.117588 -0.379433
C60   C     C_3   0.944767 0.650558 0.668700 -0.366138
C61   C     C_3   0.055262 0.349461 0.331298 -0.366136
C62   C     C_R   0.847047 0.127962 0.542288 -0.143890
C63   C     C_R   0.152953 0.872038 0.457713 -0.143890
C64   C     C_R   0.710096 0.179947 0.493267 -0.136174
Cu1   Cu    Cu3+1 0.081740 0.475680 0.518680 0.902078
Cu2   Cu    Cu3+1 0.918260 0.524320 0.481320 0.902078
H1    H     H_    0.057701 0.386531 0.749481 0.117907
H2    H     H_    0.362990 0.158499 0.425677 0.107385
H3    H     H_    0.312055 0.758880 0.533722 0.119909
H4    H     H_    0.687945 0.241119 0.466277 0.119909
H5    H     H_    0.074018 0.854840 0.443952 0.121422
H6    H     H_    0.925982 0.145160 0.556050 0.121421
H7    H     H_    0.807789 0.968261 0.574615 0.102889
H8    H     H_    0.192210 0.031739 0.425386 0.102889
H9    H     H_    0.461994 0.794349 0.552456 0.094897
H10   H     H_    0.538006 0.205651 0.447545 0.094896
H11   H     H_    0.327053 0.658780 0.474884 0.113336
H12   H     H_    0.942273 0.613449 0.250518 0.117912
H13   H     H_    0.349230 0.603785 0.412336 0.096580
H14   H     H_    0.229153 0.584373 0.418990 0.187530
H15   H     H_    0.650770 0.396214 0.587664 0.096581
H16   H     H_    0.672947 0.341219 0.525116 0.113335
H17   H     H_    0.770847 0.415627 0.581009 0.187531
H18   H     H_    0.064935 0.325025 0.643037 0.186614
H19   H     H_    0.062351 0.214014 0.629074 0.094936
H20   H     H_    0.148222 0.274663 0.699101 0.084697
H21   H     H_    0.935064 0.674974 0.356962 0.186613
H22   H     H_    0.851778 0.725339 0.300900 0.084692
H23   H     H_    0.625444 0.769117 0.453442 0.118868
H24   H     H_    0.937651 0.785986 0.370927 0.094939
H25   H     H_    0.819260 0.845747 0.333299 0.124815
H26   H     H_    0.690776 0.811683 0.337541 0.138430
H27   H     H_    0.782665 0.857383 0.410979 0.125896
H28   H     H_    0.180744 0.154255 0.666704 0.124815
H29   H     H_    0.217335 0.142617 0.589023 0.125896
H30   H     H_    0.309227 0.188319 0.662460 0.138430
H31   H     H_    0.943201 0.252955 0.845379 0.101786
H32   H     H_    0.973582 0.228581 0.941456 0.166117
H33   H     H_    0.131894 0.220930 0.927916 0.171993
H34   H     H_    0.374556 0.230883 0.546558 0.118868
H35   H     H_    0.024405 0.132431 0.884118 0.096080
H36   H     H_    0.105575 0.249358 0.830321 0.141857
H37   H     H_    0.026361 0.771402 0.058540 0.166117
H38   H     H_    0.056747 0.747035 0.154616 0.101785
H39   H     H_    0.894354 0.750590 0.169678 0.141861
H40   H     H_    0.975507 0.867527 0.115879 0.096078
H41   H     H_    0.868031 0.779014 0.072083 0.171994
H42   H     H_    0.003042 0.694783 0.630297 0.151632
H43   H     H_    0.871280 0.612902 0.638822 0.159543
H44   H     H_    0.937329 0.705058 0.693103 0.110961
H45   H     H_    0.477789 0.666617 0.513941 0.106514
H46   H     H_    0.996991 0.305229 0.369704 0.151637
H47   H     H_    0.062710 0.294967 0.306895 0.110961
H48   H     H_    0.128748 0.387128 0.361173 0.159540
H49   H     H_    0.522211 0.333383 0.486059 0.106513
H50   H     H_    0.953690 0.621877 0.812362 0.142710
H51   H     H_    0.046329 0.378137 0.187637 0.142708
H52   H     H_    0.637010 0.841501 0.574325 0.107385
N1    N     N_R   0.004171 0.582180 0.947501 -0.250872
N2    N     N_R   0.995822 0.417815 0.052499 -0.250869
N3    N     N_R   0.001233 0.581825 0.015751 -0.175936
N4    N     N_R   0.998759 0.418170 0.984248 -0.175930
N5    N     N_R   0.795420 0.560800 0.453240 -0.222275
N6    N     N_R   0.204580 0.439200 0.546760 -0.222274
O1    O     O_R   0.977910 0.338110 0.524620 -0.513225
O2    O     O_3   0.931857 0.630924 0.110111 -0.533621
O3    O     O_R   0.022090 0.661890 0.475380 -0.513224
O4    O     O_R   0.839850 0.379180 0.493080 -0.509394
O5    O     O_R   0.160150 0.620820 0.506920 -0.509393
O6    O     O_R   0.069040 0.479450 0.615630 -0.509785
O7    O     O_R   0.930960 0.520550 0.384370 -0.509787
O8    O     O_R   0.930990 0.520520 0.584090 -0.515853
O9    O     O_R   0.069010 0.479480 0.415910 -0.515854
O10   O     O_3   0.068109 0.369049 0.889888 -0.533619

loop_
_geom_bond_atom_site_label_1
_geom_bond_atom_site_label_2
_ccdc_geom_bond_type
C25   C31   A    
C7    C10   A    
C38   C40   A    
C26   C32   A    
C17   O7    A    
C14   C18   A    
C52   H24   S    
C1    O4    A    
C4    C8    A    
C51   H19   S    
C21   C49   S    
Cu1   O6    S    
Cu2   O7    S    
C18   C52   S    
C7    C8    A    
C39   C41   A    
C12   O3    A    
C3    C64   A    
C15   C19   A    
C57   H36   S    
C33   H1    S    
C59   H39   S    
C28   C29   A    
C35   C37   A    
C1    O1    A    
C5    C11   A    
C3    C7    A    
C48   N4    A    
C47   N3    A    
C57   H33   S    
C45   C62   A    
C33   C36   A    
Cu2   O3    S    
C45   H7    S    
Cu1   N6    S    
C20   N5    A    
C20   C50   S    
C60   H43   S    
C10   H10   S    
C23   C62   A    
C49   H11   S    
C8    C9    A    
C31   H23   S    
C22   C25   A    
C53   H25   S    
C64   H4    S    
C2    H3    S    
C16   O6    A    
C16   C44   S    
C54   H30   S    
C60   H42   S    
C18   N5    A    
C2    C34   A    
C40   C42   A    
C27   C30   A    
C41   C43   A    
C42   C44   A    
C51   H20   S    
N2    N4    A    
C50   H17   S    
C48   N1    A    
Cu2   O8    S    
C30   H49   S    
N1    N3    A    
C19   N6    A    
C59   H40   S    
C56   H8    S    
C12   O5    A    
C53   H27   S    
C15   C54   S    
C52   H22   S    
C17   C46   S    
C4    C6    A    
C42   C60   S    
C15   C26   A    
C50   H16   S    
C58   C59   S    
C5    C45   A    
C59   H41   S    
C32   H34   S    
Cu1   O1    S    
C2    C4    A    
C19   C51   S    
C55   H31   S    
C53   H26   S    
C56   C63   A    
C62   H6    S    
C9    C11   A    
C54   H29   S    
C47   N2    A    
C63   H5    S    
C58   O2    S    
C22   C27   A    
C55   C57   S    
C17   O9    A    
C58   H38   S    
C20   C22   A    
C12   C34   S    
C61   H48   S    
C43   C61   S    
C39   C47   S    
C37   O2    S    
C23   C64   A    
C33   C44   A    
C38   C48   S    
C29   H45   S    
C52   H21   S    
C24   C28   A    
C6    C56   A    
C3    C5    A    
C10   C13   A    
C36   O10   S    
Cu1   O5    S    
C1    C23   S    
C55   O10   S    
C57   H35   S    
C35   H12   S    
C49   H14   S    
C21   N6    A    
C36   C38   A    
C37   C39   A    
C6    C13   A    
C30   C32   A    
C61   H46   S    
C24   C26   A    
C40   H50   S    
C55   H32   S    
C34   C63   A    
Cu2   O4    S    
C14   C25   A    
C16   O8    A    
C43   C46   A    
C54   H28   S    
C60   H44   S    
C61   H47   S    
C49   H13   S    
C14   C53   S    
C29   C31   A    
Cu1   Cu2   S    
C21   C24   A    
C27   C28   A    
Cu2   N5    S    
C58   H37   S    
C9    H9    S    
C41   H51   S    
C35   C46   A    
C51   H18   S    
C11   H52   S    
Cu1   O9    S    
C50   H15   S    
C13   H2    S    
