data_mof_unit_1720.cif
_audit_creation_date              2012-12-10T19:00:14-0500
_audit_creation_method            fapswitch 2.2
_symmetry_space_group_name_H-M    P1
_symmetry_Int_Tables_number       1
_space_group_crystal_system       triclinic
_cell_length_a                    9.592944
_cell_length_b                    10.833296
_cell_length_c                    13.396589
_cell_angle_alpha                 90.880911
_cell_angle_beta                  71.8334
_cell_angle_gamma                 89.408397
_cell_volume                      1322.49611832

loop_
_atom_site_label
_atom_site_type_symbol
_atom_type_description
_atom_site_fract_x
_atom_site_fract_y
_atom_site_fract_z
_atom_type_partial_charge
C1    C     C_R   0.500416 0.737622 0.498139 0.776690
C2    C     C_R   0.440370 0.500733 0.977299 0.016949
C3    C     C_R   0.461084 0.455276 0.873557 0.000574
C4    C     C_R   0.542836 0.466285 0.029560 -0.016358
C5    C     C_R   0.657663 0.380587 0.980649 0.026556
C6    C     C_R   0.671383 0.329833 0.880932 0.290361
C7    C     C_R   0.566012 0.359861 0.831146 0.283017
C8    C     C_R   0.534422 0.514294 0.129651 -0.260824
C9    C     C_R   0.734544 0.381063 0.138168 0.365582
C10   C     C_R   0.372258 0.504031 0.815768 -0.046598
C11   C     C_R   0.386978 0.937742 0.475821 0.042401
C12   C     C_R   0.420649 0.498357 0.700292 0.864165
C13   C     C_R   0.505831 0.870728 0.487568 -0.121592
C14   C     C_R   0.635073 0.934122 0.483118 -0.191969
C15   C     C_R   0.636074 0.062833 0.482680 -0.194128
C16   C     C_R   0.507684 0.129309 0.487090 -0.063496
C17   C     C_R   0.387555 0.065039 0.476701 0.019990
C18   C     C_3   0.228660 0.076797 0.538585 -0.528399
C19   C     C_3   0.227047 0.936380 0.537788 0.294711
C20   C     C_R   0.945064 0.401369 0.459872 0.132816
C21   C     C_R   0.900837 0.589478 0.551125 -0.031711
C22   C     C_R   0.047137 0.588533 0.554134 0.504977
C23   C     C_R   0.501602 0.262507 0.497821 0.852661
C24   C     C_R   0.092557 0.402220 0.458224 0.164057
C25   C     C_3   0.143737 0.351017 0.348294 0.167999
C26   C     C_3   0.984331 0.349888 0.351162 -0.452775
C27   C     C_R   0.579112 0.494420 0.299680 0.836638
C28   C     C_R   0.754812 0.342155 0.034266 -0.203178
C29   C     C_R   0.623716 0.468370 0.185822 -0.080241
C30   C     C_R   0.248568 0.577089 0.866819 -0.217278
C31   C     C_R   0.218399 0.610070 0.971865 -0.131985
C32   C     C_R   0.314653 0.575827 0.025957 -0.144040
Cu1   Cu    Cu3+1 0.359330 0.500020 0.500010 0.990697
Cu2   Cu    Cu3+1 0.640670 0.499980 0.499990 0.983080
H1    H     H_    0.734470 0.109616 0.484611 0.165047
H2    H     H_    0.210665 0.118055 0.618230 0.193049
H3    H     H_    0.825821 0.662512 0.591744 0.161301
H4    H     H_    0.197376 0.258293 0.341445 0.095305
H5    H     H_    0.959700 0.417054 0.296990 0.273963
H6    H     H_    0.941523 0.255333 0.348678 0.172648
H7    H     H_    0.455190 0.584746 0.168436 0.179343
H8    H     H_    0.178522 0.613471 0.824206 0.151569
H9    H     H_    0.284892 0.607285 0.106574 0.158122
H10   H     H_    0.122745 0.666935 0.010633 0.149144
N1    N     N_R   0.852320 0.499070 0.499340 -0.213461
N2    N     N_R   0.148230 0.499110 0.499340 -0.217148
O1    O     O_R   0.381190 0.680360 0.500000 -0.564162
O2    O     O_R   0.618780 0.680320 0.499990 -0.598634
O3    O     O_R   0.323230 0.500000 0.650990 -0.630053
O4    O     O_R   0.560820 0.499960 0.650980 -0.546132
O5    O     O_R   0.381220 0.319680 0.500010 -0.590461
O6    O     O_R   0.618810 0.319640 0.500000 -0.557128
O7    O     O_R   0.439180 0.500040 0.349020 -0.528025
O8    O     O_R   0.676770 0.500000 0.349010 -0.546658
O9    O     O_3   0.813927 0.327800 0.196444 -0.761723
H11   H     H_    0.885733 0.267314 0.151860 0.315504
H12   H     H_    0.162657 0.119832 0.493017 0.191610
H13   H     H_    0.204529 0.895960 0.616900 0.158565
O10   O     O_3   0.139373 0.886710 0.480514 -0.669495
H14   H     H_    0.171844 0.920441 0.408480 0.322943
O11   O     O_3   0.081352 0.679944 0.614136 -0.729299
H15   H     H_    0.163313 0.650641 0.636842 0.349846
O12   O     O_3   0.223622 0.436267 0.276131 -0.689273
H16   H     H_    0.249562 0.393597 0.206550 0.326125
O13   O     O_3   0.787867 0.250204 0.833990 -0.748277
H17   H     H_    0.811393 0.254698 0.756662 0.332122
H18   H     H_    0.841227 0.275224 0.998174 0.189058
O14   O     O_3   0.554908 0.290037 0.746644 -0.741382
H19   H     H_    0.596907 0.206442 0.748184 0.332723
H20   H     H_    0.733058 0.885182 0.485333 0.183978

loop_
_geom_bond_atom_site_label_1
_geom_bond_atom_site_label_2
_ccdc_geom_bond_type
C2    C4    A    
O9    H11   S    
C27   O7    A    
C1    O2    A    
Cu2   O8    S    
C6    C7    A    
C9    O9    S    
C25   H4    S    
Cu1   O5    S    
C5    C28   A    
C11   C13   A    
C10   C30   A    
C18   H12   S    
C21   N1    A    
C31   C32   A    
C9    C29   A    
C30   C31   A    
C4    C8    A    
C24   N2    A    
C17   C18   S    
C25   C26   S    
C27   O8    A    
O10   H14   S    
O13   H17   S    
C3    C10   A    
O14   H19   S    
C13   C14   A    
C8    H7    S    
C22   O11   S    
Cu1   N2    S    
C14   H20   S    
C26   H6    S    
C23   O6    A    
C5    C6    A    
C20   C26   S    
C8    C29   A    
C10   C12   S    
C15   H1    S    
C22   N2    A    
C32   H9    S    
Cu1   Cu2   S    
C12   O3    A    
C16   C23   S    
C2    C3    A    
C11   C19   S    
C19   H13   S    
Cu1   O7    S    
O11   H15   S    
Cu1   O1    S    
C26   H5    S    
Cu2   O4    S    
C1    C13   S    
C31   H10   S    
Cu1   O3    S    
C15   C16   A    
C16   C17   A    
C20   C24   A    
C28   H18   S    
C21   H3    S    
C24   C25   S    
C2    C32   A    
C18   C19   S    
C25   O12   S    
C20   N1    A    
C27   C29   S    
Cu2   N1    S    
C14   C15   A    
C30   H8    S    
Cu2   O6    S    
C3    C7    A    
C19   O10   S    
C7    O14   S    
C21   C22   A    
C18   H2    S    
C12   O4    A    
C6    O13   S    
C11   C17   A    
C23   O5    A    
O12   H16   S    
C9    C28   A    
C1    O1    A    
C4    C5    A    
Cu2   O2    S    
