data_mof_unit_1796.cif
_audit_creation_date              2013-03-05T15:47:14-0500
_audit_creation_method            fapswitch 2.2
_symmetry_space_group_name_H-M    P1
_symmetry_Int_Tables_number       1
_space_group_crystal_system       triclinic
_cell_length_a                    27.788068
_cell_length_b                    10.842872
_cell_length_c                    9.825309
_cell_angle_alpha                 110.045641
_cell_angle_beta                  99.375184
_cell_angle_gamma                 90.95281
_cell_volume                      2735.50305057

loop_
_atom_site_label
_atom_site_type_symbol
_atom_site_description
_atom_site_fract_x
_atom_site_fract_y
_atom_site_fract_z
_atom_type_partial_charge
O1    O     O_R   0.504520 0.332330 0.577400 -0.569411
O2    O     O_R   0.495480 0.667670 0.422600 -0.572441
O3    O     O_R   0.490210 0.295500 0.332650 -0.575692
O4    O     O_R   0.509790 0.704500 0.667350 -0.579558
C1    C     C_R   0.498449 0.253046 0.442335 0.766405
C2    C     C_R   0.505178 0.747077 0.557739 0.769609
O5    O     O_R   0.437420 0.518430 0.622370 -0.616278
O6    O     O_R   0.562580 0.481570 0.377630 -0.597781
O7    O     O_R   0.423110 0.481600 0.377610 -0.523624
O8    O     O_R   0.576890 0.518400 0.622390 -0.507721
C3    C     C_R   0.407226 0.498026 0.499226 0.871511
C4    C     C_R   0.592742 0.500727 0.500315 0.968566
Cu1   Cu    Cu3+1 0.508480 0.521810 0.644910 1.059976
Cu2   Cu    Cu3+1 0.491520 0.478190 0.355090 1.054137
C5    C     C_R   0.176639 0.391238 0.520488 0.647070
C6    C     C_R   0.824634 0.610284 0.498550 0.655115
O9    O     O_2   0.201671 0.295773 0.551685 -0.495026
O10   O     O_2   0.803214 0.724873 0.523356 -0.479862
N1    N     N_R   0.201089 0.492055 0.500308 -0.414922
N2    N     N_R   0.797599 0.497978 0.481109 -0.419570
C7    C     C_R   0.177064 0.590701 0.468815 0.660522
C8    C     C_R   0.817885 0.380022 0.456612 0.678122
C9    C     C_R   0.286062 0.532646 0.633674 0.420410
C10   C     C_R   0.712627 0.496429 0.363731 0.419909
C11   C     C_R   0.336429 0.532054 0.631088 -0.391312
C12   C     C_R   0.662688 0.498325 0.370926 -0.325796
C13   C     C_R   0.319828 0.451366 0.362643 0.294382
C14   C     C_R   0.680390 0.507754 0.625727 0.321027
C15   C     C_R   0.269037 0.444821 0.365353 0.277992
C16   C     C_R   0.731138 0.513080 0.620866 0.283288
C17   C     C_R   0.252721 0.489765 0.500456 0.255336
C18   C     C_R   0.746506 0.503177 0.488694 0.248299
C19   C     C_R   0.099758 0.484364 0.470189 -0.093421
C20   C     C_R   0.896590 0.486605 0.466769 -0.094278
C21   C     C_R   0.125602 0.386327 0.507816 -0.023788
C22   C     C_R   0.874445 0.606634 0.490050 -0.028064
C23   C     C_R   0.100050 0.286119 0.532656 -0.101651
C24   C     C_R   0.902591 0.720819 0.506806 -0.085583
C25   C     C_R   0.125452 0.586008 0.445980 -0.200533
C26   C     C_R   0.868479 0.371892 0.453386 -0.186646
C27   C     C_R   0.353731 0.492988 0.497045 -0.149775
C28   C     C_R   0.646091 0.503212 0.500233 -0.134438
H1    H     H_    0.119178 0.212147 0.566288 0.209207
H2    H     H_    0.886895 0.815079 0.530490 0.211938
C29   C     C_R   0.970282 0.365200 0.447054 -0.135025
C30   C     C_R   0.023009 0.586779 0.436588 -0.135038
C31   C     C_R   0.973832 0.595512 0.459783 0.105402
C32   C     C_R   0.022290 0.372662 0.470685 0.108103
C33   C     C_R   0.946927 0.482165 0.457559 0.059107
C34   C     C_R   0.048243 0.480885 0.458036 0.055412
C35   C     C_R   0.940929 0.247162 0.418035 0.251908
C36   C     C_R   0.047998 0.679357 0.393773 0.252949
C37   C     C_R   0.891192 0.252094 0.429590 0.364867
C38   C     C_R   0.098752 0.677650 0.396965 0.376217
O11   O     O_2   0.788693 0.271433 0.433195 -0.461631
O12   O     O_2   0.203380 0.693585 0.462309 -0.481992
C39   C     C_R   0.049337 0.280085 0.515778 -0.102014
C40   C     C_R   0.951556 0.715588 0.493337 -0.089101
H3    H     H_    0.636713 0.494441 0.274228 0.208077
H4    H     H_    0.362139 0.564823 0.734302 0.194940
H5    H     H_    0.031964 0.205120 0.544781 0.187067
H6    H     H_    0.972071 0.807769 0.514700 0.196149
C41   C     C_2   0.502116 0.111253 0.416132 0.154426
C42   C     C_2   0.511605 0.889353 0.584315 0.155153
C43   C     C_2   0.534670 0.071923 0.509018 0.303196
C44   C     C_2   0.534054 0.932045 0.494022 0.305068
H7    H     H_    0.467190 0.417509 0.845557 0.146133
H8    H     H_    0.533064 0.581631 0.154124 0.181046
N3    N     N_2   0.478780 0.445430 0.137360 -0.053451
N4    N     N_2   0.521220 0.554570 0.862640 -0.047202
C45   C     C_2   0.504281 0.509740 0.080475 0.185908
C46   C     C_2   0.495902 0.489668 0.919344 0.182078
O13   O     O_3   0.336894 0.418693 0.231267 -0.698581
H9    H     H_    0.312604 0.440080 0.158580 0.349321
O14   O     O_3   0.663628 0.503342 0.748974 -0.654262
H10   H     H_    0.687227 0.459584 0.800726 0.360430
O15   O     O_3   0.492639 0.979780 0.696214 -0.695534
H11   H     H_    0.475893 0.931238 0.746518 0.349729
O16   O     O_3   0.470943 0.017725 0.301716 -0.703490
H12   H     H_    0.448529 0.063856 0.249563 0.344309
O17   O     O_3   0.557204 0.642272 0.954094 -0.581966
H13   H     H_    0.572114 0.679579 0.890423 0.397836
O18   O     O_3   0.443055 0.356941 0.045729 -0.625907
H14   H     H_    0.428173 0.319580 0.109403 0.394420
O19   O     O_3   0.234209 0.394016 0.238726 -0.702001
H15   H     H_    0.248863 0.328157 0.162397 0.353634
O20   O     O_3   0.766742 0.528759 0.742560 -0.682960
H16   H     H_    0.753674 0.576893 0.832530 0.358752
O21   O     O_3   0.729417 0.487992 0.236291 -0.664697
H17   H     H_    0.701123 0.484018 0.158592 0.352645
O22   O     O_3   0.268407 0.574657 0.764254 -0.675875
H18   H     H_    0.296420 0.601290 0.847668 0.340677
O23   O     O_3   0.865174 0.136698 0.411088 -0.597792
H19   H     H_    0.852976 0.151035 0.504331 0.363242
O24   O     O_3   0.120488 0.761076 0.341803 -0.610627
H20   H     H_    0.141188 0.708181 0.273518 0.363112
N5    N     N_R   0.959581 0.120214 0.360258 0.158200
O25   O     O_R   0.949550 0.026112 0.407630 -0.283593
O26   O     O_R   0.983718 0.095536 0.252099 -0.272556
N6    N     N_R   0.021523 0.761611 0.324809 0.149021
O27   O     O_R   0.037673 0.883260 0.356000 -0.238343
O28   O     O_R   0.983842 0.711474 0.220324 -0.290178
N7    N     N_R   0.560943 0.847337 0.389747 0.107933
O29   O     O_R   0.564735 0.870430 0.270262 -0.269223
O30   O     O_R   0.589941 0.767333 0.428150 -0.378917
N8    N     N_R   0.572930 0.160856 0.616382 0.124727
O31   O     O_R   0.598889 0.240545 0.578568 -0.339518
O32   O     O_R   0.588655 0.142201 0.739471 -0.275369

loop_
_geom_bond_atom_site_label_1
_geom_bond_atom_site_label_2
_geom_bond_distance
_ccdc_geom_bond_type
C40   H6    1.079962 S    
O20   H16   0.990092 S    
C41   C43   1.357850 D    
C35   N5    1.438578 S    
O23   H19   0.991790 S    
C13   C15   1.417034 A    
C42   O15   1.383786 S    
O24   H20   0.991387 S    
O7    Cu2   1.948798 S    
N1    C17   1.435144 S    
C10   O21   1.381004 S    
O17   H13   0.989439 S    
C32   C39   1.410767 A    
C31   C33   1.419725 A    
C41   O16   1.383661 S    
O15   H11   0.991451 S    
C5    N1    1.365154 A    
C19   C25   1.410622 A    
O1    C1    1.291794 A    
N1    C7    1.367066 A    
C10   C12   1.401075 A    
C25   C38   1.416303 A    
N8    O31   1.300641 A    
C29   C35   1.422673 A    
C30   C36   1.424173 A    
C1    C41   1.477430 S    
H7    C46   1.084554 S    
O13   H9    0.990512 S    
C2    C42   1.476299 S    
O4    Cu1   1.915573 S    
N3    C45   1.296371 D    
N4    O17   1.342181 S    
C4    C28   1.482408 S    
C24   C40   1.388572 A    
C11   H4    1.083311 S    
C12   H3    1.083316 S    
C15   O19   1.381350 S    
C6    N2    1.364248 A    
C32   C34   1.419002 A    
Cu1   Cu2   2.680773 S    
O2    C2    1.291875 A    
C5    C21   1.401814 A    
N5    O26   1.301543 A    
C36   C38   1.406177 A    
N5    O25   1.301460 A    
C37   O23   1.375678 S    
O4    C2    1.298934 A    
C11   C27   1.405606 A    
O22   H18   0.991700 S    
C19   C34   1.415738 A    
O19   H15   0.990071 S    
C36   N6    1.438571 S    
C35   C37   1.405489 A    
C9    C17   1.400420 A    
C23   H1    1.083373 S    
O5    C3    1.302468 A    
O14   H10   0.990343 S    
C10   C18   1.399532 A    
C24   H2    1.083431 S    
N3    O18   1.342241 S    
C13   C27   1.416702 A    
O18   H14   0.989438 S    
C7    C25   1.412347 A    
C29   C33   1.414136 A    
O6    C4    1.300799 A    
C8    C26   1.414949 A    
N6    O28   1.301579 A    
N7    O30   1.301063 A    
O7    C3    1.297271 A    
C38   O24   1.378909 S    
O3    Cu2   1.915572 S    
O8    C4    1.298746 A    
N2    C8    1.366990 A    
C43   C44   1.472225 S    
Cu2   N3    2.013976 S    
C9    O22   1.380607 S    
O1    Cu1   1.925502 S    
C43   N8    1.440885 S    
C12   C28   1.405417 A    
N2    C18   1.434819 S    
C29   C32   1.422313 A    
C5    O9    1.349547 S    
C30   C31   1.420995 A    
C20   C33   1.416881 A    
O6    Cu2   1.949120 S    
C14   C28   1.416014 A    
C21   C23   1.398897 A    
C44   N7    1.441762 S    
O3    C1    1.299590 A    
O8    Cu1   1.948803 S    
C7    O12   1.349199 S    
C39   H5    1.079595 S    
C8    O11   1.348702 S    
C30   C34   1.413857 A    
C14   C16   1.419619 A    
C16   O20   1.380970 S    
C45   C46   1.499994 S    
C15   C17   1.401813 A    
C6    C22   1.400588 A    
C31   C40   1.409260 A    
C16   C18   1.402496 A    
N8    O32   1.301117 A    
H8    C45   1.083955 S    
C22   C24   1.399207 A    
N6    O27   1.301363 A    
C19   C21   1.410915 A    
C3    C27   1.483013 S    
C20   C22   1.411805 A    
C9    C11   1.404054 A    
O2    Cu2   1.925503 S    
O16   H12   0.991347 S    
O5    Cu1   1.949120 S    
C6    O10   1.349710 S    
C26   C37   1.416833 A    
Cu1   N4    2.013977 S    
N7    O29   1.301146 A    
C20   C26   1.413029 A    
N4    C46   1.296382 D    
O21   H17   0.991782 S    
C13   O13   1.381349 S    
C14   O14   1.381430 S    
C23   C39   1.389610 A    
C42   C44   1.357453 D    
