data_mof_unit_4917.cif
_audit_creation_date              2012-12-10T19:03:37-0500
_audit_creation_method            fapswitch 2.2
_symmetry_space_group_name_H-M    P1
_symmetry_Int_Tables_number       1
_space_group_crystal_system       triclinic
_cell_length_a                    15.90159
_cell_length_b                    10.820352
_cell_length_c                    9.546695
_cell_angle_alpha                 90.963651
_cell_angle_beta                  90.483243
_cell_angle_gamma                 90.639712
_cell_volume                      1642.21623469

loop_
_atom_site_label
_atom_site_type_symbol
_atom_type_description
_atom_site_fract_x
_atom_site_fract_y
_atom_site_fract_z
_atom_type_partial_charge
C1    C     C_R   0.498979 0.262202 0.498661 0.823391
C2    C     C_3   0.953636 0.479455 0.651249 -0.372596
C3    C     C_3   0.917506 0.518559 0.506927 0.113060
C4    C     C_3   0.951830 0.650382 0.469535 0.302282
C5    C     C_3   0.049707 0.645143 0.447214 0.285866
C6    C     C_1   0.825153 0.514534 0.506375 -0.044259
C7    C     C_1   0.175107 0.510024 0.500369 -0.073253
C8    C     C_1   0.250526 0.503559 0.498968 -0.198595
C9    C     C_R   0.503464 0.066255 0.622101 -0.024231
C10   C     C_R   0.491752 0.128590 0.496504 -0.174294
C11   C     C_R   0.472758 0.060634 0.371793 0.412415
C12   C     C_R   0.340153 0.499532 0.499561 0.803598
C13   C     C_R   0.471279 0.931251 0.376043 -0.329767
C14   C     C_R   0.488875 0.869936 0.501011 -0.133975
C15   C     C_R   0.503509 0.938483 0.623335 0.014891
C16   C     C_3   0.579050 0.936928 0.718681 0.308471
C17   C     C_3   0.577421 0.077821 0.720475 -0.500613
C18   C     C_R   0.560036 0.565164 0.075901 0.187290
C19   C     C_R   0.437319 0.443846 0.072413 -0.053823
C20   C     C_R   0.437252 0.443965 0.923700 -0.077910
C21   C     C_R   0.561189 0.562515 0.928303 0.195395
C22   C     C_3   0.653602 0.536857 0.926661 0.245345
C23   C     C_R   0.497061 0.737305 0.500662 0.837125
C24   C     C_3   0.652437 0.545466 0.085543 -0.546260
C25   C     C_R   0.659876 0.501614 0.500717 0.825111
C26   C     C_3   0.049910 0.507179 0.658759 0.202285
C27   C     C_3   0.045794 0.410576 0.410450 0.327272
C28   C     C_3   0.949187 0.424430 0.396640 -0.545419
C29   C     C_1   0.749616 0.508379 0.503353 -0.205031
C30   C     C_3   0.082920 0.519203 0.503480 0.042066
Cu1   Cu    Cu3+1 0.500000 0.499980 0.640670 0.969908
Cu2   Cu    Cu3+1 0.500000 0.500020 0.359330 0.951911
H1    H     H_    0.463086 0.879080 0.278955 0.177301
H2    H     H_    0.562893 0.897757 0.822083 0.098037
H3    H     H_    0.632428 0.125603 0.674112 0.180720
H4    H     H_    0.080222 0.428324 0.711877 0.085678
H5    H     H_    0.690612 0.610616 0.874141 0.100318
H6    H     H_    0.668884 0.457302 0.136713 0.237889
H7    H     H_    0.931860 0.455783 0.289764 0.213371
N1    N     N_R   0.500530 0.500930 0.147930 -0.164906
N2    N     N_R   0.500530 0.500890 0.852020 -0.164899
O1    O     O_R   0.500000 0.319640 0.618810 -0.564141
O2    O     O_R   0.500010 0.319680 0.381230 -0.534173
O3    O     O_R   0.379430 0.499990 0.618840 -0.596186
O4    O     O_R   0.379440 0.500030 0.381260 -0.586096
O5    O     O_R   0.499990 0.680320 0.618770 -0.579822
O6    O     O_R   0.500000 0.680360 0.381190 -0.596852
O7    O     O_R   0.620560 0.499970 0.618740 -0.534621
O8    O     O_R   0.620570 0.500010 0.381160 -0.588271
H8    H     H_    0.942072 0.378967 0.666244 0.114723
O9    O     O_3   0.058310 0.618059 0.741499 -0.571613
C31   C     C_3   0.141331 0.654567 0.778950 0.082093
H9    H     H_    0.136344 0.748383 0.827103 0.163034
H10   H     H_    0.182441 0.668420 0.687970 0.123356
C32   C     C_3   0.181349 0.571140 0.888186 -0.386016
H11   H     H_    0.137471 0.560743 0.977139 0.246506
H12   H     H_    0.194317 0.478549 0.842035 0.203134
C33   C     C_3   0.264260 0.626912 0.942288 -0.928440
H13   H     H_    0.311649 0.626754 0.857536 0.276793
H14   H     H_    0.287654 0.571662 0.030958 0.255706
H15   H     H_    0.255753 0.723513 0.980106 0.242417
H16   H     H_    0.920475 0.528242 0.737944 0.225952
H17   H     H_    0.919750 0.677826 0.370319 0.091829
O10   O     O_3   0.474528 0.118006 0.243085 -0.588337
C34   C     C_3   0.396926 0.103051 0.171214 0.051222
H18   H     H_    0.354262 0.178611 0.204493 0.151272
H19   H     H_    0.365243 0.013112 0.190561 0.133159
C35   C     C_3   0.412952 0.109833 0.013877 -0.321389
H20   H     H_    0.452639 0.192061 0.991905 0.237630
H21   H     H_    0.447732 0.026274 0.979448 0.203597
C36   C     C_3   0.331255 0.117440 0.929787 -0.954187
H22   H     H_    0.291670 0.033894 0.946334 0.257397
H23   H     H_    0.345841 0.123234 0.816517 0.263744
H24   H     H_    0.295915 0.201178 0.961466 0.255214
O11   O     O_3   0.651210 0.877642 0.660712 -0.594970
C37   C     C_3   0.684629 0.931747 0.538064 0.078513
H25   H     H_    0.739728 0.990395 0.568749 0.135892
H26   H     H_    0.640002 0.990707 0.480643 0.158366
C38   C     C_3   0.712413 0.829519 0.436519 -0.341016
H27   H     H_    0.759879 0.771040 0.488136 0.235106
H28   H     H_    0.657964 0.769308 0.407894 0.227945
C39   C     C_3   0.748621 0.882552 0.302300 -0.955381
H29   H     H_    0.698860 0.931247 0.243147 0.271723
H30   H     H_    0.773053 0.806331 0.235423 0.254709
H31   H     H_    0.800965 0.948449 0.326419 0.245670
H32   H     H_    0.559232 0.117488 0.823648 0.188210
H33   H     H_    0.387425 0.396120 0.126397 0.137026
H34   H     H_    0.387265 0.396292 0.866592 0.150539
O12   O     O_3   0.669351 0.414995 0.878501 -0.555653
C40   C     C_3   0.756661 0.390805 0.881992 0.059100
H35   H     H_    0.793309 0.454379 0.953604 0.129757
H36   H     H_    0.781925 0.400381 0.774703 0.157745
C41   C     C_3   0.769681 0.258294 0.930146 -0.321990
H37   H     H_    0.741214 0.247000 0.035190 0.223654
H38   H     H_    0.737719 0.192861 0.855692 0.223883
C42   C     C_3   0.862810 0.226565 0.938914 -0.955429
H39   H     H_    0.896227 0.290706 0.013083 0.259423
H40   H     H_    0.869714 0.130723 0.976822 0.261158
H41   H     H_    0.892007 0.232454 0.834085 0.259306
H42   H     H_    0.686293 0.628403 0.128193 0.159991
O13   O     O_3   0.082816 0.410413 0.275474 -0.548730
C43   C     C_3   0.078701 0.291079 0.212971 0.062201
H43   H     H_    0.013693 0.251759 0.216062 0.135085
H44   H     H_    0.122361 0.228711 0.268589 0.129832
C44   C     C_3   0.105247 0.299940 0.060034 -0.327672
H45   H     H_    0.062729 0.364283 0.004909 0.225868
H46   H     H_    0.170599 0.337110 0.055672 0.215122
C45   C     C_3   0.101452 0.174582 0.984641 -0.967950
H47   H     H_    0.036456 0.136123 0.985191 0.270214
H48   H     H_    0.144411 0.108763 0.035524 0.271725
H49   H     H_    0.121486 0.185664 0.874436 0.254176
H50   H     H_    0.059538 0.323027 0.466551 0.050381
H51   H     H_    0.918633 0.332404 0.410943 0.156127
H52   H     H_    0.079353 0.721360 0.510506 0.096158
O14   O     O_3   0.066376 0.658702 0.302150 -0.597132
C46   C     C_3   0.141153 0.727465 0.279056 0.097337
H53   H     H_    0.165446 0.698749 0.175494 0.192051
H54   H     H_    0.191752 0.708143 0.356235 0.131644
C47   C     C_3   0.124436 0.866456 0.277280 -0.404093
H55   H     H_    0.076529 0.886964 0.195717 0.232105
H56   H     H_    0.100920 0.898098 0.380526 0.209251
C48   C     C_3   0.205236 0.937828 0.248066 -0.969434
H57   H     H_    0.254505 0.914778 0.326331 0.255544
H58   H     H_    0.193777 0.038466 0.255943 0.252206
H59   H     H_    0.227836 0.914703 0.141206 0.253061
O15   O     O_3   0.932677 0.734826 0.580389 -0.585908
C49   C     C_3   0.936123 0.859570 0.537038 0.028657
H60   H     H_    0.871865 0.896758 0.540203 0.172229
H61   H     H_    0.959831 0.872067 0.428677 0.117124
C50   C     C_3   0.989932 0.937035 0.639921 -0.284379
H62   H     H_    0.963930 0.928954 0.747157 0.236983
H63   H     H_    0.055385 0.902430 0.641485 0.202183
C51   C     C_3   0.991177 0.073051 0.599249 -0.999569
H64   H     H_    0.018723 0.083799 0.493529 0.249452
H65   H     H_    0.029881 0.127537 0.675779 0.259437
H66   H     H_    0.926402 0.110492 0.599061 0.255635

loop_
_geom_bond_atom_site_label_1
_geom_bond_atom_site_label_2
_ccdc_geom_bond_type
C32   H11   S    
O15   C49   S    
Cu1   O1    S    
C5    H52   S    
C16   O11   S    
Cu2   O4    S    
C19   C20   A    
C37   C38   S    
C3    C6    S    
C20   N2    A    
C7    C8    T    
C46   H53   S    
C44   H46   S    
C4    H17   S    
C41   H37   S    
C18   C24   S    
C3    C28   S    
C37   H26   S    
C19   H33   S    
C33   H14   S    
C15   C16   S    
C18   C21   A    
C42   H41   S    
C45   H47   S    
C43   C44   S    
C18   N1    A    
C2    H8    S    
C16   H2    S    
C1    O2    A    
C45   H48   S    
C35   H20   S    
C34   H19   S    
Cu1   O5    S    
C42   H40   S    
C51   H66   S    
C24   H6    S    
C9    C10   A    
C31   C32   S    
C33   H15   S    
C41   H38   S    
C23   O5    A    
C21   C22   S    
C5    O14   S    
C27   C30   S    
C51   H65   S    
C31   H10   S    
C47   H56   S    
C25   C29   S    
C44   C45   S    
C23   O6    A    
Cu1   O3    S    
C17   H32   S    
O13   C43   S    
C37   H25   S    
C11   O10   S    
C28   H51   S    
C36   H23   S    
C16   C17   S    
C28   H7    S    
C33   H13   S    
C22   H5    S    
C27   O13   S    
O9    C31   S    
C14   C23   S    
C50   H63   S    
O11   C37   S    
C49   H61   S    
C13   H1    S    
C36   H24   S    
C40   H36   S    
Cu1   Cu2   S    
C22   O12   S    
C8    C12   S    
C34   C35   S    
C42   H39   S    
C2    C26   S    
C43   H44   S    
C25   O7    A    
C21   N2    A    
C26   H4    S    
C27   H50   S    
C26   C30   S    
C41   C42   S    
C39   H30   S    
Cu1   O7    S    
C32   H12   S    
C51   H64   S    
Cu2   O6    S    
C22   C24   S    
C50   C51   S    
C48   H58   S    
C3    C4    S    
C31   H9    S    
C40   C41   S    
C38   H28   S    
C5    C30   S    
C47   C48   S    
C9    C17   S    
Cu1   N2    S    
C24   H42   S    
C1    C10   S    
O14   C46   S    
C12   O4    A    
C38   C39   S    
C47   H55   S    
C45   H49   S    
C48   H57   S    
C39   H31   S    
C44   H45   S    
C46   C47   S    
C4    O15   S    
C10   C11   A    
O10   C34   S    
C48   H59   S    
C50   H62   S    
C9    C15   A    
C49   C50   S    
C36   H22   S    
C12   O3    A    
C26   O9    S    
C11   C13   A    
C40   H35   S    
C35   C36   S    
C20   H34   S    
Cu2   O2    S    
C46   H54   S    
C2    C3    S    
Cu2   N1    S    
C43   H43   S    
C25   O8    A    
Cu2   O8    S    
C19   N1    A    
C38   H27   S    
C2    H16   S    
C1    O1    A    
C4    C5    S    
C6    C29   T    
C35   H21   S    
C34   H18   S    
C32   C33   S    
C27   C28   S    
C7    C30   S    
C14   C15   A    
C17   H3    S    
C39   H29   S    
O12   C40   S    
C13   C14   A    
C49   H60   S    
