data_mof_unit_4115.cif
_audit_creation_date              2012-12-10T16:51:31-0500
_audit_creation_method            fapswitch 2.2
_symmetry_space_group_name_H-M    P1
_symmetry_Int_Tables_number       1
_space_group_crystal_system       triclinic
_cell_length_a                    7.880056
_cell_length_b                    8.58142
_cell_length_c                    12.3922
_cell_angle_alpha                 92.489028
_cell_angle_beta                  103.420679
_cell_angle_gamma                 93.523257
_cell_volume                      812.124368864

loop_
_atom_site_label
_atom_site_type_symbol
_atom_type_description
_atom_site_fract_x
_atom_site_fract_y
_atom_site_fract_z
_atom_type_partial_charge
C1    C     C_R   0.040737 0.793611 0.492863 0.985948
C2    C     C_R   0.185161 0.595781 0.823889 -0.098207
C3    C     C_2   0.060378 0.957246 0.491819 -0.417372
C4    C     C_R   0.113868 0.536529 0.707160 0.875401
C5    C     C_2   0.920276 0.042657 0.479468 0.218297
C6    C     C_R   0.953521 0.205776 0.497706 0.891905
C7    C     C_R   0.885956 0.471398 0.291679 0.921948
C8    C     C_R   0.843099 0.403482 0.984669 -0.206933
C9    C     C_R   0.811520 0.436940 0.172875 -0.238269
C10   C     C_R   0.081132 0.657196 0.890566 -0.196774
C11   C     C_R   0.146110 0.676083 0.005752 -0.109260
C12   C     C_R   0.415297 0.565789 0.985814 0.070108
C13   C     C_R   0.309194 0.622862 0.054182 -0.032087
C14   C     C_R   0.362149 0.585581 0.872210 0.026267
C15   C     C_R   0.577900 0.501757 0.024196 -0.004940
C16   C     C_R   0.687498 0.476521 0.949435 -0.012503
C17   C     C_R   0.642942 0.531607 0.843167 -0.244907
C18   C     C_R   0.489609 0.605208 0.811688 0.377929
C19   C     C_R   0.634594 0.457956 0.132541 0.309428
C20   C     C_R   0.907238 0.385399 0.097669 0.367126
Cl1   Cl    Cl    0.086511 0.273842 0.139532 -0.502172
Cl2   Cl    Cl    0.696893 0.972230 0.429515 -0.522474
Cl3   Cl    Cl    0.485195 0.372946 0.203200 -0.521057
Cl4   Cl    Cl    0.484408 0.769489 0.731391 -0.631303
H1    H     H_    0.470430 0.357971 0.434155 0.256819
H2    H     H_    0.529831 0.648442 0.554698 0.264846
H3    H     H_    0.067031 0.724999 0.057603 0.167943
H4    H     H_    0.729912 0.526604 0.787945 0.185812
H5    H     H_    0.918037 0.367825 0.925931 0.190969
H6    H     H_    0.953078 0.693458 0.854066 0.181803
H7    H     H_    0.354002 0.635514 0.143536 0.195395
H8    H     H_    0.194324 0.008988 0.512566 0.196691
N1    N     N_2   0.434800 0.456690 0.470850 -0.134526
N2    N     N_2   0.565200 0.543310 0.529150 -0.160425
O1    O     O_R   0.893060 0.738880 0.507150 -0.562456
O2    O     O_R   0.172250 0.711130 0.488470 -0.595766
O3    O     O_R   0.944700 0.520730 0.667600 -0.638024
O4    O     O_R   0.223890 0.492980 0.648920 -0.597526
O5    O     O_R   0.827750 0.288870 0.511530 -0.582488
O6    O     O_R   0.106940 0.261120 0.492850 -0.627714
O7    O     O_R   0.776110 0.507020 0.351080 -0.572833
O8    O     O_R   0.055300 0.479270 0.332400 -0.569633
Zn1   Zn    Zn3+2 0.813580 0.518530 0.512470 1.044096
Zn2   Zn    Zn3+2 0.186420 0.481470 0.487530 1.050919

loop_
_geom_bond_atom_site_label_1
_geom_bond_atom_site_label_2
_ccdc_geom_bond_type
O3    Zn1   S    
C19   Cl3   S    
O4    Zn2   S    
O1    Zn1   S    
C10   H6    S    
C9    C20   A    
C2    C4    S    
C12   C15   A    
C11   H3    S    
C20   Cl1   S    
N1    N2    D    
C3    H8    S    
C8    C16   A    
C4    O3    A    
C15   C19   A    
C13   H7    S    
O7    Zn1   S    
C8    C20   A    
O8    Zn2   S    
C18   Cl4   S    
C8    H5    S    
C12   C14   A    
C17   C18   A    
O6    Zn2   S    
C7    O7    A    
C5    C6    S    
C2    C14   A    
N1    Zn2   S    
C6    O6    A    
O2    Zn2   S    
C10   C11   A    
N2    Zn1   S    
C15   C16   A    
C2    C10   A    
C11   C13   A    
C12   C13   A    
C1    O1    A    
C9    C19   A    
C7    O8    A    
H1    N1    S    
C7    C9    S    
C14   C18   A    
C6    O5    A    
O5    Zn1   S    
C3    C5    D    
C17   H4    S    
H2    N2    S    
C5    Cl2   S    
C1    O2    A    
C4    O4    A    
C16   C17   A    
C1    C3    S    
