data_mof_unit_3475.cif
_audit_creation_date              2012-12-10T20:32:45-0500
_audit_creation_method            fapswitch 2.2
_symmetry_space_group_name_H-M    P1
_symmetry_Int_Tables_number       1
_space_group_crystal_system       triclinic
_cell_length_a                    11.539335
_cell_length_b                    10.771518
_cell_length_c                    9.879043
_cell_angle_alpha                 89.260744
_cell_angle_beta                  90.470404
_cell_angle_gamma                 90.699392
_cell_volume                      1227.69355747

loop_
_atom_site_label
_atom_site_type_symbol
_atom_type_description
_atom_site_fract_x
_atom_site_fract_y
_atom_site_fract_z
_atom_type_partial_charge
C1    C     C_R   0.502559 0.260614 0.500596 0.874963
C2    C     C_R   0.601042 0.497261 0.072784 -0.106985
C3    C     C_R   0.601037 0.497208 0.929084 -0.110618
C4    C     C_R   0.281956 0.500807 0.499819 0.906734
C5    C     C_R   0.399481 0.514003 0.927577 0.141883
C6    C     C_3   0.293167 0.434944 0.918345 0.201924
C7    C     C_3   0.293867 0.430623 0.072979 0.196158
C8    C     C_R   0.503435 0.739643 0.498399 0.916453
C9    C     C_R   0.718102 0.500357 0.500558 0.893440
C10   C     C_1   0.161593 0.503046 0.500757 -0.185443
C11   C     C_1   0.059451 0.504075 0.503151 -0.027898
C12   C     C_R   0.511255 0.129814 0.499249 -0.125895
C13   C     C_1   0.940792 0.503393 0.503370 -0.008423
C14   C     C_1   0.838594 0.501992 0.502124 -0.185916
C15   C     C_R   0.508590 0.059656 0.616952 0.061088
C16   C     C_3   0.225142 0.271832 0.782121 0.109445
C17   C     C_3   0.160802 0.168449 0.859150 -0.381750
C18   C     C_3   0.068775 0.106496 0.770220 -0.897601
C19   C     C_3   0.103467 0.410796 0.148585 0.114361
C20   C     C_3   0.007723 0.434979 0.043664 -0.362574
C21   C     C_3   0.902776 0.350409 0.068782 -0.961416
C22   C     C_R   0.522582 0.068855 0.375174 -0.247156
C23   C     C_R   0.524142 0.940051 0.370763 0.175244
C24   C     C_R   0.511596 0.871148 0.493907 -0.167102
C25   C     C_R   0.506871 0.935790 0.614106 0.043079
C26   C     C_3   0.494054 0.921945 0.763770 0.030029
C27   C     C_3   0.497180 0.064735 0.766859 -0.452464
C28   C     C_R   0.399075 0.513592 0.069718 0.177704
H1    H     H_    0.529446 0.120670 0.280798 0.196648
H2    H     H_    0.162592 0.343071 0.746040 0.116501
H3    H     H_    0.223188 0.097625 0.895299 0.259387
H4    H     H_    0.118346 0.207214 0.948848 0.217052
H5    H     H_    0.003928 0.175653 0.735608 0.256609
H6    H     H_    0.023534 0.032335 0.829192 0.277314
H7    H     H_    0.109554 0.064059 0.680748 0.274377
H8    H     H_    0.067443 0.429557 0.249365 0.179940
H9    H     H_    0.126667 0.310683 0.150890 0.103487
H10   H     H_    0.980543 0.533434 0.048938 0.243278
H11   H     H_    0.040175 0.418127 0.940348 0.210356
H12   H     H_    0.314330 0.339012 0.120944 0.105513
H13   H     H_    0.927922 0.251350 0.064435 0.271698
H14   H     H_    0.836020 0.367730 0.989587 0.259905
H15   H     H_    0.865108 0.369000 0.169533 0.268207
H16   H     H_    0.570783 0.878121 0.812470 0.164877
H17   H     H_    0.414743 0.106360 0.798311 0.247983
H18   H     H_    0.576217 0.103658 0.816383 0.197443
H19   H     H_    0.682494 0.493760 0.127157 0.165103
H20   H     H_    0.682462 0.493387 0.876204 0.148697
H21   H     H_    0.221749 0.489854 0.871611 0.108362
H22   H     H_    0.262678 0.232095 0.689214 0.167523
I1    I     I_    0.547560 0.868077 0.172193 -0.354351
I2    I     I_    0.328936 0.843338 0.818565 -0.370273
N1    N     N_R   0.499240 0.499140 0.142800 -0.123772
N2    N     N_R   0.499240 0.499180 0.857150 -0.081473
O1    O     O_R   0.500010 0.316790 0.614690 -0.590545
O2    O     O_3   0.198456 0.493369 0.127936 -0.618003
O3    O     O_R   0.500000 0.316760 0.385350 -0.637996
O4    O     O_R   0.334450 0.500030 0.614670 -0.610786
O5    O     O_R   0.334440 0.500000 0.385330 -0.579400
O6    O     O_R   0.500000 0.683240 0.614650 -0.604652
O7    O     O_R   0.499990 0.683210 0.385310 -0.577901
O8    O     O_R   0.665560 0.500000 0.614670 -0.629167
O9    O     O_R   0.665550 0.499970 0.385330 -0.622464
O10   O     O_3   0.318350 0.318279 0.861746 -0.641111
Zn1   Zn    Zn3+2 0.500010 0.500020 0.653130 0.990099
Zn2   Zn    Zn3+2 0.499990 0.499980 0.346870 0.990270

loop_
_geom_bond_atom_site_label_1
_geom_bond_atom_site_label_2
_ccdc_geom_bond_type
C19   O2    S    
C6    O10   S    
C23   C24   A    
C24   C25   A    
C16   O10   S    
C6    C7    S    
C22   H1    S    
C26   I2    S    
C2    H19   S    
C3    N2    A    
C5    C28   A    
C18   H6    S    
C18   H7    S    
C8    O7    A    
O4    Zn1   S    
C15   C27   S    
C19   C20   S    
C12   C15   A    
O3    Zn2   S    
C9    C14   S    
C27   H17   S    
C2    C3    A    
C1    O1    A    
O9    Zn2   S    
C26   H16   S    
C6    H21   S    
N2    Zn1   S    
C9    O9    A    
C13   C14   T    
C8    O6    A    
C28   N1    A    
N1    Zn2   S    
C11   C13   S    
C26   C27   S    
C1    C12   S    
C7    O2    S    
C21   H13   S    
C4    O5    A    
O1    Zn1   S    
C16   H22   S    
O6    Zn1   S    
C17   C18   S    
C1    O3    A    
C19   H8    S    
O5    Zn2   S    
C5    C6    S    
C17   H3    S    
C18   H5    S    
C15   C25   A    
C10   C11   T    
C7    C28   S    
C4    C10   S    
C9    O8    A    
C12   C22   A    
C3    H20   S    
C20   H10   S    
C20   C21   S    
C27   H18   S    
C4    O4    A    
C20   H11   S    
C17   H4    S    
C22   C23   A    
C5    N2    A    
C19   H9    S    
O8    Zn1   S    
C8    C24   S    
C25   C26   S    
C21   H15   S    
C7    H12   S    
C16   H2    S    
O7    Zn2   S    
C23   I1    S    
C21   H14   S    
C16   C17   S    
C2    N1    A    
