data_mof_unit_3030.cif
_audit_creation_date              2012-12-10T20:31:02-0500
_audit_creation_method            fapswitch 2.2
_symmetry_space_group_name_H-M    P1
_symmetry_Int_Tables_number       1
_space_group_crystal_system       triclinic
_cell_length_a                    15.013861
_cell_length_b                    10.690829
_cell_length_c                    9.856131
_cell_angle_alpha                 89.253649
_cell_angle_beta                  89.879668
_cell_angle_gamma                 90.282551
_cell_volume                      1581.85654304

loop_
_atom_site_label
_atom_site_type_symbol
_atom_type_description
_atom_site_fract_x
_atom_site_fract_y
_atom_site_fract_z
_atom_type_partial_charge
C1    C     C_R   0.503457 0.259821 0.500575 0.912513
C2    C     C_R   0.906980 0.533976 0.379353 0.107470
C3    C     C_R   0.953487 0.453568 0.742016 -0.212979
C4    C     C_R   0.046030 0.454674 0.741714 -0.170496
C5    C     C_R   0.092411 0.482143 0.621483 0.119421
C6    C     C_R   0.046127 0.509775 0.500477 -0.024210
C7    C     C_R   0.092461 0.538802 0.379229 -0.024476
C8    C     C_R   0.045609 0.565887 0.259542 -0.125531
C9    C     C_R   0.953158 0.563056 0.259580 -0.232117
C10   C     C_R   0.184480 0.481106 0.619906 -0.332393
C11   C     C_R   0.230573 0.507748 0.499505 -0.213733
C12   C     C_R   0.326562 0.502349 0.499904 0.937636
C13   C     C_R   0.184849 0.539335 0.379790 0.629560
C14   C     C_R   0.525846 0.061556 0.622002 0.133287
C15   C     C_R   0.520097 0.128722 0.500494 -0.191624
C16   C     C_R   0.534325 0.067450 0.377178 -0.306812
C17   C     C_R   0.534929 0.938042 0.375278 0.640439
C18   C     C_R   0.520995 0.871323 0.497566 -0.256990
C19   C     C_R   0.525996 0.933883 0.620324 0.056369
C20   C     C_3   0.468961 0.922631 0.744235 -0.393397
C21   C     C_3   0.468838 0.064152 0.746285 -0.468325
C22   C     C_R   0.425153 0.466512 0.072215 0.125946
C23   C     C_R   0.504081 0.740088 0.499005 0.915803
C24   C     C_R   0.569975 0.547649 0.070625 0.665718
C25   C     C_R   0.570203 0.546709 0.926753 -0.239587
C26   C     C_R   0.424863 0.467435 0.929578 0.117803
C27   C     C_3   0.377018 0.345230 0.925564 -0.562413
C28   C     C_3   0.378394 0.343509 0.079511 0.495185
C29   C     C_R   0.673369 0.500217 0.499950 0.892869
C30   C     C_R   0.814914 0.530396 0.379911 -0.225761
C31   C     C_R   0.769175 0.502142 0.500132 -0.082222
C32   C     C_R   0.814889 0.477115 0.620892 -0.254616
C33   C     C_R   0.907059 0.479492 0.621981 0.118354
C34   C     C_R   0.953399 0.507946 0.500656 0.104467
H1    H     H_    0.779065 0.550631 0.286981 0.223897
H2    H     H_    0.402287 0.881436 0.723306 0.206538
H3    H     H_    0.505208 0.879712 0.831248 0.229176
H4    H     H_    0.401962 0.104798 0.726703 0.205035
H5    H     H_    0.505570 0.102022 0.834617 0.205917
H6    H     H_    0.627419 0.582587 0.871629 0.182793
H7    H     H_    0.309137 0.353928 0.882068 0.228236
H8    H     H_    0.418483 0.271568 0.880732 0.167868
H9    H     H_    0.778897 0.454886 0.713737 0.166105
H10   H     H_    0.418972 0.267306 0.125451 0.064762
H11   H     H_    0.918290 0.431920 0.835605 0.153005
H12   H     H_    0.081293 0.433683 0.835067 0.164039
H13   H     H_    0.220135 0.458151 0.712295 0.190889
H14   H     H_    0.080150 0.588196 0.165615 0.205654
H15   H     H_    0.917815 0.583334 0.166120 0.162953
H16   H     H_    0.538280 0.118306 0.281533 0.190857
N1    N     N_R   0.499390 0.499140 0.142800 -0.204485
N2    N     N_R   0.499390 0.499180 0.857150 -0.134822
O1    O     O_R   0.500010 0.316790 0.614690 -0.618089
O2    O     O_R   0.500000 0.316760 0.385350 -0.645714
O3    O     O_R   0.367850 0.499990 0.614680 -0.633123
O4    O     O_R   0.367840 0.499950 0.385340 -0.529625
O5    O     O_R   0.500000 0.683240 0.614650 -0.627049
O6    O     O_R   0.499990 0.683210 0.385310 -0.524822
O7    O     O_R   0.632160 0.500050 0.614660 -0.641569
O8    O     O_R   0.632150 0.500010 0.385320 -0.570088
Zn1   Zn    Zn3+2 0.500010 0.500020 0.653130 0.953307
Zn2   Zn    Zn3+2 0.499990 0.499980 0.346870 1.070786
F1    F     F_    0.541332 0.880216 0.253779 -0.627467
F2    F     F_    0.640831 0.596520 0.136313 -0.649890
F3    F     F_    0.294041 0.354050 0.134807 -0.597351
F4    F     F_    0.229727 0.572126 0.264534 -0.622883

loop_
_geom_bond_atom_site_label_1
_geom_bond_atom_site_label_2
_ccdc_geom_bond_type
N2    Zn1   S    
O6    Zn2   S    
C23   O6    A    
C11   C12   S    
C8    H14   S    
O5    Zn1   S    
C6    C7    A    
C1    C15   S    
C26   N2    A    
C27   H7    S    
C19   C20   S    
C21   H5    S    
C29   O8    A    
C30   C31   A    
C2    C30   A    
C32   C33   A    
C2    C34   A    
C24   N1    A    
C17   C18   A    
C8    C9    A    
C25   N2    A    
C5    C10   A    
C24   F2    S    
C22   C28   S    
C17   F1    S    
C20   H3    S    
C11   C13   A    
C27   H8    S    
C26   C27   S    
C12   O4    A    
N1    Zn2   S    
O1    Zn1   S    
C30   H1    S    
C1    O2    A    
C4    C5    A    
O3    Zn1   S    
C14   C21   S    
O8    Zn2   S    
C32   H9    S    
C3    H11   S    
C33   C34   A    
C13   F4    S    
C25   H6    S    
C18   C23   S    
C5    C6    A    
O4    Zn2   S    
O7    Zn1   S    
C12   O3    A    
C7    C8    A    
C10   C11   A    
C3    C33   A    
C29   O7    A    
C15   C16   A    
C20   H2    S    
C6    C34   A    
C7    C13   A    
C9    H15   S    
C24   C25   A    
C29   C31   S    
C18   C19   A    
C22   C26   A    
C10   H13   S    
C23   O5    A    
C1    O1    A    
C14   C15   A    
C16   C17   A    
C4    H12   S    
O2    Zn2   S    
C20   C21   S    
C2    C9    A    
C28   F3    S    
C14   C19   A    
C28   H10   S    
C31   C32   A    
C21   H4    S    
C3    C4    A    
C16   H16   S    
C22   N1    A    
C27   C28   S    
