data_mof_unit_4546.cif
_audit_creation_date              2012-12-10T19:11:04-0500
_audit_creation_method            fapswitch 2.2
_symmetry_space_group_name_H-M    P1
_symmetry_Int_Tables_number       1
_space_group_crystal_system       triclinic
_cell_length_a                    10.751535
_cell_length_b                    9.089228
_cell_length_c                    7.781265
_cell_angle_alpha                 90.0002
_cell_angle_beta                  90.353441
_cell_angle_gamma                 90.000205
_cell_volume                      760.395281967

loop_
_atom_site_label
_atom_site_type_symbol
_atom_type_description
_atom_site_fract_x
_atom_site_fract_y
_atom_site_fract_z
_atom_type_partial_charge
C1    C     C_R   0.500000 0.220023 0.500000 0.821134
C2    C     C_R   0.260211 0.485597 0.499272 0.787232
C3    C     C_R   0.739789 0.485601 0.500726 0.787179
C4    C     C_R   0.500000 0.779988 0.500000 0.857584
C5    C     C_1   0.500000 0.065411 0.500000 -0.185772
C6    C     C_3   0.074656 0.388411 0.662521 0.026919
C7    C     C_3   0.070460 0.401070 0.326674 0.042450
C8    C     C_3   0.929533 0.400947 0.673239 0.042451
C9    C     C_3   0.925340 0.388516 0.337391 0.026946
C10   C     C_1   0.500000 0.934654 0.500000 -0.190650
C11   C     C_3   0.071349 0.631709 0.506401 -0.532341
C12   C     C_3   0.928655 0.631714 0.493736 -0.532343
C13   C     C_3   0.122582 0.471897 0.497977 0.081040
C14   C     C_3   0.877418 0.471898 0.502008 0.081026
Cu1   Cu    Cu3+1 0.500000 0.500010 0.669080 0.975913
Cu2   Cu    Cu3+1 0.500000 0.500010 0.330920 0.975910
H1    H     H_    0.111532 0.449431 0.776329 0.143066
H2    H     H_    0.089067 0.483170 0.223308 0.140224
H3    H     H_    0.910913 0.482964 0.776691 0.140238
H4    H     H_    0.888458 0.449603 0.223636 0.143059
H5    H     H_    0.100552 0.685229 0.628948 0.188191
H6    H     H_    0.109814 0.699776 0.400189 0.186759
H7    H     H_    0.890191 0.699710 0.600012 0.186785
H8    H     H_    0.899453 0.685317 0.371239 0.188166
N1    N     N_1   0.500000 0.499970 0.076820 -0.055469
N2    N     N_1   0.500000 0.499970 0.923180 -0.055458
O1    O     O_R   0.500000 0.288400 0.642760 -0.584216
O2    O     O_R   0.500000 0.288400 0.357240 -0.584192
O3    O     O_R   0.317700 0.499990 0.642790 -0.590615
O4    O     O_R   0.317700 0.499990 0.357210 -0.593983
O5    O     O_R   0.682300 0.499990 0.642790 -0.593978
O6    O     O_R   0.682300 0.499990 0.357210 -0.590600
O7    O     O_R   0.500000 0.711620 0.642810 -0.572522
O8    O     O_R   0.500000 0.711620 0.357190 -0.572526
C15   C     C_3   0.127646 0.231151 0.684802 -0.835893
H9    H     H_    0.074389 0.148206 0.611442 0.238942
H10   H     H_    0.226530 0.224859 0.645935 0.229076
H11   H     H_    0.123949 0.198757 0.822182 0.222405
C16   C     C_3   0.137642 0.261527 0.259184 -0.866310
H12   H     H_    0.135029 0.167908 0.348718 0.238904
H13   H     H_    0.094111 0.226074 0.136362 0.224638
H14   H     H_    0.236348 0.283004 0.228915 0.254412
C17   C     C_3   0.862352 0.261343 0.740555 -0.866322
H15   H     H_    0.865078 0.167757 0.650975 0.238926
H16   H     H_    0.905809 0.225866 0.863417 0.224631
H17   H     H_    0.763607 0.282753 0.770673 0.254376
C18   C     C_3   0.872357 0.231264 0.314991 -0.835790
H18   H     H_    0.925672 0.148268 0.388196 0.238940
H19   H     H_    0.773496 0.224915 0.353968 0.229088
H20   H     H_    0.875974 0.198985 0.177567 0.222368

loop_
_geom_bond_atom_site_label_1
_geom_bond_atom_site_label_2
_ccdc_geom_bond_type
Cu2   O2    S    
C1    O2    A    
C6    C8    S    
C9    C14   S    
Cu1   O5    S    
Cu2   N1    S    
C6    H1    S    
Cu2   O6    S    
C17   H16   S    
C12   H8    S    
C11   H6    S    
Cu1   O1    S    
C15   H9    S    
C8    C17   S    
C2    O4    A    
C7    H2    S    
C5    C10   T    
C18   H19   S    
C6    C13   S    
C3    O5    A    
C11   C13   S    
C12   H7    S    
C3    C14   S    
C2    O3    A    
C1    C5    S    
C15   H10   S    
C12   C14   S    
Cu1   O3    S    
C18   H20   S    
C17   H15   S    
C3    O6    A    
C17   H17   S    
C4    O8    A    
C9    C18   S    
Cu2   O4    S    
Cu1   Cu2   S    
C8    H3    S    
C7    C9    S    
C7    C13   S    
C15   H11   S    
C6    C15   S    
C16   H13   S    
C16   H12   S    
C1    O1    A    
C2    C13   S    
C7    C16   S    
C16   H14   S    
Cu1   N2    S    
C8    C14   S    
C9    H4    S    
Cu2   O8    S    
N1    N2    T    
C4    O7    A    
C4    C10   S    
C11   H5    S    
C18   H18   S    
C11   C12   S    
Cu1   O7    S    
