data_mof_unit_4386.cif
_audit_creation_date              2012-12-11T16:05:08-0500
_audit_creation_method            fapswitch 2.2
_symmetry_space_group_name_H-M    P1
_symmetry_Int_Tables_number       1
_space_group_crystal_system       triclinic
_cell_length_a                    10.675213
_cell_length_b                    10.611646
_cell_length_c                    16.890898
_cell_angle_alpha                 98.637062
_cell_angle_beta                  99.092
_cell_angle_gamma                 61.504423
_cell_volume                      1654.31809185

loop_
_atom_site_label
_atom_site_type_symbol
_atom_type_description
_atom_site_fract_x
_atom_site_fract_y
_atom_site_fract_z
_atom_type_partial_charge
C1    C     C_R   0.352683 0.779012 0.400025 0.535319
C2    C     C_3   0.406944 0.694932 0.255839 -0.111144
C3    C     C_3   0.341778 0.819954 0.320602 0.057976
C4    C     C_R   0.369886 0.346515 0.358904 0.544799
C5    C     C_3   0.405366 0.903190 0.289467 -0.127218
C6    C     C_3   0.264698 0.974361 0.234193 -0.115137
C7    C     C_3   0.202104 0.889889 0.266632 -0.121191
C8    C     C_3   0.266427 0.765733 0.201182 -0.114605
C9    C     C_3   0.328853 0.849261 0.169313 0.055033
C10   C     C_3   0.480931 0.282268 0.796571 -0.117838
C11   C     C_3   0.427384 0.428977 0.764113 0.037110
C12   C     C_3   0.732697 0.299812 0.249711 -0.118091
C13   C     C_3   0.382780 0.369656 0.682049 0.031134
C14   C     C_3   0.435023 0.222960 0.714428 -0.127398
C15   C     C_3   0.284308 0.275844 0.739712 -0.123754
C16   C     C_R   0.775562 0.377313 0.401458 0.543445
C17   C     C_3   0.231528 0.422938 0.707050 -0.129635
C18   C     C_3   0.276544 0.482556 0.790128 -0.127276
C19   C     C_3   0.330518 0.335565 0.820966 0.041688
C20   C     C_1   0.851654 0.325762 0.704828 -0.028249
C21   C     C_1   0.896846 0.293103 0.772607 -0.045788
C22   C     C_1   0.320693 0.847136 0.704662 -0.026172
C23   C     C_3   0.812543 0.350658 0.320290 0.063954
C24   C     C_1   0.284355 0.891568 0.771545 -0.035409
C25   C     C_R   0.895349 0.309026 0.091653 0.569200
C26   C     C_R   0.319692 0.299987 0.120078 0.541822
C27   C     C_R   0.297002 0.887268 0.087404 0.563070
C28   C     C_R   0.352611 0.780472 0.625153 0.569012
C29   C     C_R   0.943702 0.275441 0.856150 0.544332
C30   C     C_R   0.309338 0.296077 0.893665 0.544417
C31   C     C_R   0.247287 0.941344 0.852372 0.539072
C32   C     C_R   0.410602 0.378859 0.601611 0.603290
C33   C     C_R   0.782524 0.375138 0.627671 0.577063
C34   C     C_3   0.956797 0.249474 0.289585 -0.153395
C35   C     C_1   0.343351 0.336717 0.275065 -0.067031
C36   C     C_1   0.332427 0.326624 0.203771 -0.063738
C37   C     C_3   0.878503 0.197712 0.217315 -0.117985
C38   C     C_2   0.507698 0.513915 0.787942 0.555919
C39   C     C_3   0.939104 0.371473 0.242251 -0.115367
C40   C     C_3   0.793634 0.473448 0.273935 -0.105747
C41   C     C_3   0.715146 0.421881 0.202272 -0.148208
C42   C     C_3   0.859204 0.321120 0.171551 0.058987
C43   C     C_3   0.469347 0.779575 0.222848 -0.131227
Cr1   Cr    Cr6+3 0.608340 0.611040 0.520430 1.028621
Cr2   Cr    Cr6+3 0.287650 0.601120 0.489350 1.028188
Cr3   Cr    Cr6+3 0.604040 0.287870 0.490280 1.019774
Cr4   Cr    Cr6+3 0.054020 0.052700 0.970850 1.022774
Cr5   Cr    Cr6+3 0.059230 0.375120 0.993390 1.027161
Cr6   Cr    Cr6+3 0.374950 0.061200 0.992340 1.037568
H1    H     H_    0.648010 0.270118 0.255126 0.135714
H2    H     H_    0.911219 0.085719 0.190535 0.131024
H3    H     H_    0.052146 0.184287 0.329926 0.105818
H4    H     H_    0.024052 0.401036 0.237115 0.127766
H5    H     H_    0.760922 0.586207 0.299316 0.133363
H6    H     H_    0.620045 0.486560 0.161639 0.114717
H7    H     H_    0.461863 0.580218 0.268665 0.116365
H8    H     H_    0.576359 0.737085 0.201445 0.117920
H9    H     H_    0.459878 0.960823 0.327714 0.131043
H10   H     H_    0.609096 0.611626 0.753965 0.346897
H11   H     H_    0.209691 0.089083 0.221366 0.115653
H12   H     H_    0.094496 0.933049 0.287409 0.119161
H13   H     H_    0.211884 0.707508 0.163560 0.127284
H14   H     H_    0.583042 0.225159 0.834639 0.148255
H15   H     H_    0.500099 0.115408 0.683768 0.142935
H16   H     H_    0.224188 0.212736 0.731559 0.095231
H17   H     H_    0.128987 0.480187 0.669426 0.142250
H18   H     H_    0.211654 0.588007 0.822828 0.149274
O1    O     O_R   0.751220 0.499230 0.435170 -0.524697
O2    O     O_R   0.412990 0.180750 0.091610 -0.507009
O3    O     O_R   0.366620 0.943130 0.065760 -0.488517
O4    O     O_R   0.477220 0.727600 0.436870 -0.506180
O5    O     O_R   0.160510 0.906330 0.879210 -0.506078
O6    O     O_R   0.930190 0.179050 0.889450 -0.499972
O7    O     O_R   0.909140 0.398170 0.896710 -0.470470
O8    O     O_R   0.186190 0.363460 0.918830 -0.521514
O9    O     O_R   0.401670 0.173200 0.913310 -0.522864
O10   O     O_R   0.356120 0.936130 0.900470 -0.466306
O11   O     O_3   0.162740 0.163010 0.985530 -0.301471
O12   O     O_R   0.297880 0.469080 0.560050 -0.502482
O13   O     O_R   0.258650 0.745120 0.411470 -0.519452
O14   O     O_R   0.297070 0.467240 0.395960 -0.492441
O15   O     O_R   0.488830 0.252610 0.387790 -0.518494
O16   O     O_R   0.724400 0.302390 0.420980 -0.510173
O17   O     O_R   0.752100 0.501210 0.612190 -0.494647
O18   O     O_R   0.478040 0.729440 0.600970 -0.474604
O19   O     O_R   0.259530 0.747110 0.588490 -0.518395
O20   O     O_2   0.530175 0.547522 0.859187 -0.491175
O21   O     O_R   0.556530 0.554409 0.729726 -0.703538
O22   O     O_R   0.489720 0.254590 0.564810 -0.524117
O23   O     O_R   0.725220 0.304230 0.585080 -0.505141
O24   O     O_3   0.500010 0.500010 0.500020 -0.267677
O25   O     O_R   0.171830 0.913880 0.057510 -0.517511
O26   O     O_R   0.940690 0.186050 0.054730 -0.501583
O27   O     O_R   0.920470 0.405720 0.075010 -0.508832
O28   O     O_R   0.196690 0.370460 0.084120 -0.504455

loop_
_geom_bond_atom_site_label_1
_geom_bond_atom_site_label_2
_ccdc_geom_bond_type
C11   C18   S    
C25   O26   A    
Cr5   O28   S    
C34   C37   S    
C41   C42   S    
C13   C32   S    
C10   H14   S    
C6    C9    S    
C7    C8    S    
Cr3   O22   S    
C15   C19   S    
C12   C23   S    
C17   H17   S    
C1    O4    A    
Cr5   O27   S    
C5    H9    S    
C3    C7    S    
C5    C6    S    
C37   H2    S    
C29   O6    A    
C23   C40   S    
C15   H16   S    
C12   C37   S    
Cr6   O11   S    
Cr1   O4    S    
C18   C19   S    
Cr4   O25   S    
Cr5   O11   S    
C37   C42   S    
H10   O21   S    
C41   H6    S    
Cr3   O15   S    
C7    H12   S    
C4    O14   A    
C35   C36   T    
C8    C9    S    
C16   O1    A    
C10   C19   S    
C5    C43   S    
C4    C35   S    
C25   O27   A    
Cr6   O2    S    
C13   C14   S    
Cr5   O8    S    
C31   O10   A    
C39   C42   S    
Cr2   O14   S    
C9    C43   S    
C34   C39   S    
C6    H11   S    
Cr4   O6    S    
C10   C14   S    
C39   C40   S    
C29   O7    A    
Cr1   O17   S    
C18   H18   S    
C21   C29   S    
C16   O16   A    
C38   O21   S    
C1    C3    S    
C11   C38   S    
C12   C41   S    
Cr5   O7    S    
C30   O9    A    
C32   O22   A    
C2    C43   S    
C23   C34   S    
C14   H15   S    
C17   C18   S    
Cr4   O26   S    
Cr6   O9    S    
C27   O25   A    
Cr2   O12   S    
C27   O3    A    
Cr1   O24   S    
C20   C33   S    
C26   C36   S    
C31   O5    A    
C16   C23   S    
C40   H5    S    
Cr6   O3    S    
C28   O19   A    
C22   C24   T    
Cr1   O1    S    
Cr1   O18   S    
C9    C27   S    
C26   O28   A    
C15   C17   S    
C40   C41   S    
C2    C8    S    
C3    C5    S    
C25   C42   S    
C12   H1    S    
C6    C7    S    
Cr3   O23   S    
C34   H3    S    
C13   C17   S    
C38   O20   D    
Cr2   O19   S    
C24   C31   S    
C2    H7    S    
C33   O23   A    
C32   O12   A    
C30   O8    A    
C11   C13   S    
C39   H4    S    
Cr6   O10   S    
C2    C3    S    
Cr2   O13   S    
Cr2   O24   S    
C33   O17   A    
Cr4   O5    S    
C10   C11   S    
C43   H8    S    
Cr3   O16   S    
C4    O15   A    
C20   C21   T    
C28   O18   A    
C26   O2    A    
C14   C15   S    
C1    O13   A    
C22   C28   S    
Cr4   O11   S    
C19   C30   S    
Cr3   O24   S    
C8    H13   S    
