data_mof_unit_332.cif
_audit_creation_date              2012-12-10T16:52:41-0500
_audit_creation_method            fapswitch 2.2
_symmetry_space_group_name_H-M    P1
_symmetry_Int_Tables_number       1
_space_group_crystal_system       triclinic
_cell_length_a                    12.984495
_cell_length_b                    10.926976
_cell_length_c                    9.690775
_cell_angle_alpha                 89.583368
_cell_angle_beta                  95.991984
_cell_angle_gamma                 90.137352
_cell_volume                      1367.38944294

loop_
_atom_site_label
_atom_site_type_symbol
_atom_type_description
_atom_site_fract_x
_atom_site_fract_y
_atom_site_fract_z
_atom_type_partial_charge
C1    C     C_R   0.497864 0.265322 0.500308 0.878154
C2    C     C_R   0.025545 0.448651 0.554455 0.132484
C3    C     C_R   0.973749 0.518828 0.444321 0.145235
C4    C     C_R   0.867092 0.535707 0.436569 -0.251830
C5    C     C_R   0.862535 0.428859 0.655417 -0.194245
C6    C     C_R   0.968474 0.408358 0.662455 -0.212879
C7    C     C_2   0.472003 0.934558 0.384451 0.469699
C8    C     C_2   0.502677 0.867341 0.498577 -0.411612
C9    C     C_2   0.483529 0.068445 0.385575 -0.258090
C10   C     C_2   0.487829 0.133558 0.502429 -0.404184
C11   C     C_2   0.568813 0.446643 0.932294 -0.062132
C12   C     C_R   0.300756 0.495931 0.474446 0.803275
C13   C     C_2   0.566621 0.442738 0.087534 -0.064940
C14   C     C_R   0.499469 0.734817 0.499229 0.877544
C15   C     C_R   0.699243 0.498850 0.525779 0.797169
C16   C     C_R   0.811361 0.489219 0.540658 -0.042573
C17   C     C_R   0.187906 0.492102 0.459819 -0.051779
C18   C     C_R   0.028703 0.572140 0.343159 -0.218084
C19   C     C_R   0.135350 0.562326 0.353664 -0.248859
C20   C     C_R   0.132614 0.424301 0.553826 0.086032
Cu1   Cu    Cu3+1 0.500020 0.500020 0.638640 0.936445
Cu2   Cu    Cu3+1 0.499980 0.499980 0.361360 0.957843
H1    H     H_    0.827314 0.585801 0.349779 0.148838
H2    H     H_    0.478848 0.091519 0.602071 0.156843
H3    H     H_    0.633089 0.401794 0.890504 0.147655
H4    H     H_    0.435552 0.537122 0.884416 0.193369
H5    H     H_    0.626843 0.390659 0.147585 0.153785
H6    H     H_    0.443428 0.551330 0.097815 0.197551
H7    H     H_    0.820151 0.394715 0.738311 0.146172
H8    H     H_    0.989624 0.626319 0.259399 0.144639
H9    H     H_    0.003880 0.364913 0.755727 0.130624
H10   H     H_    0.177265 0.611604 0.279715 0.160284
H11   H     H_    0.532721 0.909030 0.595591 0.121041
H12   H     H_    0.485930 0.114037 0.285934 0.189233
N1    N     N_2   0.498860 0.498660 0.846770 -0.282034
N2    N     N_2   0.498840 0.498630 0.152900 -0.278041
O1    O     O_R   0.500020 0.321960 0.617050 -0.576486
O2    O     O_R   0.499980 0.321920 0.382890 -0.577083
O3    O     O_R   0.349010 0.500000 0.598060 -0.589258
O4    O     O_R   0.348980 0.499950 0.363910 -0.589386
O5    O     O_R   0.500020 0.678080 0.617110 -0.581872
O6    O     O_R   0.499980 0.678040 0.382950 -0.513539
O7    O     O_R   0.651020 0.500050 0.636090 -0.584822
O8    O     O_R   0.650990 0.500000 0.401940 -0.583457
C21   C     C_3   0.185641 0.319315 0.639560 -0.413111
C22   C     C_3   0.219887 0.218145 0.546092 -0.818399
H13   H     H_    0.275461 0.252761 0.475734 0.241519
H14   H     H_    0.258092 0.143637 0.610970 0.236043
H15   H     H_    0.151516 0.179493 0.482490 0.248383
H16   H     H_    0.252348 0.352637 0.709818 0.227965
H17   H     H_    0.134887 0.273335 0.708229 0.193161
O9    O     O_3   0.438842 0.878036 0.260018 -0.551224
C23   C     C_3   0.331561 0.898252 0.229281 0.080793
H18   H     H_    0.315764 0.996340 0.203483 0.140576
H19   H     H_    0.288171 0.870294 0.317933 0.127820
C24   C     C_3   0.291820 0.821685 0.104392 -0.796193
H20   H     H_    0.207318 0.836351 0.079349 0.194801
H21   H     H_    0.332104 0.848425 0.013103 0.248937
H22   H     H_    0.305991 0.723105 0.127603 0.242194

loop_
_geom_bond_atom_site_label_1
_geom_bond_atom_site_label_2
_ccdc_geom_bond_type
C12   C17   S    
C4    C16   A    
C12   O4    A    
Cu1   N1    S    
Cu2   N2    S    
C9    C10   D    
C20   C21   S    
Cu1   O3    S    
C24   H22   S    
C1    O1    A    
C14   O6    A    
Cu2   O4    S    
C12   O3    A    
C11   N1    D    
C6    H9    S    
C15   O7    A    
C7    C8    D    
C2    C6    A    
C21   C22   S    
O9    C23   S    
C5    C6    A    
C11   C13   S    
C22   H15   S    
Cu2   O6    S    
Cu2   O8    S    
C21   H16   S    
C13   N2    D    
C14   O5    A    
Cu1   O5    S    
C19   H10   S    
C1    O2    A    
C17   C19   A    
C24   H21   S    
C7    O9    S    
C2    C3    A    
C5    H7    S    
C8    H11   S    
C23   H19   S    
C15   O8    A    
C22   H14   S    
C21   H17   S    
C18   H8    S    
C2    C20   A    
C3    C4    A    
Cu2   O2    S    
H4    N1    S    
C17   C20   A    
Cu1   O1    S    
C24   H20   S    
H6    N2    S    
C3    C18   A    
C18   C19   A    
C23   C24   S    
C7    C9    S    
C4    H1    S    
C11   H3    S    
C22   H13   S    
C13   H5    S    
C5    C16   A    
C8    C14   S    
C10   H2    S    
Cu1   Cu2   S    
Cu1   O7    S    
C1    C10   S    
C15   C16   S    
C23   H18   S    
C9    H12   S    
