data_mof_unit_4379.cif
_audit_creation_date              2012-12-10T17:14:43-0500
_audit_creation_method            fapswitch 2.2
_symmetry_space_group_name_H-M    P1
_symmetry_Int_Tables_number       1
_space_group_crystal_system       triclinic
_cell_length_a                    10.65601
_cell_length_b                    13.135003
_cell_length_c                    11.691205
_cell_angle_alpha                 99.778241
_cell_angle_beta                  93.780976
_cell_angle_gamma                 90.943908
_cell_volume                      1608.45981297

loop_
_atom_site_label
_atom_site_type_symbol
_atom_type_description
_atom_site_fract_x
_atom_site_fract_y
_atom_site_fract_z
_atom_type_partial_charge
C1    C     C_R   0.497625 0.299269 0.478794 0.836551
C2    C     C_R   0.502375 0.700731 0.521206 0.836546
C3    C     C_R   0.472466 0.137557 0.562022 0.174414
C4    C     C_R   0.527538 0.862443 0.437978 0.174419
C5    C     C_R   0.483703 0.029815 0.552879 0.033165
C6    C     C_R   0.516307 0.970185 0.447123 0.033154
C7    C     C_R   0.384213 0.400586 0.020232 -0.373264
C8    C     C_R   0.615787 0.599414 0.979768 -0.373266
C9    C     C_R   0.392148 0.411115 0.142900 0.487189
C10   C     C_R   0.607852 0.588884 0.857100 0.487189
C11   C     C_R   0.550867 0.542133 0.157215 -0.023851
C12   C     C_R   0.449133 0.457867 0.842785 -0.023855
C13   C     C_R   0.542072 0.535919 0.034626 0.022455
C14   C     C_R   0.457928 0.464081 0.965374 0.022453
C15   C     C_R   0.259470 0.501783 0.500574 0.789184
C16   C     C_R   0.740530 0.498218 0.499426 0.789184
C17   C     C_3   0.048429 0.551367 0.604862 -0.236615
C18   C     C_3   0.951571 0.448634 0.395137 -0.236612
C19   C     C_3   0.964034 0.451296 0.586347 -0.206157
C20   C     C_3   0.035966 0.548706 0.413653 -0.206154
C21   C     C_3   0.876960 0.497294 0.498509 -0.078089
C22   C     C_3   0.123039 0.502707 0.501491 -0.078089
C23   C     C_3   0.960358 0.594850 0.516535 0.328654
C24   C     C_3   0.039642 0.405151 0.483465 0.328664
C25   C     C_R   0.500051 0.813936 0.533127 -0.136165
C26   C     C_R   0.499953 0.186064 0.466873 -0.136170
C27   C     C_R   0.538301 0.019268 0.352490 -0.278787
C28   C     C_R   0.461714 0.980734 0.647513 -0.278783
C29   C     C_R   0.532600 0.125749 0.361610 0.201527
C30   C     C_R   0.467410 0.874252 0.638392 0.201526
Cu1   Cu    Cu3+1 0.509400 0.507730 0.615930 0.967382
Cu2   Cu    Cu3+1 0.490600 0.492270 0.384070 0.967380
H1    H     H_    0.932821 0.409179 0.654596 0.142801
H2    H     H_    0.067179 0.590822 0.345403 0.142800
H3    H     H_    0.089663 0.594707 0.689156 0.148316
H4    H     H_    0.910336 0.405296 0.310844 0.148315
H5    H     H_    0.563605 0.976368 0.270366 0.154595
H6    H     H_    0.436416 0.023634 0.729639 0.154589
H7    H     H_    0.382616 0.404256 0.789278 0.159164
H8    H     H_    0.617385 0.595744 0.210722 0.159167
H9    H     H_    0.319934 0.343562 0.968276 0.138785
H10   H     H_    0.680066 0.656438 0.031724 0.138782
N1    N     N_R   0.523540 0.519360 0.790140 -0.194910
N2    N     N_R   0.476460 0.480640 0.209860 -0.194910
O1    O     O_R   0.506670 0.354460 0.582000 -0.564694
O2    O     O_R   0.493330 0.645540 0.418000 -0.564694
O3    O     O_R   0.490800 0.341410 0.386200 -0.544196
O4    O     O_R   0.509200 0.658590 0.613800 -0.544194
O5    O     O_R   0.324790 0.506500 0.597880 -0.589853
O6    O     O_R   0.675210 0.493500 0.402120 -0.589859
O7    O     O_R   0.308910 0.493440 0.402080 -0.563876
O8    O     O_R   0.691090 0.506560 0.597920 -0.563877
N3    N     N_2   0.911147 0.697831 0.531798 -0.450236
H11   H     H_    0.834648 0.707123 0.581671 0.249891
C31   C     C_3   0.003985 0.781011 0.561377 -0.743277
H12   H     H_    0.958968 0.855419 0.553815 0.235502
H13   H     H_    0.081076 0.770056 0.501280 0.238777
H14   H     H_    0.042925 0.784524 0.652390 0.221485
N4    N     N_2   0.088853 0.302171 0.468201 -0.450236
H15   H     H_    0.165363 0.292883 0.418344 0.249895
C32   C     C_3   0.996020 0.218993 0.438594 -0.743328
H16   H     H_    0.041035 0.144580 0.446142 0.235502
H17   H     H_    0.957091 0.215498 0.347582 0.221493
H18   H     H_    0.918924 0.229937 0.498682 0.238794
N5    N     N_2   0.568319 0.802552 0.334141 -0.414970
H19   H     H_    0.517769 0.811491 0.258399 0.243798
C33   C     C_3   0.703232 0.802552 0.326354 -0.692433
H20   H     H_    0.742065 0.882354 0.331926 0.222716
H21   H     H_    0.726655 0.756476 0.242282 0.204865
H22   H     H_    0.747876 0.767407 0.397726 0.262642
N6    N     N_2   0.431674 0.197447 0.665855 -0.414971
H23   H     H_    0.482226 0.188518 0.741599 0.243798
C34   C     C_3   0.296761 0.197430 0.673640 -0.692422
H24   H     H_    0.257949 0.117626 0.668109 0.222705
H25   H     H_    0.252104 0.232535 0.602242 0.262635
H26   H     H_    0.273327 0.243533 0.757695 0.204877
N7    N     N_2   0.438444 0.828705 0.736076 -0.406170
H27   H     H_    0.470446 0.871842 0.815088 0.234379
C35   C     C_3   0.308076 0.796041 0.735132 -0.671980
H28   H     H_    0.295594 0.754789 0.809179 0.220684
H29   H     H_    0.279002 0.742356 0.653228 0.230070
H30   H     H_    0.247061 0.864355 0.743897 0.206605
N8    N     N_2   0.561565 0.171296 0.263926 -0.406172
H31   H     H_    0.529567 0.128157 0.184914 0.234380
C36   C     C_3   0.691931 0.203967 0.264871 -0.671982
H32   H     H_    0.704411 0.245216 0.190823 0.220683
H33   H     H_    0.752951 0.135656 0.256113 0.206610
H34   H     H_    0.720999 0.257656 0.346774 0.230073
N9    N     N_2   0.686616 0.652214 0.803352 -0.375141
H35   H     H_    0.664101 0.729075 0.821025 0.238817
C37   C     C_3   0.820176 0.637894 0.824445 -0.726770
H36   H     H_    0.873946 0.684450 0.772802 0.227613
H37   H     H_    0.842917 0.555318 0.798791 0.245857
H38   H     H_    0.850832 0.664078 0.917579 0.203565
N10   N     N_2   0.313386 0.347785 0.196649 -0.375141
H39   H     H_    0.335904 0.270924 0.178979 0.238821
C38   C     C_3   0.179825 0.362100 0.175554 -0.726778
H40   H     H_    0.126059 0.315547 0.227202 0.227622
H41   H     H_    0.149171 0.335909 0.082421 0.203566
H42   H     H_    0.157081 0.444676 0.201201 0.245857

loop_
_geom_bond_atom_site_label_1
_geom_bond_atom_site_label_2
_ccdc_geom_bond_type
C31   H12   S    
C16   C21   S    
C27   C29   A    
C18   C21   S    
C34   H24   S    
N10   H39   S    
Cu1   O8    S    
C4    C25   A    
C15   C22   S    
N3    H11   S    
C2    O2    A    
C17   C23   S    
Cu1   N1    S    
N8    H31   S    
C18   C24   S    
C19   C21   S    
C8    H10   S    
C29   N8    S    
C12   N1    A    
C5    C6    A    
C38   H40   S    
C32   H17   S    
C30   N7    S    
C7    C14   A    
Cu1   Cu2   S    
C10   N9    S    
N5    C33   S    
C15   O7    A    
N9    C37   S    
C9    N10   S    
N7    H27   S    
C20   H2    S    
N7    C35   S    
N4    H15   S    
C13   C14   A    
C34   H25   S    
C32   H16   S    
Cu1   O5    S    
C38   H41   S    
C23   N3    S    
N3    C31   S    
N4    C32   S    
C36   H33   S    
C33   H20   S    
C4    C6    A    
C19   H1    S    
C37   H36   S    
C35   H29   S    
C1    O3    A    
C2    O4    A    
C36   H32   S    
C33   H21   S    
C32   H18   S    
C3    N6    S    
Cu2   O7    S    
C37   H37   S    
C5    C28   A    
C6    C27   A    
C20   C23   S    
C28   H6    S    
Cu2   N2    S    
C11   N2    A    
Cu2   O6    S    
N8    C36   S    
C20   C22   S    
Cu1   O4    S    
C31   H13   S    
C1    C26   S    
Cu2   O3    S    
C22   C24   S    
C38   H42   S    
N6    C34   S    
C36   H34   S    
C25   C30   A    
C7    C9    A    
C9    N2    A    
C10   N1    A    
Cu2   O2    S    
C3    C26   A    
C16   O8    A    
C12   C14   A    
C3    C5    A    
C35   H30   S    
N10   C38   S    
C17   C22   S    
C33   H22   S    
C12   H7    S    
C21   C23   S    
C19   C24   S    
N6    H23   S    
C37   H38   S    
C11   C13   A    
C1    O1    A    
C4    N5    S    
C27   H5    S    
C24   N4    S    
C28   C30   A    
C17   C19   S    
C2    C25   S    
C18   C20   S    
C15   O5    A    
C11   H8    S    
C16   O6    A    
C7    H9    S    
C35   H28   S    
C8    C13   A    
C34   H26   S    
C26   C29   A    
C8    C10   A    
N5    H19   S    
Cu1   O1    S    
C31   H14   S    
C17   H3    S    
N9    H35   S    
C18   H4    S    
