data_mof_unit_4359.cif
_audit_creation_date              2012-12-10T18:54:19-0500
_audit_creation_method            fapswitch 2.2
_symmetry_space_group_name_H-M    P1
_symmetry_Int_Tables_number       1
_space_group_crystal_system       triclinic
_cell_length_a                    10.794807
_cell_length_b                    9.856681
_cell_length_c                    23.491058
_cell_angle_alpha                 89.454142
_cell_angle_beta                  91.325393
_cell_angle_gamma                 89.414206
_cell_volume                      2498.55284799

loop_
_atom_site_label
_atom_site_type_symbol
_atom_type_description
_atom_site_fract_x
_atom_site_fract_y
_atom_site_fract_z
_atom_type_partial_charge
C1    C     C_R   0.260180 0.500620 0.504511 0.883651
C2    C     C_R   0.448428 0.622969 0.701660 -0.050692
C3    C     C_R   0.380431 0.528445 0.239956 -0.082067
C4    C     C_R   0.446514 0.626549 0.760586 -0.089486
C5    C     C_R   0.488746 0.508153 0.209655 0.187809
C6    C     C_R   0.481907 0.513559 0.793156 0.194964
C7    C     C_R   0.063285 0.377178 0.509152 -0.054720
C8    C     C_R   0.935650 0.623071 0.487278 -0.050963
C9    C     C_R   0.938933 0.375019 0.494108 -0.045390
C10   C     C_R   0.060348 0.625565 0.501779 -0.050554
C11   C     C_R   0.872695 0.498634 0.489176 -0.144122
C12   C     C_R   0.739426 0.499469 0.494729 0.890809
C13   C     C_R   0.126424 0.501765 0.508065 -0.148113
C14   C     C_R   0.579570 0.070518 0.535218 0.006223
C15   C     C_R   0.423305 0.929741 0.463545 0.003453
C16   C     C_R   0.422359 0.074028 0.463945 0.000713
C17   C     C_R   0.578369 0.926120 0.535794 0.006422
C18   C     C_R   0.499280 0.500434 0.389841 0.875488
C19   C     C_R   0.493759 0.499660 0.610881 0.876441
C20   C     C_R   0.553833 0.605964 0.882445 0.532479
C21   C     C_R   0.412966 0.422379 0.120000 0.526862
C22   C     C_R   0.390121 0.445087 0.881141 0.473476
C23   C     C_R   0.602988 0.479541 0.238217 -0.013627
C24   C     C_R   0.542774 0.616992 0.121416 0.485595
C25   C     C_R   0.395221 0.432666 0.940908 -0.097764
C26   C     C_R   0.551642 0.615829 0.061637 -0.100706
C27   C     C_R   0.474187 0.522304 0.971283 0.001214
C28   C     C_R   0.476901 0.522086 0.031219 0.000063
C29   C     C_R   0.551201 0.611877 0.941726 -0.053812
C30   C     C_R   0.405146 0.427215 0.060718 -0.049407
C31   C     C_R   0.325112 0.335750 0.971367 -0.036855
C32   C     C_R   0.630215 0.704389 0.031131 -0.039068
C33   C     C_R   0.330403 0.335794 0.030827 -0.112916
C34   C     C_R   0.515562 0.390802 0.767035 -0.029573
C35   C     C_R   0.627587 0.701677 0.971632 -0.118319
C36   C     C_2   0.255268 0.224443 0.943495 0.515098
C37   C     C_2   0.724611 0.791737 0.059057 0.514811
C38   C     C_2   0.714275 0.446881 0.204096 0.470523
C39   C     C_2   0.566241 0.275808 0.803003 0.459896
C40   C     C_1   0.721371 0.450888 0.329930 0.279630
C41   C     C_1   0.492125 0.248054 0.682489 0.346117
C42   C     C_1   0.266806 0.529405 0.328257 0.237280
C43   C     C_1   0.406576 0.744488 0.671661 0.246466
C44   C     C_1   0.121745 0.252402 0.530264 0.229796
C45   C     C_R   0.606711 0.478696 0.298352 -0.077066
C46   C     C_1   0.876002 0.747348 0.466290 0.239176
C47   C     C_1   0.884411 0.246097 0.478532 0.250493
C48   C     C_1   0.115226 0.755688 0.515168 0.236975
C49   C     C_1   0.666688 0.142061 0.571163 0.260438
C50   C     C_1   0.343319 0.859087 0.424171 0.258342
C51   C     C_1   0.339863 0.149256 0.425791 0.260902
C52   C     C_1   0.660795 0.851034 0.574003 0.263809
C53   C     C_R   0.502436 0.381446 0.707288 -0.065808
C54   C     C_R   0.496505 0.501202 0.328126 -0.140338
C55   C     C_R   0.481247 0.500835 0.673778 -0.180871
C56   C     C_R   0.382855 0.521589 0.298851 -0.063458
H1    H     H_    0.278085 0.260809 0.053955 0.227570
H2    H     H_    0.688738 0.767906 0.948512 0.228267
H3    H     H_    0.293516 0.547485 0.217041 0.171703
H4    H     H_    0.417507 0.718406 0.781857 0.165542
H5    H     H_    0.286665 0.180486 0.904192 0.112924
H6    H     H_    0.770484 0.760374 0.098604 0.123651
H7    H     H_    0.702933 0.413157 0.160476 0.060915
H8    H     H_    0.570988 0.283628 0.848973 0.065010
N1    N     N_R   0.475196 0.522103 0.853718 -0.350538
N2    N     N_1   0.828507 0.845731 0.449153 -0.170352
N3    N     N_1   0.841767 0.143511 0.465463 -0.179858
N4    N     N_1   0.158072 0.859366 0.526414 -0.175561
N5    N     N_1   0.736992 0.198509 0.600125 -0.177661
N6    N     N_1   0.278200 0.804341 0.392306 -0.183276
N7    N     N_1   0.273282 0.208668 0.395067 -0.174145
N8    N     N_1   0.727216 0.791596 0.604794 -0.172023
N9    N     N_R   0.481214 0.516093 0.148866 -0.351498
N10   N     N_R   0.500000 0.857200 0.500000 -0.128043
N11   N     N_R   0.500000 0.142800 0.500000 -0.129042
N12   N     N_1   0.812922 0.428636 0.355047 -0.168865
N13   N     N_1   0.481359 0.140680 0.663645 -0.167214
N14   N     N_1   0.173745 0.534661 0.351692 -0.153713
N15   N     N_1   0.372631 0.841655 0.647764 -0.161183
N16   N     N_1   0.168277 0.153655 0.547579 -0.166753
O1    O     O_R   0.316770 0.614620 0.500000 -0.619687
O2    O     O_2   0.353323 0.324493 0.148813 -0.535371
O3    O     O_2   0.301174 0.382741 0.850148 -0.563570
O4    O     O_2   0.592558 0.718205 0.152304 -0.554566
O5    O     O_2   0.163316 0.177347 0.965314 -0.528000
O6    O     O_2   0.755211 0.898630 0.037020 -0.533513
O7    O     O_2   0.819437 0.459224 0.223427 -0.533191
O8    O     O_2   0.608458 0.172810 0.782062 -0.535425
O9    O     O_R   0.683230 0.385380 0.500000 -0.618842
O10   O     O_R   0.683230 0.614620 0.500000 -0.619423
O11   O     O_R   0.316770 0.385380 0.500000 -0.619050
O12   O     O_R   0.499970 0.614690 0.416160 -0.612412
O13   O     O_R   0.500030 0.385310 0.583840 -0.621907
O14   O     O_R   0.500030 0.614690 0.583840 -0.611173
O15   O     O_R   0.499970 0.385310 0.416160 -0.616475
O16   O     O_2   0.634628 0.682632 0.853564 -0.527358
Zn1   Zn    Zn3+2 0.500000 0.653120 0.500000 0.994034
Zn2   Zn    Zn3+2 0.500000 0.346880 0.500000 0.990355

loop_
_geom_bond_atom_site_label_1
_geom_bond_atom_site_label_2
_ccdc_geom_bond_type
C25   C31   A    
C38   O7    D    
C26   C32   A    
C23   C45   A    
C12   O9    A    
C27   C29   A    
C16   N11   A    
C16   C51   S    
C37   H6    S    
O15   Zn2   S    
C39   H8    S    
C35   H2    S    
C12   O10   A    
C24   C26   A    
C46   N2    T    
C2    C55   A    
C41   N13   T    
C24   N9    A    
C14   C49   S    
C1    O1    A    
C15   C16   A    
C21   N9    A    
C15   C50   S    
C42   C56   S    
C6    N1    S    
C22   C25   A    
C31   C33   A    
O10   Zn1   S    
C19   O13   A    
C20   O16   S    
C1    O11   A    
C49   N5    T    
C18   O15   A    
C14   C17   A    
C51   N7    T    
C39   O8    D    
C17   C52   S    
C47   N3    T    
O12   Zn1   S    
N10   Zn1   S    
C20   C29   A    
C53   C55   A    
C40   C45   S    
C54   C56   A    
C34   C39   S    
C32   C35   A    
C37   O6    D    
C44   N16   T    
C4    C6    A    
O14   Zn1   S    
C7    C44   S    
N11   Zn2   S    
C40   N12   T    
C2    C4    A    
C22   N1    A    
C52   N8    T    
C3    C56   A    
C20   N1    A    
C5    C23   A    
C2    C43   S    
C4    H4    S    
C32   C37   S    
C48   N4    T    
C9    C11   A    
C41   C53   S    
C19   O14   A    
C45   C54   A    
C42   N14   T    
C10   C48   S    
C17   N10   A    
C1    C13   S    
C36   H5    S    
C38   H7    S    
C19   C55   S    
C7    C9    A    
C33   H1    S    
C30   C33   A    
C3    C5    A    
C10   C13   A    
C11   C12   S    
C9    C47   S    
C36   O5    D    
C25   C27   A    
C23   C38   S    
C21   C30   A    
C29   C35   A    
C26   C28   A    
O9    Zn2   S    
C18   O12   A    
C14   N11   A    
C28   C30   A    
C24   O4    S    
C22   O3    S    
C50   N6    T    
O1    Zn1   S    
C8    C11   A    
O11   Zn2   S    
C5    N9    S    
C8    C46   S    
C18   C54   S    
C6    C34   A    
C7    C13   A    
C15   N10   A    
C21   O2    S    
C34   C53   A    
C8    C10   A    
C27   C28   A    
C31   C36   S    
C43   N15   T    
O13   Zn2   S    
C3    H3    S    
