data_mof_unit_4868.cif
_audit_creation_date              2012-12-10T17:13:36-0500
_audit_creation_method            fapswitch 2.2
_symmetry_space_group_name_H-M    P1
_symmetry_Int_Tables_number       1
_space_group_crystal_system       triclinic
_cell_length_a                    10.79938
_cell_length_b                    12.988608
_cell_length_c                    11.846071
_cell_angle_alpha                 99.326255
_cell_angle_beta                  92.404779
_cell_angle_gamma                 95.239613
_cell_volume                      1630.09393572

loop_
_atom_site_label
_atom_site_type_symbol
_atom_type_description
_atom_site_fract_x
_atom_site_fract_y
_atom_site_fract_z
_atom_type_partial_charge
C1    C     C_R   0.497592 0.299497 0.478939 0.825832
C2    C     C_3   0.878418 0.488505 0.495150 -0.336177
C3    C     C_3   0.940983 0.587800 0.453382 1.096634
C4    C     C_3   0.917880 0.383733 0.422580 0.812118
C5    C     C_R   0.473335 0.811837 0.535200 -0.260117
C6    C     C_R   0.495897 0.185989 0.467629 -0.078332
C7    C     C_R   0.521486 0.017643 0.354544 -0.082262
C8    C     C_R   0.519666 0.125427 0.363082 -0.074697
C9    C     C_R   0.470240 0.137670 0.562595 -0.095401
C10   C     C_R   0.468889 0.029332 0.553979 -0.039029
C11   C     C_R   0.496606 0.969435 0.449742 0.069002
C12   C     C_R   0.260438 0.495090 0.500851 0.872981
C13   C     C_R   0.499938 0.862219 0.442072 -0.266908
C14   C     C_R   0.431437 0.870426 0.636353 0.319210
C15   C     C_R   0.436842 0.979824 0.646685 0.581528
C16   C     C_R   0.373945 0.394456 0.027239 0.247563
C17   C     C_R   0.391044 0.406527 0.148699 0.663786
C18   C     C_R   0.549353 0.548149 0.153749 0.485660
C19   C     C_R   0.535127 0.538032 0.031545 -0.247431
C20   C     C_R   0.450079 0.460075 0.966021 -0.292722
C21   C     C_R   0.445972 0.453397 0.842599 0.812833
C22   C     C_R   0.604382 0.595884 0.855966 0.476898
C23   C     C_R   0.490149 0.699350 0.521814 0.923053
C24   C     C_R   0.606077 0.606038 0.973176 -0.140531
C25   C     C_R   0.739495 0.493643 0.497959 0.954091
C26   C     C_3   0.075361 0.484938 0.622775 0.526655
C27   C     C_3   0.933978 0.492426 0.620367 -0.470603
C28   C     C_3   0.083455 0.591498 0.463433 -0.564281
C29   C     C_3   0.062119 0.394097 0.417222 -0.339191
C30   C     C_3   0.123042 0.490980 0.502048 -0.265851
Cu1   Cu    Cu3+1 0.509350 0.507730 0.615930 1.145067
Cu2   Cu    Cu3+1 0.490650 0.492270 0.384070 1.125708
H1    H     H_    0.121581 0.550467 0.687143 0.168049
H2    H     H_    0.122047 0.600940 0.379540 0.239216
H3    H     H_    0.523382 0.817827 0.362601 0.243472
H4    H     H_    0.541963 0.972059 0.273681 0.190271
H5    H     H_    0.538186 0.161244 0.288379 0.213817
H6    H     H_    0.449327 0.184389 0.642652 0.247872
H7    H     H_    0.668115 0.670227 0.015976 0.270529
H8    H     H_    0.887558 0.428855 0.661053 0.282668
H9    H     H_    0.917145 0.567519 0.673582 0.244387
H10   H     H_    0.122634 0.661403 0.525832 0.228376
H11   H     H_    0.089366 0.402265 0.329256 0.232381
H12   H     H_    0.099543 0.321424 0.436630 0.249484
N1    N     N_R   0.523430 0.519360 0.790130 -0.311025
N2    N     N_R   0.476570 0.480640 0.209880 -0.313488
O1    O     O_R   0.506640 0.354460 0.582000 -0.569061
O2    O     O_R   0.490840 0.341410 0.386200 -0.528710
O3    O     O_R   0.325590 0.506510 0.597900 -0.515684
O4    O     O_R   0.309790 0.493450 0.402100 -0.573397
O5    O     O_R   0.509160 0.658590 0.613800 -0.498603
O6    O     O_R   0.493360 0.645540 0.418000 -0.564676
O7    O     O_R   0.690210 0.506550 0.597900 -0.567272
O8    O     O_R   0.674410 0.493490 0.402100 -0.476519
S1    S     S_3+6 0.849834 0.340265 0.277926 0.078427
O9    O     O_2   0.904473 0.240978 0.230324 -0.217322
O10   O     O_2   0.711524 0.315458 0.278137 -0.301837
O11   O     O_3   0.882149 0.427462 0.190287 -0.440240
H13   H     H_    0.833022 0.398590 0.117758 0.386479
F1    F     F_    0.906253 0.587839 0.340910 -0.555561
S2    S     S_3+6 0.356986 0.811833 0.744674 0.083379
O12   O     O_2   0.286788 0.708626 0.694498 -0.332485
O13   O     O_2   0.452555 0.794457 0.833466 -0.242069
O14   O     O_3   0.254494 0.889665 0.808008 -0.423687
H14   H     H_    0.291072 0.916883 0.886431 0.401276
F2    F     F_    0.408082 0.038176 0.746214 -0.588121
F3    F     F_    0.366825 0.381186 0.773520 -0.563503
F4    F     F_    0.102007 0.391721 0.656846 -0.537555
S3    S     S_3+6 0.720806 0.686716 0.810675 0.077125
O15   O     O_2   0.728242 0.692007 0.686041 -0.220343
O16   O     O_2   0.703247 0.794920 0.871394 -0.221522
O17   O     O_3   0.858928 0.656659 0.860269 -0.540511
H15   H     H_    0.918843 0.717735 0.854234 0.401402
S4    S     S_3+6 0.254061 0.299534 0.957200 0.153205
O18   O     O_2   0.165599 0.352921 0.890181 -0.164175
O19   O     O_2   0.311366 0.217751 0.876920 -0.158614
O20   O     O_3   0.172491 0.239622 0.050250 -0.428039
H16   H     H_    0.107258 0.191439 0.002300 0.393841
F5    F     F_    0.321078 0.343734 0.207311 -0.591243
S5    S     S_3+6 0.665646 0.652003 0.224233 0.080749
O21   O     O_2   0.786072 0.633260 0.168644 -0.178849
O22   O     O_2   0.625555 0.753116 0.195520 -0.359812
O23   O     O_3   0.702127 0.674902 0.365191 -0.436482
H17   H     H_    0.744455 0.747132 0.381659 0.403041
F6    F     F_    0.905548 0.678169 0.517839 -0.622269
F7    F     F_    0.884665 0.301904 0.481079 -0.611860

loop_
_geom_bond_atom_site_label_1
_geom_bond_atom_site_label_2
_ccdc_geom_bond_type
S1    O9    D    
C3    F6    S    
C7    H4    S    
C19   C20   A    
C6    C9    A    
C12   O3    A    
C7    C8    A    
O20   H16   S    
C7    C11   A    
C26   C27   S    
S4    O19   D    
C16   S4    S    
C3    C28   S    
C25   O7    A    
C13   H3    S    
C10   C15   A    
S5    O21   D    
C4    F7    S    
C17   F5    S    
C24   H7    S    
S2    O13   D    
C18   C19   A    
S3    O16   D    
Cu2   O6    S    
Cu1   Cu2   S    
C16   C17   A    
S4    O20   S    
C2    C27   S    
C9    C10   A    
C22   S3    S    
C5    C13   A    
C4    C29   S    
C3    F1    S    
C28   H2    S    
Cu1   O1    S    
C29   H11   S    
Cu2   O2    S    
S2    O12   D    
Cu1   O3    S    
S5    O23   S    
C18   N2    A    
Cu2   O8    S    
C21   N1    A    
S4    O18   D    
C1    C6    S    
C14   S2    S    
C25   O8    A    
S5    O22   D    
C1    O1    A    
C6    C8    A    
O11   H13   S    
C15   F2    S    
S2    O14   S    
C2    C4    S    
C29   C30   S    
C27   H9    S    
C26   H1    S    
C23   O5    A    
O23   H17   S    
C5    C23   S    
C27   H8    S    
C16   C20   A    
Cu1   O7    S    
Cu2   O4    S    
C5    C14   A    
C26   C30   S    
S1    O10   D    
C29   H12   S    
C22   C24   A    
C8    H5    S    
S3    O17   S    
C12   C30   S    
Cu2   N2    S    
Cu1   O5    S    
O17   H15   S    
C12   O4    A    
C17   N2    A    
C1    O2    A    
C26   F4    S    
O14   H14   S    
C28   C30   S    
C2    C3    S    
C4    S1    S    
C11   C13   A    
C23   O6    A    
C28   H10   S    
C9    H6    S    
C19   C24   A    
C2    C25   S    
S3    O15   D    
C10   C11   A    
C22   N1    A    
C20   C21   A    
C18   S5    S    
Cu1   N1    S    
S1    O11   S    
C14   C15   A    
C21   F3    S    
