data_mof_unit_3227.cif
_audit_creation_date              2012-12-10T17:55:52-0500
_audit_creation_method            fapswitch 2.2
_symmetry_space_group_name_H-M    P1
_symmetry_Int_Tables_number       1
_space_group_crystal_system       triclinic
_cell_length_a                    11.090199
_cell_length_b                    10.765811
_cell_length_c                    9.523622
_cell_angle_alpha                 89.950618
_cell_angle_beta                  103.603969
_cell_angle_gamma                 90.300527
_cell_volume                      1105.15652997

loop_
_atom_site_label
_atom_site_type_symbol
_atom_type_description
_atom_site_fract_x
_atom_site_fract_y
_atom_site_fract_z
_atom_type_partial_charge
C1    C     C_R   0.499817 0.262507 0.499989 0.883862
C2    C     C_R   0.500154 0.737489 0.500000 0.886486
C3    C     C_R   0.262185 0.499730 0.440134 0.862227
C4    C     C_R   0.737818 0.499187 0.559866 0.865182
C5    C     C_R   0.416322 0.429688 0.051585 -0.011676
C6    C     C_R   0.583680 0.570312 0.948414 -0.011367
C7    C     C_R   0.416412 0.429641 0.902826 -0.014465
C8    C     C_R   0.583595 0.570351 0.097175 -0.015453
C9    C     C_2   0.125902 0.498300 0.403012 0.030475
C10   C     C_2   0.874092 0.496685 0.596959 0.021402
C11   C     C_2   0.067580 0.485072 0.511245 -0.129372
C12   C     C_2   0.932208 0.485630 0.488376 -0.145247
C13   C     C_R   0.392829 0.064891 0.427173 0.225552
C14   C     C_R   0.607132 0.935094 0.572815 0.226303
C15   C     C_R   0.391816 0.934648 0.426716 0.079747
C16   C     C_R   0.608158 0.065337 0.573207 0.079635
C17   C     C_R   0.499620 0.871506 0.499625 -0.165251
C18   C     C_R   0.500343 0.128484 0.500352 -0.164516
Cu1   Cu    Cu3+1 0.500000 0.500020 0.640660 0.968072
Cu2   Cu    Cu3+1 0.500000 0.499980 0.359340 0.968161
H1    H     H_    0.877652 0.478059 0.378103 0.168577
H2    H     H_    0.121995 0.474708 0.621213 0.163673
H3    H     H_    0.349397 0.373234 0.089377 0.155756
H4    H     H_    0.650604 0.626768 0.910621 0.153487
H5    H     H_    0.349571 0.373009 0.828630 0.132681
H6    H     H_    0.650447 0.626970 0.171373 0.135379
N1    N     N_R   0.500030 0.500030 0.852080 -0.166076
N2    N     N_R   0.499970 0.499970 0.147920 -0.166995
O1    O     O_R   0.499990 0.319660 0.618740 -0.582625
O2    O     O_R   0.500010 0.680340 0.381260 -0.582061
O3    O     O_R   0.499990 0.319630 0.381170 -0.559681
O4    O     O_R   0.500010 0.680370 0.618830 -0.558912
O5    O     O_R   0.320690 0.500020 0.575130 -0.608528
O6    O     O_R   0.679310 0.499980 0.424870 -0.607768
O7    O     O_R   0.320680 0.499990 0.337560 -0.572787
O8    O     O_R   0.679320 0.500010 0.662440 -0.573900
C19   C     C_3   0.944741 0.507820 0.753360 -0.818982
H7    H     H_    0.882182 0.520186 0.827586 0.250127
H8    H     H_    0.999698 0.422393 0.786889 0.224604
H9    H     H_    0.007738 0.589714 0.766859 0.251205
C20   C     C_3   0.055527 0.513066 0.247000 -0.835824
H10   H     H_    0.118378 0.526922 0.173228 0.247008
H11   H     H_    0.999002 0.428520 0.210784 0.249080
H12   H     H_    0.994061 0.595387 0.236048 0.231230
Br1   Br    Br    0.248019 0.158881 0.331598 -0.551387
Br2   Br    Br    0.751932 0.841086 0.668488 -0.552109
C21   C     C_3   0.277399 0.861050 0.352639 -0.743506
H13   H     H_    0.297967 0.805193 0.263256 0.232955
H14   H     H_    0.249797 0.797506 0.431688 0.205197
H15   H     H_    0.195728 0.918768 0.305935 0.273233
C22   C     C_3   0.722618 0.138928 0.647114 -0.742966
H16   H     H_    0.702143 0.194845 0.736498 0.233516
H17   H     H_    0.804291 0.081199 0.693760 0.273202
H18   H     H_    0.750160 0.202403 0.567965 0.203442

loop_
_geom_bond_atom_site_label_1
_geom_bond_atom_site_label_2
_ccdc_geom_bond_type
C11   C12   S    
C4    O8    A    
C15   C17   A    
C19   H7    S    
C3    C9    S    
C15   C21   S    
C21   H14   S    
C5    N2    A    
Cu1   N1    S    
C20   H10   S    
C20   H11   S    
C11   H2    S    
C9    C20   S    
C21   H13   S    
C5    H3    S    
C16   C22   S    
C3    O7    A    
C2    O2    A    
C22   H18   S    
Cu2   O6    S    
C1    O1    A    
C6    H4    S    
C22   H16   S    
C14   Br2   S    
Cu2   O2    S    
C2    C17   S    
C13   Br1   S    
C9    C11   D    
C14   C17   A    
C1    C18   S    
C10   C12   D    
C13   C18   A    
C10   C19   S    
Cu1   O4    S    
C16   C18   A    
C21   H15   S    
C4    O6    A    
Cu1   O8    S    
C13   C15   A    
C1    O3    A    
C8    N2    A    
C20   H12   S    
C14   C16   A    
C3    O5    A    
C4    C10   S    
C19   H9    S    
Cu1   O1    S    
C19   H8    S    
C8    H6    S    
C2    O4    A    
Cu1   O5    S    
C5    C7    A    
C6    N1    A    
C7    N1    A    
C6    C8    A    
Cu2   N2    S    
Cu2   O7    S    
C12   H1    S    
Cu1   Cu2   S    
C22   H17   S    
Cu2   O3    S    
C7    H5    S    
