data_mof_unit_1263.cif
_audit_creation_date              2012-12-10T18:57:40-0500
_audit_creation_method            fapswitch 2.2
_symmetry_space_group_name_H-M    P1
_symmetry_Int_Tables_number       1
_space_group_crystal_system       triclinic
_cell_length_a                    10.926181
_cell_length_b                    10.876766
_cell_length_c                    9.589161
_cell_angle_alpha                 90.974451
_cell_angle_beta                  92.514893
_cell_angle_gamma                 91.137735
_cell_volume                      1138.08602081

loop_
_atom_site_label
_atom_site_type_symbol
_atom_type_description
_atom_site_fract_x
_atom_site_fract_y
_atom_site_fract_z
_atom_type_partial_charge
C1    C     C_R   0.495581 0.262860 0.498785 0.846442
C2    C     C_R   0.480070 0.130498 0.496823 -0.134093
C3    C     C_R   0.458616 0.063789 0.371509 -0.290786
C4    C     C_R   0.457550 0.934048 0.370698 0.414876
C5    C     C_R   0.480989 0.871424 0.498201 -0.173188
C6    C     C_R   0.482470 0.940650 0.622732 -0.068401
C7    C     C_3   0.562107 0.941603 0.755409 0.636785
C8    C     C_3   0.559515 0.082982 0.753338 0.472671
C9    C     C_R   0.603273 0.532538 0.079456 0.236555
C10   C     C_R   0.404470 0.449609 0.065646 0.177268
C11   C     C_R   0.404670 0.451511 0.918250 0.015692
C12   C     C_R   0.265574 0.502030 0.497084 0.756319
C13   C     C_R   0.604731 0.528173 0.932278 0.163149
C14   C     C_3   0.678765 0.644078 0.929643 -0.130137
C15   C     C_3   0.671544 0.652757 0.088597 0.104909
C16   C     C_R   0.496256 0.737897 0.500240 0.856663
C17   C     C_R   0.734272 0.490481 0.503175 0.754022
C18   C     C_2   0.929201 0.459233 0.397111 -0.229109
C19   C     C_2   0.865419 0.464050 0.513060 0.309379
C20   C     C_2   0.062370 0.441982 0.405939 0.385351
C21   C     C_2   0.133629 0.517583 0.489136 0.309543
C22   C     C_R   0.481435 0.067253 0.621291 -0.086942
Cu1   Cu    Cu3+1 0.499990 0.499980 0.640670 1.014290
Cu2   Cu    Cu3+1 0.500010 0.500020 0.359330 0.989894
H1    H     H_    0.884587 0.464796 0.294196 0.171096
H2    H     H_    0.326688 0.413499 0.857660 0.173343
H3    H     H_    0.629436 0.714786 0.871671 0.248977
H4    H     H_    0.615189 0.729478 0.126759 0.158978
H5    H     H_    0.447717 0.111918 0.273872 0.157529
N1    N     N_R   0.500780 0.500930 0.147930 -0.224530
N2    N     N_R   0.500780 0.500890 0.852020 -0.215686
O1    O     O_R   0.500000 0.319640 0.618810 -0.537482
O2    O     O_R   0.500010 0.319680 0.381230 -0.613075
O3    O     O_R   0.321940 0.499980 0.618760 -0.599855
O4    O     O_R   0.321950 0.500020 0.381180 -0.587944
O5    O     O_R   0.499990 0.680320 0.618770 -0.555067
O6    O     O_R   0.500000 0.680360 0.381190 -0.524618
O7    O     O_R   0.678050 0.499980 0.618820 -0.559768
O8    O     O_R   0.678060 0.500020 0.381240 -0.565415
O9    O     O_3   0.674573 0.141138 0.737343 -0.687017
H6    H     H_    0.704319 0.119533 0.643900 0.304874
N3    N     N_3   0.300354 0.392629 0.123508 -0.568567
H7    H     H_    0.328112 0.335686 0.204797 0.290511
H8    H     H_    0.241643 0.461349 0.154735 0.275788
N4    N     N_3   0.801510 0.623777 0.879173 -0.499110
H9    H     H_    0.854163 0.703919 0.899346 0.267316
H10   H     H_    0.843882 0.552226 0.933218 0.261248
O10   O     O_3   0.784853 0.642885 0.161138 -0.723168
H11   H     H_    0.820691 0.727413 0.167219 0.336574
O11   O     O_3   0.923743 0.436314 0.639834 -0.683541
H12   H     H_    0.862461 0.426465 0.711900 0.352373
O12   O     O_3   0.113366 0.346884 0.332469 -0.778100
H13   H     H_    0.046445 0.301513 0.279148 0.334233
O13   O     O_3   0.082718 0.614152 0.561024 -0.707032
H14   H     H_    0.149510 0.661931 0.611705 0.326055
O14   O     O_3   0.437800 0.868519 0.246721 -0.720286
H15   H     H_    0.422210 0.926445 0.169498 0.323267
O15   O     O_3   0.500046 0.889939 0.865956 -0.749889
H16   H     H_    0.552959 0.906109 0.951314 0.311384
O16   O     O_3   0.679690 0.892526 0.741346 -0.732255
H17   H     H_    0.705943 0.906129 0.644943 0.304849
N5    N     N_3   0.493299 0.141663 0.865533 -0.531991
H18   H     H_    0.542864 0.129607 0.959899 0.214986
H19   H     H_    0.406855 0.099963 0.873950 0.219866

loop_
_geom_bond_atom_site_label_1
_geom_bond_atom_site_label_2
_ccdc_geom_bond_type
C2    C22   A    
C8    C22   S    
Cu1   Cu2   S    
C6    C7    S    
Cu1   O5    S    
C14   H3    S    
C10   N3    S    
Cu1   O7    S    
N3    H7    S    
C10   N1    A    
C7    O15   S    
O14   H15   S    
Cu2   O2    S    
C14   C15   S    
C16   O6    A    
Cu1   O3    S    
Cu1   O1    S    
C2    C3    A    
C9    C15   S    
C11   N2    A    
C7    C8    S    
C20   O12   S    
C13   C14   S    
C4    O14   S    
C12   O4    A    
C19   O11   S    
C15   H4    S    
N5    H18   S    
C18   H1    S    
N3    H8    S    
C15   O10   S    
C5    C6    A    
C9    N1    A    
O9    H6    S    
C17   C19   S    
C18   C19   D    
C14   N4    S    
C18   C20   S    
C17   O7    A    
N4    H10   S    
C21   O13   S    
Cu2   N1    S    
Cu2   O4    S    
C10   C11   A    
C1    O2    A    
C3    C4    A    
C6    C22   A    
C7    O16   S    
C4    C5    A    
Cu2   O8    S    
C20   C21   D    
Cu2   O6    S    
C1    C2    S    
C17   O8    A    
C8    N5    S    
C3    H5    S    
C9    C13   A    
O13   H14   S    
O10   H11   S    
C5    C16   S    
N5    H19   S    
C8    O9    S    
C11   H2    S    
O11   H12   S    
O15   H16   S    
N4    H9    S    
C12   O3    A    
C12   C21   S    
C13   N2    A    
C1    O1    A    
C16   O5    A    
O12   H13   S    
O16   H17   S    
Cu1   N2    S    
