data_mof_unit_4233.cif
_audit_creation_date              2012-12-10T18:53:52-0500
_audit_creation_method            fapswitch 2.2
_symmetry_space_group_name_H-M    P1
_symmetry_Int_Tables_number       1
_space_group_crystal_system       triclinic
_cell_length_a                    19.305814
_cell_length_b                    18.192756
_cell_length_c                    10.811552
_cell_angle_alpha                 90.094653
_cell_angle_beta                  91.997375
_cell_angle_gamma                 89.988884
_cell_volume                      3794.98541047

loop_
_atom_site_label
_atom_site_type_symbol
_atom_type_description
_atom_site_fract_x
_atom_site_fract_y
_atom_site_fract_z
_atom_type_partial_charge
C1    C     C_R   0.367710 0.500050 0.498487 0.796674
C2    C     C_R   0.632209 0.500067 0.499393 0.814769
C3    C     C_R   0.817399 0.526355 0.602391 -0.208266
C4    C     C_R   0.185803 0.528568 0.376605 -0.187207
C5    C     C_R   0.745397 0.527894 0.600833 -0.196557
C6    C     C_R   0.257865 0.530975 0.387255 -0.209239
C7    C     C_R   0.707399 0.500375 0.498688 -0.100547
C8    C     C_R   0.292376 0.500141 0.490617 -0.078491
C9    C     C_R   0.964331 0.568155 0.490315 0.294519
C10   C     C_R   0.035103 0.566165 0.460020 0.267088
C11   C     C_R   0.071089 0.498942 0.464413 -0.226886
C12   C     C_R   0.928215 0.501219 0.500150 -0.223768
C13   C     C_R   0.034402 0.432447 0.474297 0.376677
C14   C     C_R   0.963881 0.433727 0.498642 0.354287
C15   C     C_R   0.442588 0.721405 0.459519 0.093827
C16   C     C_R   0.558016 0.721036 0.538924 0.010513
C17   C     C_R   0.441798 0.798708 0.457166 0.166491
C18   C     C_R   0.560265 0.798311 0.537245 0.096099
C19   C     C_R   0.501263 0.838706 0.496781 -0.026492
C20   C     C_R   0.546907 0.961020 0.423133 -0.088023
C21   C     C_R   0.455912 0.960934 0.571044 -0.141255
C22   C     C_R   0.499460 0.499928 0.262228 0.823152
C23   C     C_R   0.499645 0.500076 0.737691 0.835907
C24   C     C_R   0.547176 0.038364 0.424107 -0.100321
C25   C     C_R   0.455748 0.038223 0.571179 -0.093534
C26   C     C_R   0.501484 0.077905 0.497951 0.230601
C27   C     C_R   0.501428 0.921275 0.496954 0.178364
C28   C     C_R   0.473545 0.200295 0.397059 0.071502
C29   C     C_R   0.528215 0.200221 0.600897 0.071565
C30   C     C_R   0.468478 0.278018 0.403654 0.492592
C31   C     C_R   0.531732 0.278107 0.596229 0.489472
C32   C     C_R   0.501320 0.160459 0.498457 -0.157591
C33   C     C_R   0.495742 0.565708 0.063439 0.001410
C34   C     C_R   0.495890 0.566016 0.936997 0.033044
C35   C     C_R   0.494472 0.499777 0.128912 -0.072485
C36   C     C_R   0.494877 0.500141 0.870380 -0.104804
C37   C     C_R   0.485313 0.433646 0.062988 -0.216216
C38   C     C_R   0.485303 0.433839 0.934216 -0.198925
C39   C     C_3   0.539840 0.633952 0.933013 0.521918
C40   C     C_3   0.541123 0.632112 0.076548 0.484511
C41   C     C_R   0.741467 0.472780 0.396475 -0.311096
C42   C     C_R   0.254767 0.468485 0.584952 -0.300204
C43   C     C_R   0.813907 0.474914 0.394487 0.498421
C44   C     C_R   0.182314 0.469834 0.578451 0.496457
C45   C     C_R   0.852058 0.500992 0.499151 0.152995
C46   C     C_R   0.147500 0.498399 0.472000 0.123530
Cu1   Cu    Cu3+1 0.500000 0.573360 0.500000 0.978985
Cu2   Cu    Cu3+1 0.500000 0.426640 0.500000 0.992377
H1    H     H_    0.481137 0.381561 0.110176 0.221548
H2    H     H_    0.480648 0.381897 0.885566 0.211401
H3    H     H_    0.397192 0.691656 0.426348 0.169626
H4    H     H_    0.603210 0.691055 0.572179 0.189243
H5    H     H_    0.582206 0.932060 0.364478 0.163382
H6    H     H_    0.420431 0.931934 0.629077 0.156072
H7    H     H_    0.582951 0.067505 0.366823 0.158978
H8    H     H_    0.419933 0.067223 0.628760 0.158954
H9    H     H_    0.711940 0.450838 0.317710 0.161641
H10   H     H_    0.281508 0.444709 0.665103 0.153490
H11   H     H_    0.845905 0.542959 0.685286 0.147729
H12   H     H_    0.160090 0.549643 0.293597 0.158115
H13   H     H_    0.719384 0.547805 0.681143 0.199240
H14   H     H_    0.286848 0.554753 0.313179 0.152007
N1    N     N_R   0.500000 0.683620 0.500000 -0.208536
N2    N     N_R   0.500000 0.316380 0.500000 -0.272179
O1    O     O_R   0.400190 0.561980 0.499980 -0.585309
O2    O     O_R   0.599810 0.561980 0.500020 -0.594908
O3    O     O_R   0.400190 0.438070 0.500040 -0.583089
O4    O     O_R   0.599810 0.438070 0.499960 -0.579260
O5    O     O_R   0.500000 0.561960 0.319660 -0.570769
O6    O     O_R   0.500000 0.561960 0.680340 -0.536315
O7    O     O_R   0.500000 0.438060 0.319720 -0.542658
O8    O     O_R   0.500000 0.438060 0.680280 -0.545487
Br1   Br    Br    0.359707 0.846433 0.392313 -0.484531
Br2   Br    Br    0.644274 0.845433 0.595413 -0.579814
Br3   Br    Br    0.443248 0.149443 0.248107 -0.470991
Br4   Br    Br    0.558941 0.148911 0.748887 -0.486433
O9    O     O_3   0.436348 0.315843 0.307178 -0.572802
C47   C     C_3   0.363610 0.311670 0.316799 0.095539
H15   H     H_    0.347126 0.325271 0.411855 0.147031
H16   H     H_    0.344504 0.255630 0.293438 0.178400
C48   C     C_3   0.329899 0.365808 0.225006 -0.301114
H17   H     H_    0.347905 0.422438 0.247403 0.211441
H18   H     H_    0.345782 0.352215 0.129807 0.229791
C49   C     C_3   0.251102 0.363114 0.228738 -0.948636
H19   H     H_    0.231791 0.308086 0.199255 0.261699
H20   H     H_    0.228191 0.405146 0.165151 0.259205
H21   H     H_    0.234316 0.374671 0.323959 0.264768
O10   O     O_3   0.561269 0.315983 0.695479 -0.564706
C50   C     C_3   0.634322 0.314610 0.689847 0.093392
H22   H     H_    0.652146 0.326956 0.595217 0.143874
H23   H     H_    0.654868 0.259831 0.717328 0.179868
C51   C     C_3   0.664471 0.371842 0.780485 -0.273358
H24   H     H_    0.645753 0.427406 0.752994 0.225692
H25   H     H_    0.646399 0.360225 0.874994 0.238923
C52   C     C_3   0.743488 0.371291 0.783279 -0.959280
H26   H     H_    0.763496 0.317480 0.817239 0.260659
H27   H     H_    0.763689 0.415285 0.846069 0.270865
H28   H     H_    0.762386 0.381383 0.689112 0.260989
Br5   Br    Br    0.629347 0.615756 0.857122 -0.604004
Br6   Br    Br    0.488354 0.711518 0.155123 -0.565206
O11   O     O_3   0.499797 0.691468 0.878358 -0.594231
C53   C     C_3   0.537579 0.757899 0.874185 0.129870
H29   H     H_    0.571781 0.757179 0.793974 0.197316
H30   H     H_    0.570267 0.766961 0.959362 0.155560
C54   C     C_3   0.486357 0.821666 0.858926 -0.340898
H31   H     H_    0.458890 0.817450 0.767119 0.216216
H32   H     H_    0.447168 0.818118 0.931584 0.271102
C55   C     C_3   0.522532 0.896083 0.869840 -0.804970
H33   H     H_    0.549270 0.901775 0.962010 0.267557
H34   H     H_    0.483576 0.940729 0.859117 0.266938
H35   H     H_    0.560854 0.902253 0.796603 0.293432
O12   O     O_3   0.607441 0.610146 0.126038 -0.618525
C56   C     C_3   0.634335 0.652656 0.225871 0.128194
H36   H     H_    0.672602 0.617389 0.276912 0.158910
H37   H     H_    0.595317 0.666956 0.294683 0.191763
C57   C     C_3   0.672617 0.720435 0.179570 -0.388179
H38   H     H_    0.708014 0.703963 0.105478 0.254661
H39   H     H_    0.634862 0.760880 0.140916 0.233721
C58   C     C_3   0.714861 0.757164 0.284196 -0.842529
H40   H     H_    0.680267 0.774236 0.358752 0.288584
H41   H     H_    0.741162 0.806655 0.248471 0.264630
H42   H     H_    0.754831 0.718786 0.322709 0.261101
O13   O     O_3   0.847585 0.446800 0.293999 -0.609118
C59   C     C_3   0.847882 0.500656 0.200130 0.028821
H43   H     H_    0.875315 0.551165 0.234004 0.146739
H44   H     H_    0.793934 0.515113 0.168943 0.164365
C60   C     C_3   0.885950 0.470012 0.089595 -0.317377
H45   H     H_    0.939997 0.455957 0.119230 0.213059
H46   H     H_    0.859710 0.419033 0.055871 0.232120
C61   C     C_3   0.887572 0.525366 0.983824 -0.945662
H47   H     H_    0.834052 0.539698 0.951270 0.274266
H48   H     H_    0.915307 0.501104 0.905257 0.248119
H49   H     H_    0.915206 0.576036 0.014777 0.261721
O14   O     O_3   0.145589 0.441271 0.674892 -0.605894
C62   C     C_3   0.136241 0.497448 0.763155 0.035845
H50   H     H_    0.108682 0.545501 0.720414 0.145141
H51   H     H_    0.187322 0.515722 0.803490 0.152450
C63   C     C_3   0.092539 0.467812 0.867266 -0.321572
H52   H     H_    0.040750 0.451206 0.828770 0.202640
H53   H     H_    0.118335 0.418682 0.908977 0.228612
C64   C     C_3   0.082906 0.525499 0.967899 -0.964849
H54   H     H_    0.133939 0.543708 0.007510 0.259942
H55   H     H_    0.052632 0.501675 0.043463 0.252561
H56   H     H_    0.054322 0.573675 0.929141 0.266641
O15   O     O_3   0.927596 0.633816 0.497171 -0.608090
C65   C     C_3   0.956432 0.681483 0.589751 0.104155
H57   H     H_    0.936075 0.737543 0.570250 0.169288
H58   H     H_    0.013589 0.686372 0.588409 0.186599
C66   C     C_3   0.935180 0.659481 0.719890 -0.397580
H59   H     H_    0.877919 0.662977 0.725147 0.246867
H60   H     H_    0.952288 0.602280 0.739984 0.207194
C67   C     C_3   0.967941 0.710162 0.818197 -0.904036
H61   H     H_    0.025361 0.706337 0.817555 0.255813
H62   H     H_    0.950784 0.693628 0.911044 0.257765
H63   H     H_    0.951872 0.767983 0.801034 0.270737
O16   O     O_3   0.069914 0.629291 0.426846 -0.603467
C68   C     C_3   0.046663 0.650459 0.306554 0.047416
H64   H     H_    0.993157 0.673025 0.308334 0.183009
H65   H     H_    0.047184 0.603088 0.240767 0.127389
C69   C     C_3   0.094540 0.710232 0.259306 -0.306395
H66   H     H_    0.093282 0.758546 0.322268 0.235059
H67   H     H_    0.148575 0.689139 0.258957 0.233727
C70   C     C_3   0.072608 0.734294 0.128547 -0.916509
H68   H     H_    0.075373 0.687206 0.063463 0.255883
H69   H     H_    0.107923 0.778168 0.097383 0.275608
H70   H     H_    0.018848 0.756147 0.126689 0.258742
O17   O     O_3   0.067471 0.365188 0.464767 -0.565313
C71   C     C_3   0.080896 0.350371 0.339107 0.038093
H71   H     H_    0.122289 0.308049 0.337869 0.177175
H72   H     H_    0.100943 0.399223 0.289557 0.131928
C72   C     C_3   0.016695 0.319372 0.269438 -0.315556
H73   H     H_    0.999847 0.268043 0.315076 0.238762
H74   H     H_    0.973575 0.359629 0.271267 0.251235
C73   C     C_3   0.031925 0.302947 0.134597 -0.946599
H75   H     H_    0.047322 0.354055 0.086657 0.252022
H76   H     H_    0.984705 0.280546 0.086585 0.265082
H77   H     H_    0.074241 0.261816 0.129121 0.268316
O18   O     O_3   0.929012 0.367767 0.511306 -0.552054
C74   C     C_3   0.916837 0.354708 0.637956 0.081964
H78   H     H_    0.868839 0.321464 0.642986 0.165620
H79   H     H_    0.907320 0.405862 0.691855 0.079329
C75   C     C_3   0.976489 0.311555 0.700869 -0.368498
H80   H     H_    0.025687 0.342630 0.694845 0.258142
H81   H     H_    0.965677 0.304983 0.800567 0.166177
C76   C     C_3   0.985041 0.235511 0.643495 -0.680254
H82   H     H_    0.936718 0.203007 0.651595 0.225880
H83   H     H_    0.028039 0.205964 0.692854 0.226604
H84   H     H_    0.997571 0.240201 0.544433 0.283952

loop_
_geom_bond_atom_site_label_1
_geom_bond_atom_site_label_2
_ccdc_geom_bond_type
C62   C63   S    
C72   H73   S    
C26   C32   S    
O11   C53   S    
C30   N2    A    
C1    C8    S    
C2    C7    S    
C49   H21   S    
C42   H10   S    
O15   C65   S    
C52   H28   S    
O13   C59   S    
C40   O12   S    
C29   Br4   S    
C4    C46   A    
O9    C47   S    
C55   H33   S    
C24   H7    S    
C22   C35   S    
C54   H32   S    
C68   H64   S    
C62   H50   S    
O16   C68   S    
C70   H69   S    
C13   O17   S    
C24   C26   A    
C56   H36   S    
C29   C32   A    
C2    O4    A    
C66   H60   S    
Cu1   N1    S    
C21   H6    S    
C47   H16   S    
C76   H83   S    
C57   H38   S    
C53   C54   S    
C62   H51   S    
C18   C19   A    
C20   C24   A    
C75   H80   S    
Cu1   O5    S    
C33   C35   A    
C73   H75   S    
C30   O9    S    
C71   C72   S    
C52   H26   S    
C57   H39   S    
C1    O1    A    
C25   H8    S    
C16   N1    A    
C15   H3    S    
C50   H23   S    
C19   C27   S    
C9    C10   A    
C22   O5    A    
C56   C57   S    
C71   H72   S    
C21   C27   A    
C68   H65   S    
C13   C14   A    
C17   Br1   S    
C41   C43   A    
C23   O6    A    
C42   C44   A    
Cu2   O8    S    
C31   N2    A    
O12   C56   S    
C48   H18   S    
C44   C46   A    
C39   O11   S    
C65   H58   S    
C58   H41   S    
C44   O14   S    
C72   C73   S    
C33   C40   S    
C34   C39   S    
C69   C70   S    
O18   C74   S    
C28   C32   A    
C70   H70   S    
C49   H19   S    
C4    C6    A    
C10   C11   A    
C66   C67   S    
C10   O16   S    
O17   C71   S    
C5    C7    A    
C47   H15   S    
C20   H5    S    
C76   H84   S    
C6    C8    A    
C3    C5    A    
C25   C26   A    
C3    C45   A    
C51   C52   S    
C48   H17   S    
C75   C76   S    
C69   H67   S    
C61   H48   S    
C60   H46   S    
Cu1   O6    S    
C37   C38   A    
C65   C66   S    
C37   H1    S    
C39   Br5   S    
Cu1   Cu2   S    
C67   H63   S    
C4    H12   S    
C51   H25   S    
C33   C34   A    
C5    H13   S    
C55   H35   S    
C54   C55   S    
Cu2   O4    S    
C50   C51   S    
C53   H30   S    
C43   C45   A    
C73   H77   S    
C14   O18   S    
C63   H53   S    
C59   C60   S    
C16   C18   A    
C71   H71   S    
C67   H62   S    
C68   C69   S    
C64   H56   S    
C61   H49   S    
Cu2   O7    S    
C17   C19   A    
C60   H45   S    
C43   O13   S    
C22   O7    A    
C39   C40   S    
C48   C49   S    
C59   H44   S    
C65   H57   S    
C58   H42   S    
C15   C17   A    
C21   C25   A    
C31   O10   S    
Cu1   O2    S    
C35   C37   A    
C23   O8    A    
C16   H4    S    
C8    C42   A    
C12   C45   S    
C2    O2    A    
C63   C64   S    
C40   Br6   S    
C58   H40   S    
C52   H27   S    
O14   C62   S    
C38   H2    S    
C20   C27   A    
C72   H74   S    
C54   H31   S    
C57   C58   S    
C69   H66   S    
C74   C75   S    
C64   H55   S    
C61   H47   S    
C12   C14   A    
C60   C61   S    
C41   H9    S    
C28   C30   A    
C29   C31   A    
C66   H59   S    
C36   C38   A    
C11   C13   A    
C47   C48   S    
C6    H14   S    
C76   H82   S    
C9    O15   S    
C51   H24   S    
C1    O3    A    
C73   H76   S    
C55   H34   S    
C34   C36   A    
C7    C41   A    
Cu2   O3    S    
C53   H29   S    
C9    C12   A    
C75   H81   S    
C70   H68   S    
Cu2   N2    S    
C63   H52   S    
C74   H78   S    
O10   C50   S    
C18   Br2   S    
C23   C36   S    
C15   N1    A    
C49   H20   S    
C11   C46   S    
C67   H61   S    
C74   H79   S    
C50   H22   S    
C64   H54   S    
C28   Br3   S    
Cu1   O1    S    
C59   H43   S    
C56   H37   S    
C3    H11   S    
