data_mof_unit_1234.cif
_audit_creation_date              2012-12-10T17:44:52-0500
_audit_creation_method            fapswitch 2.2
_symmetry_space_group_name_H-M    P1
_symmetry_Int_Tables_number       1
_space_group_crystal_system       triclinic
_cell_length_a                    15.112359
_cell_length_b                    13.673644
_cell_length_c                    19.359062
_cell_angle_alpha                 89.997058
_cell_angle_beta                  89.961129
_cell_angle_gamma                 90.66442
_cell_volume                      4000.10636022

loop_
_atom_site_label
_atom_site_type_symbol
_atom_type_description
_atom_site_fract_x
_atom_site_fract_y
_atom_site_fract_z
_atom_type_partial_charge
C1    C     C_R   0.328592 0.499384 0.501231 0.845684
C2    C     C_R   0.671631 0.500862 0.500004 0.852139
C3    C     C_R   0.813520 0.418734 0.520898 -0.332011
C4    C     C_R   0.187123 0.580354 0.478899 -0.329444
C5    C     C_R   0.905546 0.417700 0.522610 0.117389
C6    C     C_R   0.095227 0.581913 0.478581 0.116021
C7    C     C_R   0.953938 0.501058 0.501220 0.023359
C8    C     C_R   0.046906 0.499481 0.501824 0.020645
C9    C     C_R   0.909630 0.586094 0.479447 0.008215
C10   C     C_R   0.091343 0.415788 0.526002 0.006497
C11   C     C_R   0.949878 0.334195 0.545086 -0.213118
C12   C     C_R   0.051021 0.664528 0.454608 -0.208821
C13   C     C_R   0.041967 0.333386 0.547215 -0.185868
C14   C     C_R   0.959062 0.666667 0.454976 -0.191981
C15   C     C_R   0.449161 0.792596 0.546846 0.003597
C16   C     C_R   0.550888 0.207399 0.453178 0.002635
C17   C     C_R   0.550757 0.793876 0.453106 0.008613
C18   C     C_R   0.449274 0.206092 0.546879 0.039837
C19   C     C_R   0.552005 0.896989 0.451985 -0.019882
C20   C     C_R   0.448073 0.102985 0.548040 -0.010893
C21   C     C_R   0.448040 0.895684 0.548038 -0.005715
C22   C     C_R   0.552060 0.104301 0.452008 -0.004452
C23   C     C_R   0.500037 0.948147 0.500015 0.089294
C24   C     C_R   0.500049 0.051826 0.500016 0.085573
C25   C     C_R   0.603765 0.949905 0.404227 -0.203467
C26   C     C_R   0.396403 0.050080 0.595865 -0.190456
C27   C     C_R   0.396395 0.947308 0.595869 -0.203840
C28   C     C_R   0.603769 0.052677 0.404220 -0.203808
C29   C     C_R   0.500105 0.500007 0.367310 0.807086
C30   C     C_R   0.499599 0.499978 0.632655 0.784875
C31   C     C_R   0.507250 0.588262 0.254977 -0.223102
C32   C     C_R   0.513624 0.413277 0.744914 -0.239517
C33   C     C_R   0.482583 0.586285 0.744845 -0.235853
C34   C     C_R   0.493155 0.411799 0.254984 -0.228245
C35   C     C_R   0.508185 0.589278 0.182754 0.003185
C36   C     C_R   0.513023 0.412152 0.817060 -0.001365
C37   C     C_R   0.482105 0.587291 0.817009 -0.001295
C38   C     C_R   0.491727 0.410833 0.182776 0.003175
C39   C     C_R   0.499716 0.500078 0.146114 -0.022738
C40   C     C_R   0.497544 0.499739 0.854177 -0.028204
C41   C     C_R   0.500195 0.500024 0.291369 -0.061983
C42   C     C_R   0.498647 0.499871 0.708525 -0.063841
C43   C     C_R   0.497984 0.499808 0.930540 0.397196
C44   C     C_R   0.499172 0.500103 0.070287 0.386097
C45   C     C_R   0.816759 0.588970 0.482683 0.434789
C46   C     C_R   0.184262 0.416499 0.528927 0.445923
C47   C     C_R   0.768659 0.503214 0.500842 -0.179300
C48   C     C_R   0.231943 0.498215 0.503119 -0.178485
Cu1   Cu    Cu3+1 0.500000 0.597420 0.500000 0.944358
Cu2   Cu    Cu3+1 0.500000 0.402580 0.500000 0.953527
H1    H     H_    0.514216 0.656747 0.282782 0.154015
H2    H     H_    0.525451 0.345766 0.717179 0.156268
H3    H     H_    0.470971 0.653787 0.717044 0.152531
H4    H     H_    0.486475 0.343277 0.282792 0.157452
H5    H     H_    0.776636 0.353825 0.536384 0.177908
H6    H     H_    0.223958 0.643217 0.459594 0.179661
H7    H     H_    0.913270 0.269643 0.561507 0.140998
H8    H     H_    0.087622 0.727819 0.435887 0.143749
H9    H     H_    0.074249 0.267897 0.565301 0.184142
H10   H     H_    0.926992 0.731734 0.435941 0.182396
H11   H     H_    0.409410 0.751084 0.583280 0.125739
H12   H     H_    0.590646 0.248911 0.416750 0.128932
H13   H     H_    0.590516 0.753362 0.416692 0.157329
H14   H     H_    0.409888 0.246597 0.583440 0.143809
H15   H     H_    0.644206 0.911836 0.366892 0.147053
H16   H     H_    0.356008 0.088160 0.633232 0.135383
H17   H     H_    0.356014 0.908232 0.633262 0.135404
H18   H     H_    0.644182 0.091751 0.366849 0.136242
N1    N     N_R   0.559306 0.447405 0.034606 -0.226570
N2    N     N_R   0.437705 0.552224 0.966488 -0.225244
N3    N     N_R   0.558880 0.447588 0.965925 -0.224846
N4    N     N_R   0.438435 0.552668 0.035176 -0.225897
N5    N     N_R   0.500000 0.743810 0.500000 -0.185716
N6    N     N_R   0.500000 0.256190 0.500000 -0.186313
O1    O     O_R   0.370260 0.582280 0.500020 -0.597682
O2    O     O_R   0.629740 0.417720 0.499980 -0.595976
O3    O     O_R   0.629740 0.582280 0.499980 -0.542378
O4    O     O_R   0.370260 0.417720 0.500020 -0.529807
O5    O     O_R   0.499990 0.582300 0.400140 -0.587718
O6    O     O_R   0.500010 0.417700 0.599860 -0.594201
O7    O     O_R   0.500010 0.582300 0.599860 -0.594035
O8    O     O_R   0.499990 0.417700 0.400140 -0.590336
C49   C     C_R   0.522281 0.684299 0.147321 0.114745
C50   C     C_R   0.595776 0.698785 0.103845 -0.118523
C51   C     C_R   0.610560 0.789510 0.072419 -0.123710
C52   C     C_R   0.552195 0.866309 0.084028 -0.118960
C53   C     C_R   0.479093 0.852616 0.127341 -0.129472
C54   C     C_R   0.464285 0.762109 0.159174 -0.132900
H19   H     H_    0.642076 0.640240 0.094944 0.127805
H20   H     H_    0.667355 0.800298 0.039081 0.116814
H21   H     H_    0.563635 0.936297 0.059318 0.104459
H22   H     H_    0.434025 0.912157 0.136477 0.125879
H23   H     H_    0.407588 0.752525 0.192858 0.126200
C55   C     C_R   0.525580 0.317014 0.851585 0.121079
C56   C     C_R   0.610093 0.275769 0.854853 -0.123507
C57   C     C_R   0.621685 0.184653 0.886159 -0.127330
C58   C     C_R   0.548881 0.133675 0.913258 -0.094345
C59   C     C_R   0.464367 0.173742 0.909062 -0.119133
C60   C     C_R   0.452690 0.265626 0.878926 -0.137031
H24   H     H_    0.666794 0.314391 0.833490 0.123758
H25   H     H_    0.687020 0.153343 0.889105 0.121157
H26   H     H_    0.557979 0.063082 0.937316 0.103822
H27   H     H_    0.407882 0.133556 0.929139 0.109363
H28   H     H_    0.386981 0.296161 0.876098 0.116985
C61   C     C_R   0.468709 0.682321 0.851479 0.122045
C62   C     C_R   0.384018 0.723241 0.854011 -0.130991
C63   C     C_R   0.371641 0.814307 0.885200 -0.129331
C64   C     C_R   0.443849 0.865552 0.912936 -0.095313
C65   C     C_R   0.528551 0.825813 0.909467 -0.116762
C66   C     C_R   0.540999 0.733989 0.879442 -0.129216
H29   H     H_    0.327786 0.684426 0.832139 0.121002
H30   H     H_    0.306168 0.845379 0.887553 0.120774
H31   H     H_    0.434157 0.936117 0.936887 0.104139
H32   H     H_    0.584605 0.866250 0.929947 0.110097
H33   H     H_    0.606851 0.703723 0.877175 0.118928
C67   C     C_R   0.477573 0.315793 0.147412 0.117382
C68   C     C_R   0.403615 0.301014 0.104544 -0.117761
C69   C     C_R   0.388830 0.210277 0.073163 -0.120841
C70   C     C_R   0.447673 0.133770 0.084187 -0.115203
C71   C     C_R   0.521230 0.147748 0.126914 -0.129341
C72   C     C_R   0.536028 0.238259 0.158724 -0.133452
H34   H     H_    0.356971 0.359340 0.096084 0.127459
H35   H     H_    0.331658 0.199256 0.040319 0.116157
H36   H     H_    0.436234 0.063783 0.059491 0.104104
H37   H     H_    0.566654 0.088425 0.135622 0.123423
H38   H     H_    0.593067 0.248061 0.191967 0.121162
O9    O     O_3   0.773007 0.673458 0.464032 -0.580908
C73   C     C_3   0.769993 0.736254 0.521970 -0.313353
H39   H     H_    0.837287 0.759749 0.538760 0.146595
H40   H     H_    0.734341 0.701537 0.566094 0.173557
H41   H     H_    0.733508 0.803075 0.507453 0.187876
O10   O     O_3   0.228202 0.336559 0.555519 -0.570405
C74   C     C_3   0.242546 0.352542 0.626691 -0.351710
H42   H     H_    0.179298 0.364252 0.654882 0.155949
H43   H     H_    0.288628 0.415381 0.635453 0.156385
H44   H     H_    0.273506 0.286528 0.648980 0.176085

loop_
_geom_bond_atom_site_label_1
_geom_bond_atom_site_label_2
_ccdc_geom_bond_type
C57   H25   S    
C61   C66   A    
C9    C45   A    
C49   C54   A    
C63   H30   S    
C19   C23   A    
C56   C57   A    
C9    C14   A    
C73   H39   S    
C58   C59   A    
C7    C8    A    
C51   C52   A    
C67   C68   A    
C25   C28   A    
C26   C27   A    
C16   N6    A    
C33   C42   A    
C32   C36   A    
C28   H18   S    
C5    C11   A    
C37   C40   A    
C52   H21   S    
Cu2   N6    S    
C6    C12   A    
C38   C39   A    
C62   C63   A    
C59   H27   S    
C59   C60   A    
C64   C65   A    
Cu1   O7    S    
N1    N3    A    
C69   C70   A    
C32   H2    S    
C17   C19   A    
C3    H5    S    
C40   C43   S    
C20   C24   A    
O10   C74   S    
C10   C46   A    
C74   H44   S    
C43   N3    A    
C23   C24   A    
Cu1   O1    S    
C18   C20   A    
C58   H26   S    
C12   H8    S    
C60   H28   S    
C21   C27   A    
C18   N6    A    
C22   C28   A    
C53   H22   S    
C4    H6    S    
C17   N5    A    
C1    O4    A    
C34   C41   A    
C16   H12   S    
Cu2   O4    S    
C62   H29   S    
C45   C47   A    
C33   H3    S    
C46   C48   A    
C67   C72   A    
C26   H16   S    
C36   C40   A    
C25   H15   S    
C50   C51   A    
C4    C6    A    
C5    C7    A    
C35   C49   S    
C52   C53   A    
C34   C38   A    
C6    C8    A    
C70   H36   S    
C33   C37   A    
Cu1   O5    S    
C73   H40   S    
C1    O1    A    
C64   H31   S    
C35   C39   A    
C68   H34   S    
C37   C61   S    
Cu2   O2    S    
C38   C67   S    
C49   C50   A    
C29   O5    A    
C15   C21   A    
C63   C64   A    
C57   C58   A    
C15   H11   S    
C44   N1    A    
C70   C71   A    
C65   H32   S    
C15   N5    A    
C12   C14   A    
C34   H4    S    
C43   N2    A    
C21   C23   A    
C74   H42   S    
Cu1   N5    S    
C50   H19   S    
O9    C73   S    
C73   H41   S    
C2    O2    A    
C71   C72   A    
Cu2   O8    S    
C4    C48   A    
C7    C9    A    
C54   H23   S    
C16   C22   A    
C31   C41   A    
C29   C41   S    
C56   H24   S    
C31   H1    S    
C3    C5    A    
C10   C13   A    
Cu2   O6    S    
C51   H20   S    
C1    C48   S    
C39   C44   S    
C13   H9    S    
C2    C47   S    
C14   H10   S    
C61   C62   A    
C30   O7    A    
C30   O6    A    
C72   H38   S    
C2    O3    A    
C68   C69   A    
C17   H13   S    
C46   O10   S    
C11   C13   A    
C18   H14   S    
C20   C26   A    
C55   C60   A    
C45   O9    S    
C31   C35   A    
C3    C47   A    
C71   H37   S    
Cu1   O3    S    
C44   N4    A    
C22   C24   A    
C69   H35   S    
C55   C56   A    
C19   C25   A    
C27   H17   S    
C36   C55   S    
C29   O8    A    
C53   C54   A    
C8    C10   A    
Cu1   Cu2   S    
C65   C66   A    
C74   H43   S    
C32   C42   A    
C30   C42   S    
N2    N4    A    
C11   H7    S    
C66   H33   S    
