data_mof_unit_1336.cif
_audit_creation_date              2012-12-10T18:31:11-0500
_audit_creation_method            fapswitch 2.2
_symmetry_space_group_name_H-M    P1
_symmetry_Int_Tables_number       1
_space_group_crystal_system       triclinic
_cell_length_a                    13.695937
_cell_length_b                    14.767964
_cell_length_c                    15.308204
_cell_angle_alpha                 98.953644
_cell_angle_beta                  92.011332
_cell_angle_gamma                 97.562912
_cell_volume                      3027.03083602

loop_
_atom_site_label
_atom_site_type_symbol
_atom_type_description
_atom_site_fract_x
_atom_site_fract_y
_atom_site_fract_z
_atom_type_partial_charge
C1    C     C_R   0.517001 0.557879 0.663258 0.899618
C2    C     C_R   0.514870 0.390006 0.916379 -0.217636
C3    C     C_R   0.547014 0.669274 0.038045 0.221332
C4    C     C_R   0.480906 0.321709 0.966286 0.225868
C5    C     C_R   0.323116 0.165602 0.606966 0.060387
C6    C     C_R   0.643194 0.829822 0.360245 0.047657
C7    C     C_R   0.369242 0.255969 0.605995 0.059989
C8    C     C_R   0.635454 0.750863 0.401358 0.070709
C9    C     C_R   0.479128 0.201497 0.499926 -0.091022
C10   C     C_R   0.488441 0.787331 0.466776 -0.086235
C11   C     C_R   0.432696 0.108783 0.495112 -0.038092
C12   C     C_R   0.486246 0.441646 0.337081 0.914249
C13   C     C_R   0.495116 0.871537 0.431800 -0.039595
C14   C     C_R   0.354706 0.091370 0.551004 0.049599
C15   C     C_R   0.572256 0.890539 0.375223 0.053418
C16   C     C_R   0.318475 0.514199 0.496204 0.894274
C17   C     C_R   0.681585 0.485621 0.503494 0.893027
C18   C     C_R   0.464439 0.032463 0.439989 -0.011638
C19   C     C_R   0.433906 0.941128 0.457450 -0.011041
C20   C     C_R   0.345315 0.924578 0.501377 0.194020
C21   C     C_R   0.524966 0.043054 0.367952 0.195550
C22   C     C_R   0.308080 0.000450 0.548793 -0.207698
C23   C     C_R   0.554228 0.556222 0.904856 0.027823
C24   C     C_R   0.579814 0.971986 0.337869 -0.219679
C25   C     C_1   0.782004 0.475284 0.504965 -0.188189
C26   C     C_1   0.217577 0.520245 0.486467 -0.170311
C27   C     C_2   0.969411 0.458095 0.506542 0.184797
C28   C     C_2   0.027739 0.518487 0.467128 0.147077
C29   C     C_1   0.131578 0.522082 0.476878 -0.072088
C30   C     C_1   0.866833 0.465910 0.506026 0.016346
C31   C     C_R   0.534078 0.594413 0.758343 -0.135311
C32   C     C_R   0.484066 0.402628 0.243019 -0.128952
C33   C     C_R   0.534554 0.715206 0.887073 -0.070374
C34   C     C_R   0.526319 0.433284 0.099086 -0.021576
C35   C     C_R   0.419387 0.290648 0.112732 -0.086020
C36   C     C_R   0.517543 0.684675 0.794621 0.081778
C37   C     C_R   0.417622 0.324029 0.204745 0.070018
C38   C     C_R   0.568343 0.537334 0.814198 0.149906
C39   C     C_R   0.548579 0.447710 0.190182 0.101202
C40   C     C_3   0.984693 0.552977 0.323614 -0.758357
C41   C     C_3   0.940830 0.324092 0.586195 -0.748647
C42   C     C_3   0.264776 0.116281 0.743365 -0.754662
C43   C     C_3   0.808147 0.912410 0.358102 -0.745162
C44   C     C_3   0.200993 0.814394 0.535060 -0.817049
C45   C     C_R   0.546381 0.648825 0.944087 -0.034037
C46   C     C_3   0.577596 0.128910 0.244416 -0.756537
C47   C     C_3   0.439772 0.772423 0.107616 -0.734199
C48   C     C_3   0.527944 0.168902 0.934918 -0.755289
C49   C     C_3   0.706739 0.441433 0.262340 -0.725405
C50   C     C_3   0.730897 0.510051 0.769106 -0.763163
C51   C     C_3   0.259946 0.325406 0.270431 -0.731193
C52   C     C_3   0.383895 0.735293 0.715886 -0.688756
C53   C     C_2   0.537734 0.815100 0.921315 0.942798
C54   C     C_2   0.350297 0.207547 0.072920 0.956360
C55   C     C_2   0.722192 0.702292 0.402821 1.011308
C56   C     C_R   0.475594 0.346358 0.058844 -0.005553
C57   C     C_2   0.329200 0.332321 0.660486 1.013139
C58   C     C_R   0.541991 0.483540 0.955891 0.079359
C59   C     C_R   0.545296 0.505323 0.048542 0.030152
C60   C     C_R   0.551158 0.598546 0.088384 -0.287508
H1    H     H_    0.547069 0.616626 0.159385 0.173530
H2    H     H_    0.060674 0.556407 0.299866 0.237595
H3    H     H_    0.070566 0.367353 0.527800 0.262373
H4    H     H_    0.982608 0.280951 0.622888 0.251408
H5    H     H_    0.896610 0.278490 0.530060 0.233709
H6    H     H_    0.891159 0.358265 0.632568 0.245114
H7    H     H_    0.176459 0.122204 0.629875 0.232024
H8    H     H_    0.217919 0.049049 0.744155 0.227424
H9    H     H_    0.248571 0.166382 0.801092 0.273816
H10   H     H_    0.343320 0.105345 0.749965 0.239998
H11   H     H_    0.710873 0.864597 0.247635 0.225621
H12   H     H_    0.510906 0.369258 0.845682 0.190664
H13   H     H_    0.786840 0.982444 0.377589 0.231216
H14   H     H_    0.871909 0.917924 0.315496 0.241785
H15   H     H_    0.831404 0.885776 0.418399 0.257816
H16   H     H_    0.288747 0.796943 0.425652 0.235045
H17   H     H_    0.175572 0.738758 0.522790 0.246543
H18   H     H_    0.141769 0.850238 0.510441 0.245490
H19   H     H_    0.215815 0.835973 0.607609 0.247052
H20   H     H_    0.455227 0.144307 0.320395 0.241763
H21   H     H_    0.567598 0.194805 0.221058 0.244443
H22   H     H_    0.550119 0.070594 0.190574 0.262309
H23   H     H_    0.242555 0.988573 0.584664 0.170646
H24   H     H_    0.657681 0.130671 0.260056 0.235226
H25   H     H_    0.589090 0.780213 0.137036 0.228264
H26   H     H_    0.438682 0.846089 0.136388 0.251435
H27   H     H_    0.415127 0.728548 0.157659 0.224102
H28   H     H_    0.387738 0.754681 0.048207 0.266388
H29   H     H_    0.432193 0.223373 0.856684 0.239011
H30   H     H_    0.499612 0.097103 0.902789 0.246043
H31   H     H_    0.543758 0.168467 0.006527 0.254707
H32   H     H_    0.597311 0.192429 0.904450 0.235316
H33   H     H_    0.678337 0.538737 0.186840 0.261195
H34   H     H_    0.630901 0.981637 0.287151 0.164042
H35   H     H_    0.773344 0.486162 0.295020 0.268682
H36   H     H_    0.729552 0.390875 0.207907 0.221242
H37   H     H_    0.671283 0.403454 0.312557 0.219774
H38   H     H_    0.602461 0.418187 0.733317 0.259804
H39   H     H_    0.776520 0.453597 0.752405 0.237598
H40   H     H_    0.764413 0.555880 0.830224 0.258124
H41   H     H_    0.730812 0.550237 0.713468 0.230694
H42   H     H_    0.332558 0.210515 0.243653 0.249310
H43   H     H_    0.216839 0.317647 0.206192 0.243222
H44   H     H_    0.279232 0.400117 0.297765 0.226958
H45   H     H_    0.433954 0.769439 0.512330 0.184217
H46   H     H_    0.213491 0.292321 0.317912 0.238537
H47   H     H_    0.520830 0.813501 0.753339 0.240442
H48   H     H_    0.343792 0.754008 0.776440 0.261620
H49   H     H_    0.355686 0.663012 0.684994 0.225446
H50   H     H_    0.369184 0.781787 0.668040 0.232512
H51   H     H_    0.464736 0.925906 0.940156 0.349054
H52   H     H_    0.232751 0.154407 0.989030 0.342796
H53   H     H_    0.840407 0.679770 0.474438 0.343314
H54   H     H_    0.215444 0.405619 0.680455 0.338923
H55   H     H_    0.541787 0.219075 0.462169 0.175222
H56   H     H_    0.021947 0.648691 0.436841 0.229742
H57   H     H_    0.944050 0.599855 0.290737 0.267614
H58   H     H_    0.946138 0.481096 0.305027 0.239194
N1    N     N_R   0.445040 0.272490 0.551770 -0.162174
N2    N     N_2   0.454912 0.228842 0.922416 -0.290826
N3    N     N_2   0.641032 0.498046 0.227194 -0.262274
N4    N     N_2   0.631450 0.470768 0.783245 -0.317827
N5    N     N_2   0.347990 0.281490 0.258427 -0.291393
N6    N     N_2   0.488890 0.745417 0.737435 -0.277044
N7    N     N_R   0.554960 0.727510 0.448230 -0.150877
N8    N     N_2   0.988114 0.581399 0.418535 -0.314771
N9    N     N_2   0.009118 0.392785 0.553405 -0.303743
N10   N     N_2   0.242946 0.151402 0.662620 -0.303414
N11   N     N_2   0.726812 0.850098 0.309812 -0.299665
N12   N     N_2   0.289969 0.833610 0.488922 -0.320980
N13   N     N_2   0.522878 0.121100 0.322802 -0.317511
N14   N     N_2   0.538800 0.759265 0.083688 -0.286873
O1    O     O_R   0.527700 0.614770 0.606110 -0.578229
O2    O     O_R   0.453112 0.857632 0.914309 -0.818716
O3    O     O_2   0.359878 0.132042 0.092840 -0.653060
O4    O     O_R   0.274580 0.215901 0.012280 -0.792077
O5    O     O_2   0.748651 0.661105 0.334226 -0.650864
O6    O     O_R   0.780049 0.712568 0.481733 -0.806330
O7    O     O_2   0.372761 0.370821 0.730013 -0.672798
O8    O     O_R   0.236465 0.353723 0.636868 -0.811319
O9    O     O_R   0.472300 0.385230 0.393890 -0.593882
O10   O     O_R   0.492440 0.468680 0.639380 -0.612183
O11   O     O_R   0.507560 0.531320 0.360620 -0.599854
O12   O     O_R   0.379820 0.583550 0.480950 -0.624326
O13   O     O_R   0.620180 0.416450 0.519050 -0.627266
O14   O     O_R   0.344560 0.437460 0.514220 -0.588363
O15   O     O_R   0.655440 0.562540 0.485780 -0.580522
O16   O     O_2   0.615019 0.860305 0.954534 -0.619610
Zn1   Zn    Zn3+2 0.523550 0.597550 0.477790 0.975667
Zn2   Zn    Zn3+2 0.476450 0.402450 0.522210 0.955172

loop_
_geom_bond_atom_site_label_1
_geom_bond_atom_site_label_2
_ccdc_geom_bond_type
C43   H13   S    
C23   C58   A    
C40   H58   S    
C11   C18   A    
C34   C56   A    
C23   C45   A    
C18   C21   A    
C51   N5    S    
C41   N9    S    
C2    C4    A    
C19   C20   A    
C50   N4    S    
C1    C31   S    
C4    C56   A    
C48   N2    S    
C50   H39   S    
C55   O6    S    
C28   C29   S    
C16   O12   A    
H33   N3    S    
C10   C13   A    
H25   N14   S    
C11   C14   A    
C2    H12   S    
C44   N12   S    
C42   H10   S    
C33   C36   A    
C40   H2    S    
C12   O9    A    
C57   O7    D    
C16   O14   A    
C18   C19   A    
C32   C39   A    
C21   N13   S    
C1    O10   A    
C6    C15   A    
O14   Zn2   S    
C27   N9    S    
C48   H31   S    
C33   C45   A    
H54   O8    S    
C10   N7    A    
O13   Zn2   S    
C42   N10   S    
C3    C60   A    
N1    Zn2   S    
C40   H57   S    
C54   O4    S    
C59   C60   A    
H20   N13   S    
C48   H30   S    
C12   C32   S    
C27   C30   S    
C33   C53   S    
H16   N12   S    
H47   N6    S    
H52   O4    S    
C6    N11   S    
C1    O1    A    
C8    C55   S    
C28   N8    S    
O9    Zn2   S    
C43   H15   S    
C49   N3    S    
O15   Zn1   S    
C13   C19   A    
C3    N14   S    
C9    H55   S    
C47   H26   S    
C7    N1    A    
C43   N11   S    
O1    Zn1   S    
C46   N13   S    
C5    C7    A    
C41   H5    S    
C58   C59   A    
C3    C45   A    
C53   O16   D    
C34   C39   A    
C57   O8    S    
C60   H1    S    
C47   H27   S    
C17   O13   A    
O12   Zn1   S    
C24   H34   S    
H11   N11   S    
C46   H21   S    
H29   N2    S    
C52   H50   S    
C40   N8    S    
C32   C37   A    
C49   H35   S    
C17   O15   A    
C9    C11   A    
C5    C14   A    
C38   N4    S    
N7    Zn1   S    
C26   C29   T    
C46   H24   S    
C15   C24   A    
C20   C22   A    
C13   C15   A    
C34   C59   A    
C9    N1    A    
C36   N6    S    
H42   N5    S    
C37   N5    S    
C25   C30   T    
H38   N4    S    
C44   H17   S    
C35   C37   A    
C35   C56   A    
C31   C36   A    
C44   H19   S    
C53   O2    S    
C20   N12   S    
C16   C26   S    
C39   N3    S    
C46   H22   S    
C6    C8    A    
C2    C58   A    
H51   O2    S    
C41   H6    S    
C23   C38   A    
C50   H40   S    
C55   O5    D    
C12   O11   A    
C47   N14   S    
C17   C25   S    
C47   H28   S    
O10   Zn2   S    
C31   C38   A    
C44   H18   S    
C51   H44   S    
H7    N10   S    
C22   H23   S    
C52   N6    S    
C14   C22   A    
C52   H49   S    
C43   H14   S    
C51   H46   S    
C54   O3    D    
C5    N10   S    
C42   H9    S    
C49   H36   S    
C42   H8    S    
C49   H37   S    
C8    N7    A    
O11   Zn1   S    
C52   H48   S    
C50   H41   S    
C48   H32   S    
C21   C24   A    
C27   C28   D    
H53   O6    S    
C4    N2    S    
C10   H45   S    
H56   N8    S    
C41   H4    S    
C51   H43   S    
C7    C57   S    
H3    N9    S    
C35   C54   S    
