data_mof_unit_3055.cif
_audit_creation_date              2012-10-26T19:52:24-0400
_audit_creation_method            fapswitch 2.2
_symmetry_space_group_name_H-M    P1
_symmetry_Int_Tables_number       1
_space_group_crystal_system       triclinic
_cell_length_a                    9.54341
_cell_length_b                    10.8135
_cell_length_c                    13.55409
_cell_angle_alpha                 90.240982
_cell_angle_beta                  73.425053
_cell_angle_gamma                 89.987019
_cell_volume                      1340.61536986

loop_
_atom_site_label
_atom_site_type_symbol
_atom_type_description
_atom_site_fract_x
_atom_site_fract_y
_atom_site_fract_z
_atom_type_partial_charge
C1    C     C_R   0.500312 0.737490 0.499004 0.546518
C2    C     C_R   0.383248 0.526951 0.809438 -0.001490
C3    C     C_R   0.370371 0.935715 0.526056 0.025626
C4    C     C_R   0.422885 0.500545 0.699182 0.530303
C5    C     C_R   0.501389 0.870466 0.492437 0.009529
C6    C     C_R   0.631760 0.934965 0.448804 -0.161998
C7    C     C_R   0.631211 0.063937 0.449083 -0.162971
C8    C     C_R   0.500820 0.128775 0.493807 0.008167
C9    C     C_R   0.369860 0.063236 0.527046 0.017121
C10   C     C_3   0.256615 0.067768 0.629399 -0.273947
C11   C     C_3   0.256852 0.927675 0.627583 -0.271035
C12   C     C_R   0.467021 0.553220 0.962617 0.029127
C13   C     C_R   0.952548 0.423181 0.435457 0.149486
C14   C     C_R   0.902513 0.583465 0.556798 -0.021314
C15   C     C_R   0.051466 0.583469 0.556795 -0.022010
C16   C     C_R   0.499996 0.262268 0.499701 0.546562
C17   C     C_R   0.099481 0.422650 0.436167 0.144879
C18   C     C_3   0.105977 0.285140 0.434804 -0.276121
C19   C     C_3   0.947981 0.285439 0.433416 -0.285148
C20   C     C_R   0.577100 0.503813 0.300393 0.546343
C21   C     C_R   0.784470 0.416397 0.031992 -0.151147
C22   C     C_R   0.619796 0.501609 0.187084 0.008367
C23   C     C_R   0.477616 0.491966 0.868562 -0.021380
C24   C     C_R   0.273778 0.615559 0.847539 -0.135933
C25   C     C_R   0.270162 0.681560 0.936109 -0.154194
C26   C     C_R   0.370804 0.655616 0.989817 -0.095786
C27   C     C_3   0.923801 0.341331 0.755997 -0.297922
C28   C     C_3   0.259780 0.496211 0.198018 -0.274933
C29   C     C_R   0.556800 0.512869 0.024131 0.027989
C30   C     C_R   0.680242 0.436853 0.978651 0.025001
C31   C     C_R   0.692905 0.379463 0.882862 0.130427
C32   C     C_R   0.585466 0.400212 0.833704 -0.091710
C33   C     C_R   0.520699 0.536812 0.131436 0.119299
C34   C     C_R   0.755365 0.450511 0.134612 -0.171624
Cu1   Cu    Cu3+1 0.359330 0.500020 0.500010 0.920635
Cu2   Cu    Cu3+1 0.640670 0.499980 0.499990 0.926171
H1    H     H_    0.732681 0.112331 0.416604 0.120709
H2    H     H_    0.373934 0.718737 0.051046 0.148232
H3    H     H_    0.194085 0.757597 0.960238 0.113138
H4    H     H_    0.589632 0.344589 0.766354 0.151322
H5    H     H_    0.733969 0.886132 0.417143 0.131482
H6    H     H_    0.834322 0.426500 0.175147 0.129253
H7    H     H_    0.152962 0.887514 0.620438 0.128520
H8    H     H_    0.182309 0.247765 0.362950 0.120943
H9    H     H_    0.120052 0.246955 0.507071 0.151104
H10   H     H_    0.838471 0.236500 0.888671 0.246293
H11   H     H_    0.004808 0.267320 0.724604 0.132171
H12   H     H_    0.298746 0.107769 0.691108 0.131021
H13   H     H_    0.979197 0.417714 0.785254 0.149188
H14   H     H_    0.881883 0.375658 0.692711 0.171227
H15   H     H_    0.873317 0.245588 0.504609 0.154481
H16   H     H_    0.371666 0.645306 0.243475 0.269364
H17   H     H_    0.155710 0.541195 0.241304 0.135990
H18   H     H_    0.280010 0.413665 0.240160 0.161799
H19   H     H_    0.248070 0.464928 0.122757 0.148904
H20   H     H_    0.151338 0.106898 0.624853 0.122719
H21   H     H_    0.298884 0.885676 0.688371 0.131060
H22   H     H_    0.827214 0.648934 0.604783 0.123647
H23   H     H_    0.087913 0.648940 0.604740 0.109565
H24   H     H_    0.933631 0.249936 0.359860 0.113244
H25   H     H_    0.886888 0.369873 0.996526 0.118695
H26   H     H_    0.201715 0.643896 0.802764 0.117779
N1    N     N_R   0.852320 0.499070 0.499340 -0.233889
N2    N     N_R   0.148230 0.499110 0.499340 -0.230928
N3    N     N_2   0.805157 0.292222 0.838123 -0.534829
N4    N     N_2   0.379051 0.583441 0.184137 -0.531889
O1    O     O_R   0.381190 0.680360 0.500000 -0.505434
O2    O     O_R   0.618780 0.680320 0.499990 -0.507734
O3    O     O_R   0.323230 0.500000 0.650990 -0.511686
O4    O     O_R   0.560820 0.499960 0.650980 -0.506553
O5    O     O_R   0.381220 0.319680 0.500010 -0.501542
O6    O     O_R   0.618810 0.319640 0.500000 -0.510822
O7    O     O_R   0.439180 0.500040 0.349020 -0.493594
O8    O     O_R   0.676770 0.500000 0.349010 -0.503836

loop_
_geom_bond_atom_site_label_1
_geom_bond_atom_site_label_2
_ccdc_geom_bond_type
C12   C29   A    
C2    C4    S    
Cu1   Cu2   S    
C16   O6    A    
C4    O4    A    
C7    C8    A    
C12   C23   A    
C3    C9    A    
C17   N2    A    
C30   C31   A    
Cu2   O6    S    
C29   C33   A    
C1    O2    A    
C18   C19   S    
C8    C9    A    
C6    H5    S    
C34   H6    S    
C15   N2    A    
C11   H7    S    
Cu1   N2    S    
Cu2   N1    S    
C10   H20   S    
C9    C10   S    
C21   H25   S    
C27   H14   S    
Cu1   O5    S    
C8    C16   S    
C16   O5    A    
C14   H22   S    
C4    O3    A    
C28   H19   S    
Cu2   O4    S    
C33   N4    S    
C22   C34   A    
C13   C19   S    
C24   C25   A    
H10   N3    S    
C28   H18   S    
C26   H2    S    
C21   C34   A    
C25   C26   A    
C12   C26   A    
C28   N4    S    
C29   C30   A    
C27   N3    S    
C18   H8    S    
C31   C32   A    
C13   N1    A    
Cu1   O1    S    
C17   C18   S    
C7    H1    S    
C20   O8    A    
Cu2   O8    S    
C20   C22   S    
C2    C24   A    
C1    C5    S    
C18   H9    S    
H16   N4    S    
C27   H11   S    
C31   N3    S    
C22   C33   A    
Cu1   O7    S    
C24   H26   S    
C15   H23   S    
C3    C5    A    
C28   H17   S    
Cu2   O2    S    
C6    C7    A    
C19   H24   S    
C21   C30   A    
C13   C17   A    
C23   C32   A    
C25   H3    S    
C10   H12   S    
C5    C6    A    
C14   N1    A    
C1    O1    A    
C20   O7    A    
C32   H4    S    
C3    C11   S    
C10   C11   S    
C19   H15   S    
Cu1   O3    S    
C2    C23   A    
C14   C15   A    
C11   H21   S    
C27   H13   S    
