data_mof_unit_4089.cif
_audit_creation_date              2012-12-11T15:24:02-0500
_audit_creation_method            fapswitch 2.2
_symmetry_space_group_name_H-M    P1
_symmetry_Int_Tables_number       1
_space_group_crystal_system       triclinic
_cell_length_a                    17.346215
_cell_length_b                    24.322306
_cell_length_c                    14.964924
_cell_angle_alpha                 90.030589
_cell_angle_beta                  125.312472
_cell_angle_gamma                 90.088204
_cell_volume                      5152.04020569

loop_
_atom_site_label
_atom_site_type_symbol
_atom_type_description
_atom_site_fract_x
_atom_site_fract_y
_atom_site_fract_z
_atom_type_partial_charge
C1    C     C_R   0.314888 0.370307 0.909274 -0.126374
C2    C     C_R   0.649656 0.348491 0.090438 -0.124796
C3    C     C_R   0.813367 0.872457 0.910547 -0.122289
C4    C     C_R   0.147457 0.847820 0.090309 -0.123714
C5    C     C_R   0.316420 0.643833 0.998095 0.042116
C6    C     C_R   0.622152 0.682328 0.001680 0.039755
C7    C     C_R   0.813129 0.138378 0.000026 0.041350
C8    C     C_R   0.117598 0.183424 0.001627 0.046106
C9    C     C_R   0.480085 0.499495 0.306877 0.045624
C10   C     C_R   0.432109 0.499492 0.633394 0.043113
C11   C     C_R   0.064310 0.999641 0.366483 0.051948
C12   C     C_R   0.049573 0.999483 0.723966 0.040058
C13   C     C_R   0.180277 0.497835 0.662986 0.140437
C14   C     C_R   0.800194 0.499201 0.364359 0.133675
C15   C     C_R   0.679760 0.997900 0.664167 0.139704
C16   C     C_R   0.299855 0.999204 0.364683 0.133747
C17   C     C_2   0.928883 0.454559 0.526098 -0.116337
C18   C     C_2   0.030894 0.457880 0.602052 -0.112945
C19   C     C_2   0.428143 0.954633 0.527022 -0.115296
C20   C     C_2   0.530197 0.958005 0.603299 -0.113152
C21   C     C_2   0.879698 0.500285 0.478031 -0.195500
C22   C     C_2   0.079265 0.496051 0.588292 -0.201826
C23   C     C_2   0.378878 0.000312 0.478663 -0.194930
C24   C     C_2   0.578651 0.996247 0.589821 -0.201956
C25   C     C_R   0.161399 0.690157 0.898792 -0.170823
C26   C     C_R   0.714690 0.765439 0.102175 -0.171533
C27   C     C_R   0.659538 0.186572 0.901405 -0.169358
C28   C     C_R   0.209914 0.266510 0.100603 -0.172485
C29   C     C_R   0.612441 0.232486 0.901032 -0.172080
C30   C     C_R   0.261650 0.309575 0.100177 -0.168023
C31   C     C_R   0.109837 0.733185 0.899115 -0.172731
C32   C     C_R   0.762229 0.811118 0.102419 -0.169250
C33   C     C_R   0.645623 0.259470 0.999899 0.144035
C34   C     C_R   0.245005 0.326216 0.000791 0.148140
C35   C     C_R   0.140270 0.758498 0.998603 0.143632
C36   C     C_R   0.742419 0.830681 0.003162 0.145518
C37   C     C_R   0.712991 0.233731 0.099392 -0.171353
C38   C     C_R   0.162580 0.309133 0.901810 -0.171943
C39   C     C_R   0.207881 0.732535 0.097533 -0.172484
C40   C     C_R   0.660729 0.812670 0.904223 -0.169652
C41   C     C_R   0.259230 0.689322 0.097151 -0.167972
C42   C     C_R   0.613228 0.766861 0.903863 -0.170637
C43   C     C_R   0.760187 0.187963 0.099642 -0.169235
C44   C     C_R   0.110590 0.266261 0.902192 -0.171209
C45   C     C_R   0.405324 0.630694 0.089582 -0.125212
C46   C     C_R   0.560351 0.650695 0.909987 -0.123860
C47   C     C_R   0.901766 0.124141 0.091421 -0.128213
C48   C     C_R   0.057163 0.151580 0.910307 -0.141028
C49   C     C_R   0.243022 0.672696 0.997934 0.147980
C50   C     C_R   0.646770 0.739770 0.002616 0.143701
C51   C     C_R   0.740594 0.168328 0.000470 0.145523
C52   C     C_R   0.141526 0.240728 0.001558 0.143299
C53   C     C_R   0.397209 0.549356 0.471449 -0.171509
C54   C     C_R   0.415502 0.549377 0.393312 -0.170228
C55   C     C_R   0.102573 0.049453 0.624136 -0.167872
C56   C     C_R   0.104552 0.049516 0.532972 -0.173624
C57   C     C_R   0.435349 0.499524 0.363756 0.150500
C58   C     C_R   0.400311 0.499529 0.520157 0.141129
C59   C     C_R   0.096424 0.999731 0.480867 0.144126
C60   C     C_R   0.091431 0.999638 0.662646 0.144446
C61   C     C_R   0.414912 0.449692 0.392765 -0.170167
C62   C     C_R   0.396609 0.449714 0.470897 -0.170421
C63   C     C_R   0.105194 0.949962 0.533280 -0.171516
C64   C     C_R   0.103133 0.949940 0.624390 -0.168610
C65   C     C_R   0.503601 0.453708 0.273080 -0.130657
C66   C     C_R   0.450190 0.453642 0.697005 -0.122457
C67   C     C_R   0.048835 0.953918 0.303222 -0.140019
C68   C     C_R   0.019055 0.953382 0.750537 -0.125168
C69   C     C_R   0.234663 0.544411 0.710263 -0.147098
C70   C     C_R   0.754246 0.545090 0.302325 -0.148723
C71   C     C_R   0.734400 0.044443 0.710882 -0.148016
C72   C     C_R   0.254074 0.045082 0.302492 -0.148138
C73   C     C_R   0.502771 0.545255 0.272151 -0.129861
C74   C     C_R   0.450965 0.545273 0.697696 -0.122897
C75   C     C_R   0.047997 0.045198 0.302551 -0.139132
C76   C     C_R   0.019866 0.045501 0.751475 -0.126042
C77   C     C_R   0.236796 0.452729 0.712426 -0.136264
C78   C     C_R   0.753328 0.453383 0.301073 -0.109990
C79   C     C_R   0.736408 0.952756 0.713072 -0.136181
C80   C     C_R   0.253183 0.953392 0.301246 -0.109462
C81   C     C_R   0.312999 0.628284 0.906946 -0.124077
C82   C     C_R   0.651068 0.650543 0.092639 -0.124512
C83   C     C_R   0.811480 0.126145 0.908251 -0.119943
C84   C     C_R   0.148909 0.151174 0.092560 -0.123420
C85   C     C_R   0.407609 0.367891 0.091667 -0.124753
C86   C     C_R   0.558576 0.348263 0.907796 -0.123685
C87   C     C_R   0.903936 0.874512 0.093494 -0.127634
C88   C     C_R   0.055339 0.847372 0.908061 -0.140934
C89   C     C_R   0.318561 0.354758 0.000531 0.042331
C90   C     C_R   0.620776 0.316783 0.999264 0.040584
C91   C     C_R   0.815176 0.860299 0.002398 0.041361
C92   C     C_R   0.116166 0.815660 0.999111 0.046858
H1    H     H_    0.258952 0.362317 0.825194 0.084041
H2    H     H_    0.688669 0.335352 0.174750 0.084083
H3    H     H_    0.757618 0.863291 0.826919 0.084395
H4    H     H_    0.186650 0.834756 0.174701 0.082855
H5    H     H_    0.909565 0.540361 0.513876 0.133017
H6    H     H_    0.044788 0.527771 0.526032 0.134815
H7    H     H_    0.408524 0.040404 0.514599 0.132570
H8    H     H_    0.544191 0.028067 0.527775 0.134681
H9    H     H_    0.142147 0.674895 0.820557 0.106767
H10   H     H_    0.738324 0.747725 0.180264 0.105906
H11   H     H_    0.637867 0.169436 0.823449 0.107181
H12   H     H_    0.230928 0.250248 0.178836 0.105305
H13   H     H_    0.556345 0.249168 0.822772 0.105548
H14   H     H_    0.319854 0.325604 0.178093 0.104091
H15   H     H_    0.053352 0.749778 0.821011 0.105662
H16   H     H_    0.820570 0.826755 0.180604 0.107423
H17   H     H_    0.736328 0.251360 0.177526 0.105788
H18   H     H_    0.142955 0.324541 0.823565 0.102744
H19   H     H_    0.228459 0.748647 0.175764 0.105269
H20   H     H_    0.638852 0.829861 0.826293 0.102526
H21   H     H_    0.316800 0.673080 0.175066 0.104475
H22   H     H_    0.556599 0.750282 0.825619 0.104998
H23   H     H_    0.818064 0.172221 0.177844 0.107465
H24   H     H_    0.053388 0.249882 0.824100 0.105180
H25   H     H_    0.392332 0.588569 0.501815 0.104940
H26   H     H_    0.421761 0.588581 0.364044 0.103421
H27   H     H_    0.100165 0.088661 0.656414 0.107373
H28   H     H_    0.103451 0.088770 0.498502 0.105040
H29   H     H_    0.420674 0.410505 0.362990 0.103514
H30   H     H_    0.391243 0.410493 0.500809 0.105185
H31   H     H_    0.104640 0.910708 0.499105 0.104722
H32   H     H_    0.101169 0.910714 0.656910 0.107531
H33   H     H_    0.435665 0.643457 0.172208 0.083193
H34   H     H_    0.515556 0.664103 0.825815 0.084112
H35   H     H_    0.928898 0.128733 0.176482 0.093192
H36   H     H_    0.010458 0.165281 0.826545 0.085074
H37   H     H_    0.509542 0.412177 0.300726 0.082135
H38   H     H_    0.433239 0.411317 0.670634 0.083353
H39   H     H_    0.067635 0.911943 0.330970 0.081784
H40   H     H_    0.028609 0.910707 0.739682 0.092913
H41   H     H_    0.218921 0.410645 0.684833 0.086735
H42   H     H_    0.762845 0.411158 0.327940 0.081152
H43   H     H_    0.718277 0.910658 0.685630 0.088530
H44   H     H_    0.262510 0.911191 0.328189 0.079539
H45   H     H_    0.257478 0.636108 0.822649 0.087339
H46   H     H_    0.689481 0.663770 0.176943 0.084832
H47   H     H_    0.756068 0.135099 0.824416 0.087686
H48   H     H_    0.187520 0.164282 0.176970 0.083509
H49   H     H_    0.438320 0.355134 0.174320 0.082713
H50   H     H_    0.513731 0.334828 0.823543 0.084119
H51   H     H_    0.931325 0.869921 0.178600 0.092859
H52   H     H_    0.008531 0.833649 0.824218 0.085182
N1    N     N_R   0.395440 0.396300 0.944370 -0.039316
N2    N     N_R   0.604560 0.396300 0.055630 -0.040264
N3    N     N_R   0.895440 0.896300 0.944370 -0.039242
N4    N     N_R   0.104560 0.896300 0.055630 -0.039214
N5    N     N_R   0.449890 0.602500 0.055780 -0.039395
N6    N     N_R   0.550110 0.602500 0.944220 -0.040301
N7    N     N_R   0.949890 0.102500 0.055780 -0.040866
N8    N     N_R   0.050110 0.102500 0.944220 -0.038883
N9    N     N_R   0.525090 0.470990 0.205640 -0.037417
N10   N     N_R   0.474910 0.470990 0.794360 -0.039656
N11   N     N_R   0.025090 0.970990 0.205640 -0.036632
N12   N     N_R   0.974910 0.970990 0.794360 -0.040945
N13   N     N_R   0.320240 0.527820 0.794510 -0.038740
N14   N     N_R   0.679760 0.527820 0.205490 -0.041388
N15   N     N_R   0.820240 0.027820 0.794510 -0.039605
N16   N     N_R   0.179760 0.027820 0.205490 -0.040024
N17   N     N_R   0.524580 0.527810 0.205160 -0.037044
N18   N     N_R   0.475420 0.527810 0.794840 -0.039722
N19   N     N_R   0.024580 0.027810 0.205160 -0.036342
N20   N     N_R   0.975420 0.027810 0.794840 -0.041047
N21   N     N_R   0.320750 0.470990 0.794990 -0.040694
N22   N     N_R   0.679250 0.470990 0.205010 -0.045658
N23   N     N_R   0.820750 0.970990 0.794990 -0.041654
N24   N     N_R   0.179250 0.970990 0.205010 -0.044279
N25   N     N_R   0.393580 0.602500 0.942610 -0.039971
N26   N     N_R   0.606420 0.602500 0.057390 -0.039716
N27   N     N_R   0.893580 0.102500 0.942610 -0.039912
N28   N     N_R   0.106420 0.102500 0.057390 -0.038660
N29   N     N_R   0.451750 0.396300 0.057540 -0.038940
N30   N     N_R   0.548250 0.396300 0.942460 -0.039852
N31   N     N_R   0.951750 0.896300 0.057540 -0.040445
N32   N     N_R   0.048250 0.896300 0.942460 -0.038395
Ni1   Ni    Ni4+2 0.435420 0.434250 0.870220 0.208059
Ni2   Ni    Ni4+2 0.564580 0.434250 0.129780 0.209295
Ni3   Ni    Ni4+2 0.935420 0.934250 0.870220 0.210878
Ni4   Ni    Ni4+2 0.064580 0.934250 0.129780 0.206737
Ni5   Ni    Ni4+2 0.563400 0.564580 0.128670 0.211003
Ni6   Ni    Ni4+2 0.436600 0.564580 0.871330 0.208979
Ni7   Ni    Ni4+2 0.063400 0.064580 0.128670 0.208422
Ni8   Ni    Ni4+2 0.936600 0.064580 0.871330 0.211685
H53   H     H_    0.213869 0.586099 0.681648 0.085889
H54   H     H_    0.765714 0.587100 0.331283 0.091295
H55   H     H_    0.713527 0.086154 0.682431 0.087642
H56   H     H_    0.265308 0.087072 0.331506 0.089603
H57   H     H_    0.508026 0.586932 0.298880 0.081997
H58   H     H_    0.434764 0.587658 0.671929 0.083182
H59   H     H_    0.065939 0.087359 0.329741 0.082078
H60   H     H_    0.030201 0.088203 0.741668 0.093038
H61   H     H_    0.898862 0.413969 0.496059 0.116733
H62   H     H_    0.066854 0.425914 0.663662 0.122410
H63   H     H_    0.398253 0.914029 0.496848 0.115912
H64   H     H_    0.566161 0.925934 0.664670 0.121327

loop_
_geom_bond_atom_site_label_1
_geom_bond_atom_site_label_2
_ccdc_geom_bond_type
C58   C62   A    
C23   H7    S    
C55   C56   A    
C82   N26   A    
C3    N3    A    
C6    C82   A    
C3    C91   A    
C87   C91   A    
C63   H31   S    
C18   H62   S    
N21   Ni1   S    
C7    C83   A    
C19   C20   S    
C16   C72   A    
C5    C49   S    
C83   H47   S    
C20   H64   S    
C39   C41   A    
C55   H27   S    
C53   C54   A    
N16   N24   A    
C26   C32   A    
C12   C68   A    
N14   N22   A    
N4    N32   A    
C57   C61   A    
C77   H41   S    
N5    N25   A    
C15   C71   A    
C32   C36   A    
C14   C21   S    
C61   H29   S    
C10   C58   S    
N18   Ni6   S    
C26   C50   A    
N8    N28   A    
N12   Ni3   S    
N3    N31   A    
C27   C29   A    
C77   N21   A    
C4    N4    A    
C29   C33   A    
N7    N27   A    
N2    Ni2   S    
C75   N19   A    
C87   N31   A    
C68   H40   S    
C9    C57   S    
N20   Ni8   S    
C72   H56   S    
C65   N9    A    
C43   H23   S    
C5    C81   A    
C74   H58   S    
C17   H61   S    
C42   H22   S    
N32   Ni3   S    
C15   C79   A    
C88   C92   A    
C45   H33   S    
C83   N27   A    
C85   N29   A    
N22   Ni2   S    
C81   N25   A    
N15   Ni8   S    
C38   H18   S    
C66   H38   S    
C8    C52   S    
N16   Ni7   S    
C37   H17   S    
C35   C92   S    
C44   C52   A    
C40   C42   A    
N4    Ni4   S    
C8    C84   A    
C55   C60   A    
C30   H14   S    
N5    Ni5   S    
C14   C70   A    
C79   N23   A    
C29   H13   S    
C9    C73   A    
C11   C59   S    
C75   H59   S    
C41   C49   A    
C11   C67   A    
C56   H28   S    
C25   C49   A    
C10   C66   A    
C4    H4    S    
C13   C77   A    
C78   N22   A    
C30   C34   A    
N19   Ni7   S    
C20   C24   D    
N27   Ni8   S    
C2    H2    S    
C45   N5    A    
N6    Ni6   S    
C86   C90   A    
N13   N21   A    
C22   H6    S    
C74   N18   A    
C85   C89   A    
C19   C23   D    
C34   C38   A    
N11   N19   A    
N24   Ni4   S    
C5    C45   A    
C33   C37   A    
N9    N17   A    
C86   N30   A    
C7    C47   A    
C37   C43   A    
C35   C39   A    
C8    C48   A    
C38   C44   A    
C19   H63   S    
C76   H60   S    
C44   H24   S    
C48   H36   S    
C21   H5    S    
C28   H12   S    
C73   N17   A    
C36   C40   A    
C53   C58   A    
C17   C18   S    
C6    C50   S    
C47   H35   S    
C78   H42   S    
N30   Ni1   S    
N12   N20   A    
C69   N13   A    
C42   C50   A    
C36   C91   S    
C15   C24   S    
C46   N6    A    
C47   N7    A    
N23   Ni3   S    
C16   C23   S    
C54   H26   S    
N26   Ni5   S    
C32   H16   S    
C31   C35   A    
C76   N20   A    
N8    Ni8   S    
C1    N1    A    
C85   H49   S    
C69   H53   S    
C62   H30   S    
C71   N15   A    
N11   Ni4   S    
C86   H50   S    
C66   N10   A    
N9    Ni2   S    
C1    C89   A    
C2    C90   A    
C6    C46   A    
C18   C22   D    
C31   H15   S    
C25   C31   A    
C46   H34   S    
C67   H39   S    
C71   H55   S    
C84   N28   A    
C88   N32   A    
N10   N18   A    
C65   H37   S    
C24   H8    S    
C10   C74   A    
N7    Ni7   S    
N31   Ni4   S    
C28   C52   A    
C67   N11   A    
C2    N2    A    
C79   H43   S    
C59   C63   A    
C72   N16   A    
C56   C59   A    
C60   C64   A    
C87   H51   S    
C12   C76   A    
N1    N29   A    
C41   H21   S    
C7    C51   S    
C28   C30   A    
C82   H46   S    
C64   H32   S    
C33   C90   S    
C26   H10   S    
C39   H19   S    
C40   H20   S    
N28   Ni7   S    
C25   H9    S    
N6    N26   A    
C13   C69   A    
N29   Ni2   S    
C43   C51   A    
N2    N30   A    
C27   H11   S    
C27   C51   A    
C3    H3    S    
N15   N23   A    
C13   C22   S    
C53   H25   S    
C14   C78   A    
N17   Ni5   S    
C61   C62   A    
N14   Ni5   S    
C9    C65   A    
N25   Ni6   S    
C34   C89   S    
C80   H44   S    
C70   H54   S    
C63   C64   A    
C12   C60   S    
N3    Ni3   S    
C84   H48   S    
C1    H1    S    
C80   N24   A    
N13   Ni6   S    
N10   Ni1   S    
N1    Ni1   S    
C81   H45   S    
C11   C75   A    
C16   C80   A    
C68   N12   A    
C48   N8    A    
C88   H52   S    
C73   H57   S    
C70   N14   A    
C4    C92   A    
C54   C57   A    
C17   C21   D    
