data_mof_unit_2816.cif
_audit_creation_date              2012-12-10T17:18:19-0500
_audit_creation_method            fapswitch 2.2
_symmetry_space_group_name_H-M    P1
_symmetry_Int_Tables_number       1
_space_group_crystal_system       triclinic
_cell_length_a                    10.20556
_cell_length_b                    10.49453
_cell_length_c                    14.925336
_cell_angle_alpha                 91.58197
_cell_angle_beta                  82.382083
_cell_angle_gamma                 95.988548
_cell_volume                      1575.63260258

loop_
_atom_site_label
_atom_site_type_symbol
_atom_type_description
_atom_site_fract_x
_atom_site_fract_y
_atom_site_fract_z
_atom_type_partial_charge
C1    C     C_R   0.555788 0.734369 0.489752 0.839489
C2    C     C_2   0.066098 0.471085 0.506978 -0.069776
C3    C     C_R   0.501092 0.500038 0.672660 0.871425
C4    C     C_R   0.499035 0.500631 0.327288 0.867494
C5    C     C_R   0.395784 0.431764 0.194339 -0.238694
C6    C     C_R   0.603587 0.570791 0.805446 -0.185411
C7    C     C_R   0.497666 0.502647 0.231908 -0.071584
C8    C     C_R   0.502556 0.498412 0.767952 -0.073230
C9    C     C_R   0.600730 0.572654 0.179010 -0.228833
C10   C     C_R   0.400808 0.426616 0.820751 -0.222595
C11   C     C_R   0.603878 0.572563 0.085689 0.058752
C12   C     C_R   0.443743 0.265318 0.504298 0.880073
C13   C     C_R   0.399492 0.424391 0.913831 0.058807
C14   C     C_R   0.500525 0.499592 0.046494 -0.020955
C15   C     C_R   0.502042 0.498590 0.953055 -0.030532
C16   C     C_R   0.395738 0.427609 0.101204 0.036028
C17   C     C_R   0.605608 0.572302 0.898429 0.040960
C18   C     C_R   0.707833 0.644482 0.031613 0.163417
C19   C     C_R   0.297197 0.350183 0.967718 0.166828
C20   C     C_3   0.921053 0.638166 0.083511 -0.792651
C21   C     C_3   0.236053 0.144108 0.901028 -0.785078
C22   C     C_3   0.786732 0.847008 0.863029 -0.819737
C23   C     C_R   0.707560 0.646535 0.937797 0.142719
C24   C     C_3   0.077062 0.340863 0.151204 -0.797966
C25   C     C_3   0.255044 0.112877 0.636650 -0.706085
C26   C     C_3   0.807559 0.950002 0.403724 -0.709631
C27   C     C_2   0.096738 0.345388 0.467785 0.975855
C28   C     C_2   0.878267 0.576548 0.596518 0.982661
C29   C     C_R   0.293891 0.353123 0.061906 0.135442
C30   C     C_2   0.585613 0.869424 0.466665 0.048982
C31   C     C_2   0.411337 0.127512 0.494543 0.044350
C32   C     C_2   0.489401 0.927657 0.435858 -0.177744
C33   C     C_2   0.494602 0.065831 0.435396 -0.209823
C34   C     C_2   0.924352 0.498323 0.517626 -0.046448
H1    H     H_    0.318944 0.378221 0.238608 0.194867
H2    H     H_    0.970553 0.607532 0.016694 0.252656
H3    H     H_    0.882861 0.552353 0.124613 0.246558
H4    H     H_    0.995466 0.696564 0.119450 0.242000
H5    H     H_    0.104032 0.268158 0.960707 0.255528
H6    H     H_    0.245064 0.089161 0.962141 0.249498
H7    H     H_    0.332020 0.150549 0.855704 0.243709
H8    H     H_    0.158647 0.092002 0.864230 0.241311
H9    H     H_    0.859063 0.670607 0.829776 0.266222
H10   H     H_    0.707332 0.842553 0.818526 0.236616
H11   H     H_    0.878235 0.899405 0.827535 0.248867
H12   H     H_    0.677355 0.628333 0.761227 0.166970
H13   H     H_    0.755225 0.901115 0.925852 0.248433
H14   H     H_    0.223279 0.219066 0.161736 0.222501
H15   H     H_    0.999653 0.271380 0.187149 0.242660
H16   H     H_    0.034363 0.383042 0.095593 0.240240
H17   H     H_    0.105299 0.418091 0.199500 0.257859
H18   H     H_    0.231076 0.011084 0.514877 0.242519
H19   H     H_    0.190313 0.038181 0.677380 0.232660
H20   H     H_    0.195952 0.193573 0.628198 0.275207
H21   H     H_    0.339750 0.146368 0.673995 0.218458
H22   H     H_    0.745649 0.906691 0.537965 0.257609
H23   H     H_    0.677070 0.628199 0.211722 0.177645
H24   H     H_    0.896885 0.010845 0.420639 0.257840
H25   H     H_    0.768899 0.995619 0.347677 0.227369
H26   H     H_    0.836901 0.853983 0.381159 0.240776
H27   H     H_    0.190923 0.246095 0.366121 0.310644
H28   H     H_    0.822493 0.746812 0.644319 0.309377
H29   H     H_    0.323383 0.372402 0.788251 0.181188
H30   H     H_    0.578982 0.117580 0.395051 0.175314
H31   H     H_    0.395580 0.874575 0.424513 0.158930
H32   H     H_    0.129987 0.638088 0.562560 0.169472
H33   H     H_    0.880780 0.395856 0.408303 0.161922
H34   H     H_    0.847703 0.801241 0.043545 0.254517
N1    N     N_2   0.842700 0.448880 0.462930 -0.224076
N2    N     N_2   0.157300 0.551120 0.537070 -0.224175
N3    N     N_2   0.813814 0.713481 0.071778 -0.310783
N4    N     N_2   0.198923 0.270667 0.926675 -0.304927
N5    N     N_2   0.813925 0.719393 0.884198 -0.308409
N6    N     N_2   0.191120 0.275505 0.115293 -0.309061
N7    N     N_2   0.302712 0.058759 0.549609 -0.297027
N8    N     N_2   0.708444 0.938364 0.482626 -0.276714
O1    O     O_R   0.431060 0.692470 0.507460 -0.622050
O2    O     O_R   0.180500 0.337848 0.386614 -0.811781
O3    O     O_2   0.880732 0.536560 0.672338 -0.664734
O4    O     O_R   0.845339 0.700139 0.584846 -0.819193
O5    O     O_R   0.568940 0.307530 0.492540 -0.607676
O6    O     O_R   0.651120 0.659650 0.483670 -0.563074
O7    O     O_R   0.348880 0.340350 0.516330 -0.590122
O8    O     O_R   0.389960 0.516440 0.644050 -0.608205
O9    O     O_R   0.610040 0.483560 0.355950 -0.628653
O10   O     O_R   0.610030 0.483620 0.620260 -0.589800
O11   O     O_R   0.389970 0.516380 0.379740 -0.568452
O12   O     O_2   0.041123 0.247605 0.503971 -0.660898
Zn1   Zn    Zn3+2 0.353060 0.521920 0.515880 0.974224
Zn2   Zn    Zn3+2 0.646940 0.478080 0.484120 0.981132

loop_
_geom_bond_atom_site_label_1
_geom_bond_atom_site_label_2
_ccdc_geom_bond_type
H9    N5    S    
C11   C18   A    
H22   N8    S    
C1    O1    A    
C10   H29   S    
C27   O2    S    
C4    O11   A    
O1    Zn1   S    
C17   C23   A    
H28   O4    S    
C25   H19   S    
C33   H30   S    
C11   C14   A    
C24   H15   S    
C30   N8    S    
C15   C17   A    
C28   O3    D    
C5    C16   A    
C26   H24   S    
C22   H10   S    
C26   N8    S    
H5    N4    S    
C31   C33   D    
C20   N3    S    
C2    C27   S    
C26   H25   S    
H18   N7    S    
C24   H17   S    
C22   H13   S    
C28   C34   S    
C3    O10   A    
C19   N4    S    
C23   N5    S    
C4    C7    S    
C24   H16   S    
O7    Zn1   S    
C13   C19   A    
C21   N4    S    
C18   C23   A    
H14   N6    S    
C25   H20   S    
C3    C8    S    
O10   Zn2   S    
C5    C7    A    
C6    C8    A    
C4    O9    A    
C16   C29   A    
C12   O7    A    
C25   N7    S    
C20   H4    S    
C31   N7    S    
H27   O2    S    
C9    C11   A    
C34   N1    D    
C21   H7    S    
O5    Zn2   S    
C13   C15   A    
C12   C31   S    
C14   C16   A    
N2    Zn1   S    
O8    Zn1   S    
N1    Zn2   S    
C19   C29   A    
C18   N3    S    
C7    C9    A    
C6    C17   A    
C6    H12   S    
C2    C34   S    
C25   H21   S    
C10   C13   A    
O9    Zn2   S    
C29   N6    S    
O6    Zn2   S    
C32   C33   S    
O11   Zn1   S    
C1    O6    A    
C30   C32   D    
C20   H3    S    
C24   N6    S    
H32   N2    S    
C21   H6    S    
H34   N3    S    
C5    H1    S    
C1    C30   S    
C12   O5    A    
C9    H23   S    
C27   O12   D    
C28   O4    S    
C21   H8    S    
C20   H2    S    
C22   H11   S    
C8    C10   A    
C3    O8    A    
C14   C15   A    
C22   N5    S    
H33   N1    S    
C2    N2    D    
C26   H26   S    
C32   H31   S    
