data_mof_unit_2706.cif
_audit_creation_date              2012-12-11T14:56:48-0500
_audit_creation_method            fapswitch 2.2
_symmetry_space_group_name_H-M    P1
_symmetry_Int_Tables_number       1
_space_group_crystal_system       triclinic
_cell_length_a                    10.594106
_cell_length_b                    10.683442
_cell_length_c                    17.143778
_cell_angle_alpha                 80.260829
_cell_angle_beta                  90.070453
_cell_angle_gamma                 119.530212
_cell_volume                      1656.31446908

loop_
_atom_site_label
_atom_site_type_symbol
_atom_type_description
_atom_site_fract_x
_atom_site_fract_y
_atom_site_fract_z
_atom_type_partial_charge
C1    C     C_R   0.223007 0.854294 0.128817 0.549611
C2    C     C_1   0.651630 0.345164 0.707537 -0.037214
C3    C     C_R   0.641134 0.720782 0.803738 -0.143122
C4    C     C_R   0.633815 0.270719 0.090165 0.543086
C5    C     C_R   0.632757 0.702569 0.725950 -0.130609
C6    C     C_R   0.667834 0.822361 0.664294 0.055008
C7    C     C_R   0.716063 0.961773 0.680098 -0.087195
C8    C     C_R   0.723485 0.980021 0.758367 -0.120734
C9    C     C_R   0.683144 0.858635 0.820234 0.017607
C10   C     C_R   0.127743 0.937216 0.777968 0.273933
C11   C     C_R   0.069596 0.911472 0.706336 0.241488
C12   C     C_R   0.712307 0.259912 0.300735 -0.133961
C13   C     C_R   0.041551 0.781698 0.680325 -0.018315
C14   C     C_R   0.040403 0.666591 0.734419 -0.196322
C15   C     C_R   0.086344 0.687646 0.809914 -0.200626
C16   C     C_R   0.640557 0.858399 0.125439 0.547393
C17   C     C_R   0.140800 0.825528 0.829480 -0.007455
C18   C     C_R   0.686470 0.810163 0.357228 0.544743
C19   C     C_R   0.682769 0.386931 0.398484 0.549897
C20   C     C_R   0.103529 0.810351 0.359104 0.558917
C21   C     C_R   0.677216 0.800982 0.584781 0.534775
C22   C     C_R   0.679082 0.382762 0.624502 0.542663
C23   C     C_R   0.713617 0.247613 0.222238 -0.127164
C24   C     C_R   0.024785 0.774375 0.596023 0.577248
C25   C     C_R   0.218940 0.862354 0.900213 0.564088
C26   C     C_R   0.637262 0.284378 0.860899 0.546510
C27   C     C_R   0.645787 0.867886 0.898706 0.539080
C28   C     C_R   0.556393 0.353118 0.197553 -0.135150
C29   C     C_R   0.557088 0.367932 0.276410 -0.124393
C30   C     C_R   0.640577 0.327102 0.327151 0.028679
C31   C     C_3   0.118536 0.131305 0.815633 0.058588
C32   C     C_3   0.196939 0.297429 0.789019 -0.238667
C33   C     C_3   0.107851 0.362131 0.814141 -0.476635
C34   C     C_R   0.639985 0.298824 0.169722 0.033470
C35   C     C_1   0.668815 0.848931 0.205518 -0.040657
C36   C     C_1   0.680151 0.839428 0.274895 -0.042036
C37   C     C_1   0.180878 0.825650 0.211348 -0.030527
C38   C     C_1   0.151314 0.819940 0.279781 -0.031148
C39   C     C_1   0.643867 0.323163 0.778079 -0.040143
Cl1   Cl    Cl    0.054505 0.057662 0.647576 -0.602083
Cr1   Cr    Cr6+3 0.402240 0.783890 0.019450 1.027545
Cr2   Cr    Cr6+3 0.382360 0.097900 0.991800 1.027575
Cr3   Cr    Cr6+3 0.715380 0.118170 0.988700 1.000848
Cr4   Cr    Cr6+3 0.936650 0.882420 0.465510 1.075034
Cr5   Cr    Cr6+3 0.605770 0.565620 0.493360 1.049893
Cr6   Cr    Cr6+3 0.921340 0.550490 0.496380 1.040156
H1    H     H_    0.494324 0.387150 0.158077 0.130418
H2    H     H_    0.752807 0.086806 0.770610 0.135676
H3    H     H_    0.103281 0.103963 0.881591 0.143087
H4    H     H_    0.008272 0.082240 0.794267 0.156565
H5    H     H_    0.303250 0.346944 0.814988 0.167663
H6    H     H_    0.219122 0.326318 0.723167 0.220714
H7    H     H_    0.002324 0.317133 0.787433 0.168026
H8    H     H_    0.171689 0.482084 0.792114 0.153891
H9    H     H_    0.087657 0.339342 0.879942 0.146854
H10   H     H_    0.009746 0.563110 0.717153 0.154416
H11   H     H_    0.087197 0.600160 0.851572 0.143238
H12   H     H_    0.500707 0.420192 0.295971 0.148298
H13   H     H_    0.775203 0.225627 0.339405 0.139548
H14   H     H_    0.772042 0.197160 0.202816 0.144095
H15   H     H_    0.607794 0.626273 0.851098 0.122132
H16   H     H_    0.600390 0.595014 0.713799 0.130241
H17   H     H_    0.747335 0.055107 0.632297 0.147917
O1    O     O_R   0.521780 0.757110 0.108900 -0.511825
O2    O     O_R   0.805020 0.410040 0.421340 -0.514241
O3    O     O_R   0.049240 0.685450 0.403290 -0.489591
O4    O     O_R   0.275160 0.783810 0.101120 -0.495370
O5    O     O_R   0.077520 0.903010 0.551800 -0.432841
O6    O     O_R   0.802980 0.872780 0.546830 -0.481368
O7    O     O_R   0.578090 0.681300 0.569920 -0.518058
O8    O     O_R   0.608530 0.436370 0.586530 -0.487310
O9    O     O_R   0.798770 0.401880 0.597100 -0.528985
O10   O     O_R   0.043450 0.677890 0.566230 -0.503036
O11   O     O_3   0.821250 0.666180 0.485090 -0.297391
O12   O     O_R   0.513330 0.228330 0.898660 -0.483260
O13   O     O_R   0.237900 0.972600 0.090980 -0.517299
O14   O     O_R   0.511190 0.220540 0.061620 -0.505594
O15   O     O_R   0.736920 0.257720 0.063840 -0.522979
O16   O     O_R   0.710450 0.984050 0.081720 -0.504147
O17   O     O_R   0.524090 0.765520 0.933110 -0.511787
O18   O     O_R   0.277300 0.791600 0.938160 -0.502489
O19   O     O_R   0.240210 0.981010 0.915190 -0.488467
O20   O     O_3   0.208066 0.082635 0.786123 -0.514161
O21   O     O_R   0.739230 0.266130 0.888050 -0.528603
O22   O     O_R   0.712580 0.991850 0.918770 -0.517103
O23   O     O_3   0.499990 0.999980 0.999980 -0.252712
O24   O     O_R   0.083770 0.911170 0.376030 -0.500585
O25   O     O_R   0.808770 0.880340 0.383890 -0.502085
O26   O     O_R   0.584340 0.689460 0.394160 -0.506227
O27   O     O_R   0.614320 0.443940 0.423590 -0.498949

loop_
_geom_bond_atom_site_label_1
_geom_bond_atom_site_label_2
_ccdc_geom_bond_type
C33   H9    S    
C14   H10   S    
C28   H1    S    
Cr5   O8    S    
C35   C36   T    
Cr2   O19   S    
Cr1   O17   S    
C7    C8    A    
Cr1   O4    S    
Cr3   O15   S    
Cr1   O23   S    
C12   C23   A    
Cr2   O12   S    
C37   C38   T    
C20   O3    A    
C28   C29   A    
Cr6   O3    S    
C16   C35   S    
C5    C6    A    
C26   C39   S    
C10   C17   A    
Cr3   O16   S    
C20   O24   A    
C10   O20   S    
C31   O20   S    
C27   O22   A    
C32   H6    S    
C12   H13   S    
C2    C39   T    
C8    C9    A    
C2    C22   S    
Cr2   O23   S    
Cr4   O24   S    
Cr5   O26   S    
Cr6   O9    S    
C1    C37   S    
C28   C34   A    
C13   C14   A    
C25   O18   A    
Cr3   O21   S    
C15   H11   S    
C31   H3    S    
C22   O9    A    
C3    H15   S    
C33   H7    S    
C23   H14   S    
C4    C34   S    
Cr3   O22   S    
Cr6   O2    S    
C27   O17   A    
C18   O26   A    
C6    C21   S    
C18   O25   A    
C13   C24   S    
C21   O6    A    
Cr5   O11   S    
C8    H2    S    
C32   H5    S    
C4    O15   A    
C29   C30   A    
C3    C9    A    
C20   C38   S    
C31   C32   S    
C23   C34   A    
Cr1   O18   S    
C26   O12   A    
Cr4   O6    S    
Cr4   O11   S    
Cr5   O27   S    
C7    H17   S    
C25   O19   A    
Cr4   O5    S    
C31   H4    S    
C22   O8    A    
Cr6   O11   S    
C9    C27   S    
C33   H8    S    
C15   C17   A    
C26   O21   A    
C12   C30   A    
Cr5   O7    S    
C1    O13   A    
C3    C5    A    
C6    C7    A    
Cr2   O13   S    
C21   O7    A    
C16   O16   A    
C17   C25   S    
C32   C33   S    
C4    O14   A    
C19   O27   A    
C11   C13   A    
C1    O4    A    
C5    H16   S    
C19   O2    A    
C11   Cl1   S    
C24   O10   A    
Cr3   O23   S    
C10   C11   A    
C24   O5    A    
C29   H12   S    
Cr2   O14   S    
C14   C15   A    
C16   O1    A    
Cr1   O1    S    
Cr4   O25   S    
C19   C30   S    
C18   C36   S    
Cr6   O10   S    
