data_mof_unit_2823.cif
_audit_creation_date              2013-03-05T16:35:53-0500
_audit_creation_method            fapswitch 2.2
_symmetry_space_group_name_H-M    P1
_symmetry_Int_Tables_number       1
_space_group_crystal_system       triclinic
_cell_length_a                    23.547354
_cell_length_b                    9.085225
_cell_length_c                    7.77651
_cell_angle_alpha                 90.052094
_cell_angle_beta                  90.000169
_cell_angle_gamma                 89.999569
_cell_volume                      1663.65149802

loop_
_atom_site_label
_atom_site_type_symbol
_atom_site_description
_atom_site_fract_x
_atom_site_fract_y
_atom_site_fract_z
_atom_type_partial_charge
O1    O     O_R   0.500000 0.288390 0.642760 -0.572533
O2    O     O_R   0.500000 0.711610 0.357240 -0.572533
O3    O     O_R   0.500000 0.711610 0.642760 -0.576393
O4    O     O_R   0.500000 0.288390 0.357240 -0.576388
C1    C     C_R   0.500001 0.219997 0.499951 0.851696
C2    C     C_R   0.500001 0.780003 0.500048 0.851686
O5    O     O_R   0.417880 0.500000 0.642820 -0.581179
O6    O     O_R   0.582120 0.500000 0.357180 -0.581443
O7    O     O_R   0.582120 0.500000 0.642820 -0.581450
O8    O     O_R   0.417880 0.500000 0.357180 -0.581178
C3    C     C_R   0.208844 0.500035 0.500005 0.176779
C4    C     C_R   0.791118 0.500112 0.500016 0.169240
C5    C     C_R   0.390660 0.500001 0.500000 0.813618
C6    C     C_R   0.609342 0.500004 0.500001 0.811813
Cu1   Cu    Cu3+1 0.500000 0.500000 0.669080 1.029028
Cu2   Cu    Cu3+1 0.500000 0.500000 0.330920 1.029035
C7    C     C_R   0.298424 0.549471 0.644320 -0.206459
C8    C     C_R   0.701596 0.451681 0.355077 -0.207792
C9    C     C_R   0.298421 0.450560 0.355684 -0.206448
C10   C     C_R   0.701584 0.548412 0.644944 -0.207908
H1    H     H_    0.322025 0.587974 0.755212 0.194952
H2    H     H_    0.678044 0.414173 0.243671 0.204133
H3    H     H_    0.322019 0.412047 0.244790 0.194948
H4    H     H_    0.678021 0.585894 0.756340 0.204165
C11   C     C_R   0.328209 0.500010 0.500001 -0.080413
C12   C     C_R   0.671797 0.500030 0.500007 -0.083349
C13   C     C_R   0.880311 0.624553 0.450302 0.721648
C14   C     C_R   0.119687 0.375763 0.550360 0.728897
C15   C     C_R   0.880305 0.375656 0.549768 0.721235
C16   C     C_R   0.119693 0.624345 0.449665 0.728921
N1    N     N_R   0.852099 0.500109 0.500032 -0.465164
N2    N     N_R   0.147900 0.500047 0.500007 -0.455826
C17   C     C_R   0.939998 0.372550 0.550722 -0.181393
C18   C     C_R   0.060003 0.627531 0.449035 -0.190446
C19   C     C_R   0.940004 0.627638 0.449351 -0.181400
C20   C     C_R   0.059997 0.372605 0.551013 -0.190443
C21   C     C_R   0.969971 0.500088 0.500034 -0.163319
C22   C     C_R   0.030033 0.500075 0.500027 -0.158951
C23   C     C_R   0.970400 0.246075 0.600740 0.618898
C24   C     C_R   0.029601 0.754025 0.399101 0.603963
C25   C     C_R   0.970412 0.754102 0.399337 0.618900
C26   C     C_R   0.029588 0.246126 0.600962 0.603954
C27   C     C_1   0.500002 0.065380 0.499933 -0.151446
C28   C     C_1   0.500002 0.934620 0.500067 -0.151446
C29   C     C_R   0.238863 0.551940 0.646633 0.000985
C30   C     C_R   0.761083 0.449493 0.352829 -0.013983
C31   C     C_R   0.238859 0.448116 0.353376 0.000998
C32   C     C_R   0.761071 0.550682 0.647207 -0.014072
N3    N     N_1   0.500000 0.500000 0.076820 -0.039691
N4    N     N_1   0.500000 0.500000 0.923180 -0.039693
O9    O     O_2   0.850384 0.744225 0.402018 -0.430191
O10   O     O_2   0.149611 0.256317 0.599405 -0.416302
O11   O     O_2   0.850373 0.255994 0.598048 -0.430268
O12   O     O_2   0.149623 0.743776 0.400608 -0.416307
F1    F     F_    0.943247 0.121104 0.649953 -0.518950
F2    F     F_    0.056753 0.878943 0.349701 -0.522395
F3    F     F_    0.943266 0.879087 0.350143 -0.518959
F4    F     F_    0.056734 0.121199 0.650367 -0.522397
C33   C     C_2   0.209616 0.610155 0.803510 0.925658
O13   O     O_2   0.237385 0.669559 0.917070 -0.562292
O14   O     O_R   0.150827 0.597693 0.823768 -0.760908
H5    H     H_    0.136745 0.642626 0.935296 0.373291
C34   C     C_2   0.790099 0.393082 0.195043 0.909487
O15   O     O_2   0.841366 0.406506 0.176111 -0.550711
O16   O     O_R   0.758250 0.324609 0.065743 -0.749081
H6    H     H_    0.782391 0.291741 0.964766 0.369018
C35   C     C_2   0.209607 0.389901 0.196509 0.925687
O17   O     O_2   0.237370 0.330453 0.082970 -0.562272
O18   O     O_R   0.150820 0.402413 0.176239 -0.760911
H7    H     H_    0.136734 0.357468 0.064722 0.373284
C36   C     C_2   0.790071 0.607100 0.805023 0.909611
O19   O     O_2   0.841361 0.594101 0.823760 -0.550506
O20   O     O_R   0.758183 0.675107 0.934567 -0.749328
H8    H     H_    0.782319 0.708057 0.035520 0.368988

loop_
_geom_bond_atom_site_label_1
_geom_bond_atom_site_label_2
_geom_bond_distance
_ccdc_geom_bond_type
C34   O16   1.399762 S    
O20   H8    1.014152 S    
C20   C26   1.408833 A    
C8    C12   1.398094 A    
C4    C32   1.421585 A    
O3    C2    1.272399 A    
C26   F4    1.358375 S    
C16   O12   1.349212 S    
C17   C23   1.408866 A    
C15   O11   1.349226 S    
O1    C1    1.272070 A    
C19   C21   1.413135 A    
C7    C29   1.402810 A    
O18   H7    1.013995 S    
C9    C31   1.402811 A    
Cu1   Cu2   2.629705 S    
C15   C17   1.405905 A    
Cu1   N4    1.976010 S    
C3    C31   1.421705 A    
C23   F1    1.358374 S    
C10   H4    1.083382 S    
C24   F2    1.358371 S    
O1    Cu1   1.933205 S    
O2    Cu2   1.933204 S    
O5    Cu1   1.944464 S    
C1    C27   1.404729 S    
C33   O13   1.223855 D    
O6    Cu2   1.944461 S    
C2    C28   1.404729 S    
C5    C11   1.470570 S    
O2    C2    1.272070 A    
C9    C11   1.397300 A    
C8    C30   1.401007 A    
C31   C35   1.497029 S    
C13   O9    1.349230 S    
C23   C26   1.393729 A    
C33   O14   1.397863 S    
C16   C18   1.405848 A    
C13   N1    1.367472 A    
C35   O17   1.223837 D    
C14   N2    1.367652 A    
Cu2   N3    1.976010 S    
C4    C30   1.421569 A    
C36   O20   1.399740 S    
O7    C6    1.282343 A    
C13   C19   1.405909 A    
C17   C21   1.413134 A    
C35   O18   1.397862 S    
C18   C22   1.413163 A    
O4    Cu2   1.933575 S    
C9    H3    1.083663 S    
C27   C28   1.187988 T    
C21   C22   1.414306 A    
C6    C12   1.470638 S    
C10   C32   1.401019 A    
C24   C25   1.393732 A    
C3    N2    1.435065 S    
O16   H6    1.014149 S    
C4    N1    1.435927 S    
C18   C24   1.408828 A    
C3    C29   1.421703 A    
C32   C36   1.494671 S    
O3    Cu1   1.933574 S    
C29   C33   1.497043 S    
O6    C6    1.282350 A    
C8    H2    1.083387 S    
O4    C1    1.272399 A    
O8    C5    1.282318 A    
C30   C34   1.494627 S    
C7    C11   1.397301 A    
C20   C22   1.413162 A    
O7    Cu1   1.944462 S    
C25   F3    1.358367 S    
C36   O19   1.222236 D    
C15   N1    1.367470 A    
O8    Cu2   1.944465 S    
C16   N2    1.367649 A    
C14   O10   1.349207 S    
C10   C12   1.398100 A    
O14   H5    1.013994 S    
C19   C25   1.408861 A    
C7    H1    1.083661 S    
C34   O15   1.222282 D    
O5    C5    1.282317 A    
C14   C20   1.405849 A    
N3    N4    1.194784 T    
