data_mof_unit_4619.cif
_audit_creation_date              2012-12-10T20:36:36-0500
_audit_creation_method            fapswitch 2.2
_symmetry_space_group_name_H-M    P1
_symmetry_Int_Tables_number       1
_space_group_crystal_system       triclinic
_cell_length_a                    10.490262
_cell_length_b                    10.652307
_cell_length_c                    9.882644
_cell_angle_alpha                 90.05911
_cell_angle_beta                  90.828152
_cell_angle_gamma                 90.474271
_cell_volume                      1104.18699167

loop_
_atom_site_label
_atom_site_type_symbol
_atom_type_description
_atom_site_fract_x
_atom_site_fract_y
_atom_site_fract_z
_atom_type_partial_charge
C1    C     C_R   0.504507 0.260086 0.500138 0.867242
C2    C     C_3   0.957519 0.594835 0.424736 -0.193427
C3    C     C_3   0.037364 0.484574 0.371217 -0.165635
C4    C     C_3   0.122355 0.497528 0.497879 -0.001203
C5    C     C_R   0.516906 0.064253 0.623796 0.138541
C6    C     C_R   0.525860 0.128940 0.501989 -0.111173
C7    C     C_R   0.559953 0.065398 0.383688 -0.232609
C8    C     C_R   0.559894 0.935447 0.383711 -0.235043
C9    C     C_R   0.525879 0.871552 0.502079 -0.105170
C10   C     C_R   0.516951 0.936374 0.623851 0.157403
C11   C     C_3   0.417900 0.928497 0.730951 -0.478550
C12   C     C_R   0.257362 0.498544 0.499115 0.869881
C13   C     C_3   0.417808 0.070804 0.730843 -0.495204
C14   C     C_R   0.430030 0.412927 0.069873 0.220034
C15   C     C_R   0.578295 0.577912 0.073787 -0.177061
C16   C     C_R   0.578653 0.578047 0.929894 0.006886
C17   C     C_R   0.430141 0.412812 0.927489 0.193219
C18   C     C_3   0.289240 0.394709 0.919229 -0.505075
C19   C     C_3   0.288980 0.395772 0.072821 -0.518864
C20   C     C_R   0.504557 0.740005 0.500182 0.880314
C21   C     C_R   0.742528 0.500888 0.501046 0.860357
C22   C     C_3   0.042690 0.402184 0.576768 -0.205234
C23   C     C_3   0.955549 0.390663 0.450771 0.128909
C24   C     C_3   0.877434 0.499790 0.503021 -0.005052
C25   C     C_3   0.962533 0.512577 0.629499 -0.153488
C26   C     C_3   0.045149 0.607699 0.551038 -0.164457
H1    H     H_    0.456147 0.887848 0.826681 0.209376
H2    H     H_    0.326570 0.111435 0.693290 0.192947
H3    H     H_    0.455931 0.112473 0.826520 0.206335
H4    H     H_    0.639405 0.642296 0.130114 0.146815
H5    H     H_    0.239264 0.476363 0.873585 0.223296
H6    H     H_    0.262306 0.302068 0.875025 0.193979
H7    H     H_    0.240328 0.478978 0.115053 0.213302
H8    H     H_    0.260813 0.304144 0.117583 0.195321
H9    H     H_    0.082249 0.323833 0.637895 0.127420
H10   H     H_    0.928028 0.524336 0.734394 0.154607
H11   H     H_    0.086884 0.696398 0.591696 0.132305
H12   H     H_    0.918230 0.673443 0.363800 0.139768
H13   H     H_    0.069855 0.472042 0.265943 0.134127
H14   H     H_    0.577707 0.114897 0.290005 0.171959
H15   H     H_    0.577509 0.886073 0.289988 0.168877
H16   H     H_    0.326698 0.886162 0.693529 0.195593
N1    N     N_R   0.499140 0.499140 0.142800 -0.109867
N2    N     N_R   0.499140 0.499180 0.857150 -0.127890
O1    O     O_R   0.500020 0.316790 0.614690 -0.616279
O2    O     O_R   0.500000 0.316760 0.385350 -0.623615
O3    O     O_R   0.313960 0.499990 0.614650 -0.624546
O4    O     O_R   0.313940 0.499950 0.385310 -0.621919
O5    O     O_R   0.500000 0.683240 0.614650 -0.610515
O6    O     O_R   0.499980 0.683210 0.385310 -0.623398
O7    O     O_R   0.686060 0.500050 0.614690 -0.619238
O8    O     O_R   0.686040 0.500010 0.385350 -0.630318
Zn1   Zn    Zn3+2 0.500010 0.500020 0.653130 0.946595
Zn2   Zn    Zn3+2 0.499990 0.499980 0.346870 0.932412
C27   C     C_3   0.897210 0.268357 0.396206 -0.427072
C28   C     C_3   0.000473 0.174906 0.356904 -0.340276
C29   C     C_3   0.941280 0.051924 0.306125 -0.878183
H17   H     H_    0.882874 0.007963 0.386446 0.267163
H18   H     H_    0.880046 0.069074 0.215474 0.260080
H19   H     H_    0.017952 0.985899 0.278206 0.246892
H20   H     H_    0.060325 0.215852 0.275896 0.218330
H21   H     H_    0.062773 0.154725 0.446068 0.216955
H22   H     H_    0.835984 0.226614 0.475573 0.197828
H23   H     H_    0.836377 0.289991 0.306361 0.211764
C30   C     C_1   0.661965 0.663947 0.861221 0.207210
N3    N     N_1   0.729319 0.733246 0.806519 -0.233679

loop_
_geom_bond_atom_site_label_1
_geom_bond_atom_site_label_2
_ccdc_geom_bond_type
C4    C26   S    
C23   C24   S    
C13   H2    S    
C23   C27   S    
C6    C7    A    
C16   C30   S    
C4    C12   S    
C4    C22   S    
C9    C10   A    
C2    H12   S    
N1    Zn2   S    
C5    C13   S    
C12   O4    A    
C11   H1    S    
O3    Zn1   S    
C14   N1    A    
C27   H23   S    
O2    Zn2   S    
C27   C28   S    
C17   C18   S    
C3    C4    S    
C17   N2    A    
C15   N1    A    
C7    C8    A    
C26   H11   S    
O6    Zn2   S    
C8    H15   S    
O4    Zn2   S    
C22   H9    S    
C11   C13   S    
C14   C17   A    
C1    O1    A    
C29   H17   S    
C20   O5    A    
C11   H16   S    
C12   O3    A    
O5    Zn1   S    
N2    Zn1   S    
C13   H3    S    
O8    Zn2   S    
C2    C3    S    
C5    C10   A    
C2    C24   S    
C5    C6    A    
C28   H21   S    
C1    O2    A    
C29   H18   S    
C18   H6    S    
C10   C11   S    
C25   H10   S    
O1    Zn1   S    
C15   C16   A    
C21   O7    A    
C24   C25   S    
C15   H4    S    
C2    C26   S    
C30   N3    T    
C19   H7    S    
C21   C24   S    
C28   C29   S    
C16   N2    A    
C28   H20   S    
C18   C19   S    
C29   H19   S    
C20   O6    A    
C18   H5    S    
C9    C20   S    
C25   C26   S    
C22   C23   S    
C7    H14   S    
C3    C23   S    
C14   C19   S    
C22   C25   S    
C21   O8    A    
C3    H13   S    
C1    C6    S    
C8    C9    A    
O7    Zn1   S    
C19   H8    S    
C27   H22   S    
