data_mof_unit_853.cif
_audit_creation_date              2013-03-05T15:57:24-0500
_audit_creation_method            fapswitch 2.2
_symmetry_space_group_name_H-M    P1
_symmetry_Int_Tables_number       1
_space_group_crystal_system       triclinic
_cell_length_a                    12.91202
_cell_length_b                    13.023938
_cell_length_c                    15.358987
_cell_angle_alpha                 116.353705
_cell_angle_beta                  64.16444
_cell_angle_gamma                 96.909707
_cell_volume                      2074.50118545

loop_
_atom_site_label
_atom_site_type_symbol
_atom_site_description
_atom_site_fract_x
_atom_site_fract_y
_atom_site_fract_z
_atom_type_partial_charge
C1    C     C_R   0.003422 0.833425 0.051721 -0.189022
H1    H     H_    0.034004 0.894930 0.108619 0.131809
N1    N     N_R   0.037320 0.720000 0.995830 -0.072242
C2    C     C_R   0.679541 0.462923 0.220176 0.306552
N2    N     N_R   0.790770 0.446140 0.151990 -0.083828
C3    C     C_R   0.756551 0.515288 0.889975 -0.037833
H2    H     H_    0.780632 0.537832 0.824286 0.153681
N3    N     N_R   0.824900 0.517970 0.936430 -0.054774
C4    C     C_R   0.016608 0.697977 0.301429 -0.141899
H3    H     H_    0.992491 0.664602 0.360143 0.123891
N4    N     N_R   0.003190 0.648180 0.211390 -0.040628
C5    C     C_R   0.677925 0.419305 0.987839 -0.130715
H4    H     H_    0.634475 0.353409 0.010696 0.179530
N5    N     N_R   0.774330 0.457010 0.995830 -0.066564
C6    C     C_R   0.096805 0.798835 0.207585 -0.134228
H5    H     H_    0.147475 0.859541 0.179614 0.112725
N6    N     N_R   0.053760 0.709130 0.151980 -0.040594
C7    C     C_R   0.782364 0.561912 0.312880 -0.185601
H6    H     H_    0.807619 0.612023 0.377232 0.150932
N7    N     N_R   0.853840 0.498830 0.211390 -0.062658
C8    C     C_R   0.906016 0.750310 0.952228 0.518616
N8    N     N_R   0.974250 0.667320 0.936430 -0.080726
C9    C     C_R   0.918202 0.855517 0.028118 -0.036720
C10   C     C_R   0.672471 0.537241 0.321769 -0.109398
C11   C     C_R   0.664090 0.454917 0.922123 0.058434
C12   C     C_R   0.076031 0.791470 0.299860 0.044022
C13   C     C_R   0.338608 0.516612 0.951623 -0.060605
H7    H     H_    0.397939 0.555713 0.902497 0.095238
N9    N     N_R   0.225670 0.542990 0.004170 -0.050988
C14   C     C_R   0.959021 0.180058 0.781467 -0.118327
H8    H     H_    0.923410 0.111636 0.803849 0.137236
N10   N     N_R   0.946240 0.290870 0.848020 -0.042677
C15   C     C_R   0.202059 0.503355 0.693464 -0.075165
H9    H     H_    0.169871 0.477031 0.633109 0.103840
N11   N     N_R   0.146160 0.501170 0.788610 -0.047493
C16   C     C_R   0.057290 0.253678 0.083372 -0.116778
H10   H     H_    0.096326 0.271742 0.137552 0.102697
N12   N     N_R   0.025750 0.332680 0.063570 -0.044610
C17   C     C_R   0.957114 0.169930 0.988432 -0.092887
H11   H     H_    0.904106 0.110647 0.954406 0.136704
N13   N     N_R   0.962680 0.280000 0.004170 -0.042023
C18   C     C_R   0.301994 0.590005 0.790739 -0.128463
H12   H     H_    0.360360 0.645368 0.820229 0.106846
N14   N     N_R   0.209230 0.553860 0.848010 -0.038323
C19   C     C_R   0.259740 0.417315 0.048809 -0.143054
H13   H     H_    0.250115 0.364241 0.088848 0.129363
N15   N     N_R   0.175100 0.482030 0.063570 -0.049406
C20   C     C_R   0.040764 0.280370 0.684559 -0.121090
H14   H     H_    0.079068 0.304428 0.618914 0.106924
N16   N     N_R   0.996810 0.351820 0.788610 -0.047726
Ni1   Ni    Ni4+2 0.130310 0.630310 0.000000 0.219007
Ni2   Ni    Ni4+2 0.869690 0.369690 0.000000 0.267078
Ni3   Ni    Ni4+2 0.985660 0.509480 0.863750 0.234392
Ni4   Ni    Ni4+2 0.014340 0.490520 0.136250 0.207122
C21   C     C_R   0.362151 0.435211 0.976216 0.157771
C22   C     C_R   0.018952 0.172425 0.679573 0.060149
C23   C     C_R   0.299750 0.558023 0.694072 0.073496
C24   C     C_R   0.017592 0.149055 0.035714 0.062272
H15   H     H_    0.586866 0.690419 0.159173 0.128349
C25   C     C_R   0.405224 0.675985 0.239266 -0.098823
H16   H     H_    0.415510 0.583354 0.207785 0.164991
C26   C     C_R   0.295314 0.735116 0.307531 -0.122013
H17   H     H_    0.222022 0.686819 0.328969 0.116612
C27   C     C_R   0.280612 0.855520 0.348318 0.105330
C28   C     C_R   0.378680 0.915439 0.320837 -0.134173
H18   H     H_    0.369981 0.008041 0.350988 0.137335
C29   C     C_R   0.488592 0.855959 0.252857 -0.070615
H19   H     H_    0.563549 0.902648 0.231640 0.136248
C30   C     C_R   0.501812 0.736320 0.211913 -0.117853
C31   C     C_R   0.144733 0.015324 0.516452 -0.235598
H20   H     H_    0.215269 0.045032 0.539368 0.152338
C32   C     C_R   0.033820 0.072518 0.584657 0.052871
C33   C     C_R   0.939668 0.037372 0.558952 0.094068
C34   C     C_R   0.959129 0.944405 0.462904 -0.172059
H21   H     H_    0.887707 0.915871 0.440794 0.143418
C35   C     C_R   0.068747 0.886215 0.395224 0.057904
C36   C     C_R   0.163663 0.919065 0.420175 0.021791
C37   C     C_R   0.750330 0.069545 0.717104 -0.216239
H22   H     H_    0.788142 0.020871 0.739058 0.221861
C38   C     C_R   0.631363 0.103432 0.773185 0.341452
C39   C     C_R   0.581748 0.157955 0.737631 -0.343331
H23   H     H_    0.489462 0.180769 0.777890 0.211843
C40   C     C_R   0.650127 0.182946 0.650234 0.394761
C41   C     C_R   0.769465 0.149836 0.596274 -0.302885
H24   H     H_    0.822952 0.165210 0.526640 0.171072
C42   C     C_R   0.819826 0.092480 0.628986 0.018033
H25   H     H_    0.996763 0.340333 0.417195 0.120282
C43   C     C_R   0.869112 0.319710 0.357153 -0.089530
H26   H     H_    0.914006 0.241897 0.285766 0.106454
C44   C     C_R   0.764349 0.364152 0.375334 -0.004763
H27   H     H_    0.728665 0.319650 0.317491 0.130488
C45   C     C_R   0.706315 0.465875 0.467949 0.103619
C46   C     C_R   0.753591 0.520491 0.542770 -0.108360
H28   H     H_    0.709921 0.598559 0.614971 0.149803
C47   C     C_R   0.857885 0.475263 0.524437 -0.079054
H29   H     H_    0.893788 0.517910 0.582292 0.132265
C48   C     C_R   0.915855 0.375178 0.431461 -0.141066
C49   C     C_R   0.500734 0.525072 0.581541 -0.177519
H30   H     H_    0.510325 0.493459 0.632513 0.176320
C50   C     C_R   0.393145 0.567847 0.605516 0.015639
C51   C     C_R   0.377143 0.609156 0.541548 0.078937
C52   C     C_R   0.472320 0.600958 0.448777 -0.068101
H31   H     H_    0.463756 0.632709 0.397581 0.148424
C53   C     C_R   0.578842 0.551044 0.421338 0.076036
C54   C     C_R   0.594844 0.515176 0.489367 0.011350
C55   C     C_R   0.208389 0.619903 0.503398 0.506659
C56   C     C_R   0.099027 0.671226 0.537373 -0.487483
H32   H     H_    0.055754 0.637173 0.485001 0.165038
C57   C     C_R   0.044252 0.763982 0.639364 0.450550
C58   C     C_R   0.100918 0.806862 0.706801 -0.215212
H33   H     H_    0.060953 0.878552 0.785682 0.166053
C59   C     C_R   0.209660 0.757481 0.673431 -0.289151
H34   H     H_    0.251408 0.792059 0.727160 0.172390
C60   C     C_R   0.263901 0.663430 0.572343 0.029213
C61   C     C_2   0.475347 0.393711 0.948826 -0.174802
H35   H     H_    0.478182 0.350416 0.993890 0.174271
C62   C     C_2   0.568803 0.432931 0.893176 -0.185356
H36   H     H_    0.566720 0.471761 0.844399 0.151756
C63   C     C_2   0.843600 0.963836 0.083824 -0.216203
H37   H     H_    0.798225 0.980312 0.045670 0.174031
C64   C     C_2   0.824035 0.040929 0.183730 -0.085894
H38   H     H_    0.863331 0.029335 0.228825 0.127796
N17   N     N_R   0.597772 0.382855 0.198330 0.217378
O1    O     O_R   0.633011 0.274967 0.132870 -0.399263
O2    O     O_R   0.488088 0.415473 0.245918 -0.384005
N18   N     N_R   0.560844 0.079905 0.864008 0.246380
O3    O     O_R   0.607460 0.033730 0.899777 -0.344641
O4    O     O_R   0.449581 0.106085 0.912924 -0.411677
N19   N     N_R   0.597959 0.238980 0.614878 0.234765
O5    O     O_R   0.656185 0.244136 0.523518 -0.426888
O6    O     O_R   0.490954 0.282944 0.672382 -0.427837
O7    O     O_3   0.260398 0.525381 0.405370 -0.719233
H39   H     H_    0.210012 0.505401 0.367516 0.310593
N20   N     N_R   0.930844 0.813095 0.675111 0.232057
O8    O     O_R   0.883251 0.783115 0.609030 -0.446208
O9    O     O_R   0.872537 0.885366 0.775198 -0.444033
O10   O     O_3   0.835875 0.730348 0.901101 -0.778824
H40   H     H_    0.792872 0.803877 0.927575 0.346582

loop_
_geom_bond_atom_site_label_1
_geom_bond_atom_site_label_2
_geom_bond_distance
_ccdc_geom_bond_type
N18   O3    1.301678 A    
N11   Ni3   1.869998 S    
C27   C36   1.490124 S    
C43   C44   1.399457 A    
C47   H29   1.082555 S    
C8    O10   1.373454 S    
N6    Ni1   1.893493 S    
C59   C60   1.404172 A    
C39   H23   1.081864 S    
N17   O1    1.301205 A    
C17   N13   1.342146 A    
N2    N7    1.386969 A    
C19   H13   1.077737 S    
C55   O7    1.380375 S    
C5    H4    1.074487 S    
C46   H28   1.083233 S    
C49   C54   1.368843 A    
C34   C35   1.390884 A    
C55   C60   1.409707 A    
C7    C10   1.376833 A    
C25   C26   1.398433 A    
C16   H10   1.079389 S    
C41   C42   1.402899 A    
C40   N19   1.438798 S    
C16   C24   1.388771 A    
C9    C63   1.478904 S    
C14   H8    1.076726 S    
C2    C10   1.391466 A    
C13   C21   1.375559 A    
N17   O2    1.298970 A    
C3    C11   1.375631 A    
C13   N9    1.320792 A    
C55   C56   1.410057 A    
C6    H5    1.081587 S    
C49   H30   1.086611 S    
C6    N6    1.332241 A    
C7    H6    1.079903 S    
C33   C34   1.367384 A    
C58   H33   1.082867 S    
N10   Ni2   1.893494 S    
C26   C27   1.408309 A    
N5    Ni2   1.812136 S    
O7    H39   0.991779 S    
C61   C62   1.337158 D    
N3    N5    1.374105 A    
C56   H32   1.082266 S    
N2    Ni2   1.893798 S    
C31   H20   1.084788 S    
C38   N18   1.440208 S    
C4    H3    1.081579 S    
N13   Ni2   1.811400 S    
C7    N7    1.322164 A    
C43   C48   1.397205 A    
C37   C42   1.400747 A    
C19   N15   1.338734 A    
O10   H40   0.988018 S    
C46   C47   1.397441 A    
C8    N8    1.346591 A    
C31   C36   1.389565 A    
C51   C60   1.486747 S    
C56   C57   1.404734 A    
C18   N14   1.320482 A    
C18   C23   1.365358 A    
C53   C54   1.413284 A    
C39   C40   1.404669 A    
C4    C12   1.362752 A    
N8    Ni3   1.840080 S    
C63   C64   1.334855 D    
N16   Ni3   1.841548 S    
C31   C32   1.399824 A    
C34   H21   1.087336 S    
C29   H19   1.082644 S    
C51   C52   1.386450 A    
C41   H24   1.083509 S    
N12   N13   1.386951 A    
N7    Ni4   1.869999 S    
C17   H11   1.078930 S    
N1    Ni1   1.811400 S    
C37   H22   1.077803 S    
C38   C39   1.404087 A    
C6    C12   1.368539 A    
C3    N3    1.344784 A    
C28   C29   1.399746 A    
C17   C24   1.389860 A    
C14   C22   1.372139 A    
C2    N17   1.431061 S    
C25   H16   1.082387 S    
C1    N1    1.346461 A    
C26   H17   1.081070 S    
C44   C45   1.405994 A    
C40   C41   1.405948 A    
N12   Ni4   1.840081 S    
C15   H9    1.081170 S    
H25   C48   1.082406 S    
C35   C36   1.403391 A    
C52   C53   1.399521 A    
N11   N14   1.386970 A    
C4    N4    1.322349 A    
N10   N16   1.374108 A    
C64   H38   1.085131 S    
N20   O8    1.301628 A    
N4    Ni4   1.841548 S    
H15   C30   1.082727 S    
N15   Ni4   1.868981 S    
N14   Ni1   1.893800 S    
C20   H14   1.080692 S    
N9    N15   1.374104 A    
C1    C9    1.393360 A    
C49   C50   1.390688 A    
C8    C9    1.396733 A    
C18   H12   1.081586 S    
C12   C35   1.407148 S    
N19   O5    1.300287 A    
N9    Ni1   1.812136 S    
C29   C30   1.397490 A    
C20   C22   1.374618 A    
N4    N6    1.374107 A    
N18   O4    1.301662 A    
C22   C32   1.409694 S    
C57   N20   1.437951 S    
C5    N5    1.318433 A    
C32   C33   1.402600 A    
C11   C62   1.439576 S    
N3    Ni3   1.868982 S    
N20   O9    1.301172 A    
C63   H37   1.083427 S    
C47   C48   1.396112 A    
C3    H2    1.080928 S    
C15   C23   1.373461 A    
C59   H34   1.083389 S    
C5    C11   1.363267 A    
C27   C28   1.406918 A    
C16   N12   1.342998 A    
C62   H36   1.083936 S    
C14   N10   1.324946 A    
C23   C50   1.417176 S    
C44   H27   1.082979 S    
C21   C61   1.434452 S    
C25   C30   1.396414 A    
C1    H1    1.079089 S    
C20   N16   1.325993 A    
C45   C46   1.407272 A    
C15   N11   1.330404 A    
C37   C38   1.403109 A    
C52   H31   1.084900 S    
C58   C59   1.394692 A    
C33   C42   1.482457 S    
C45   C54   1.488041 S    
C2    N2    1.329871 A    
C43   H26   1.079866 S    
C19   C21   1.384761 A    
C28   H18   1.083056 S    
C13   H7    1.076571 S    
N1    N8    1.386952 A    
C50   C51   1.403704 A    
C10   C53   1.424556 S    
C57   C58   1.403106 A    
C61   H35   1.082544 S    
N19   O6    1.301781 A    
