data_mof_unit_3151.cif
_audit_creation_date              2012-12-11T15:33:43-0500
_audit_creation_method            fapswitch 2.2
_symmetry_space_group_name_H-M    P1
_symmetry_Int_Tables_number       1
_space_group_crystal_system       triclinic
_cell_length_a                    27.137908
_cell_length_b                    7.206665
_cell_length_c                    22.70968
_cell_angle_alpha                 89.987692
_cell_angle_beta                  101.223759
_cell_angle_gamma                 89.994241
_cell_volume                      4356.47430332

loop_
_atom_site_label
_atom_site_type_symbol
_atom_type_description
_atom_site_fract_x
_atom_site_fract_y
_atom_site_fract_z
_atom_type_partial_charge
O1    O     O_R   0.207310 0.594030 0.676830 -0.527906
O2    O     O_R   0.792690 0.405970 0.323170 -0.527906
O3    O     O_R   0.292690 0.094030 0.823170 -0.527672
O4    O     O_R   0.707310 0.905970 0.176830 -0.527673
O5    O     O_R   0.197320 0.262370 0.795700 -0.552581
O6    O     O_R   0.802680 0.737630 0.204300 -0.552581
O7    O     O_R   0.302680 0.762370 0.704300 -0.552588
O8    O     O_R   0.697320 0.237630 0.295700 -0.552587
C1    C     C_R   0.184411 0.432233 0.811338 0.817667
C2    C     C_R   0.815589 0.567766 0.188662 0.817667
C3    C     C_R   0.315589 0.932242 0.688664 0.817656
C4    C     C_R   0.684411 0.067758 0.311336 0.817657
O9    O     O_R   0.201410 0.264250 0.675590 -0.537549
O10   O     O_R   0.798590 0.735750 0.324410 -0.537549
O11   O     O_R   0.298590 0.764250 0.824410 -0.537692
O12   O     O_R   0.701410 0.235750 0.175590 -0.537691
O13   O     O_R   0.296810 0.094940 0.702210 -0.504817
O14   O     O_R   0.703190 0.905060 0.297790 -0.504818
O15   O     O_R   0.203190 0.594940 0.797790 -0.504800
O16   O     O_R   0.796810 0.405060 0.202210 -0.504799
C5    C     C_R   0.189655 0.432582 0.653505 0.780950
C6    C     C_R   0.810345 0.567418 0.346494 0.780952
C7    C     C_R   0.310348 0.932532 0.846496 0.780851
C8    C     C_R   0.689652 0.067468 0.153503 0.780851
O17   O     O_3   0.281300 0.427390 0.758870 -0.380847
O18   O     O_3   0.718700 0.572610 0.241130 -0.380848
O19   O     O_3   0.218700 0.927390 0.741130 -0.380908
O20   O     O_3   0.781300 0.072610 0.258870 -0.380907
V1    V     V_3+5 0.244190 0.152150 0.748350 1.561795
V2    V     V_3+5 0.755810 0.847850 0.251650 1.561794
V3    V     V_3+5 0.255810 0.652150 0.751650 1.561476
V4    V     V_3+5 0.744190 0.347850 0.248350 1.561477
C9    C     C_R   0.654594 0.062291 0.094986 -0.213814
C10   C     C_R   0.345406 0.937708 0.905014 -0.213815
C11   C     C_R   0.845396 0.562022 0.405010 -0.213752
C12   C     C_R   0.154604 0.437978 0.594990 -0.213752
C13   C     C_R   0.641114 0.101915 0.986811 0.149994
C14   C     C_R   0.358887 0.898076 0.013188 0.149994
C15   C     C_R   0.858776 0.599608 0.513245 0.150043
C16   C     C_R   0.141224 0.400394 0.486755 0.150043
C17   C     C_R   0.672146 0.113162 0.043684 -0.233427
C18   C     C_R   0.327855 0.886830 0.956316 -0.233426
C19   C     C_R   0.827760 0.611510 0.456374 -0.233394
C20   C     C_R   0.172240 0.388492 0.543625 -0.233394
C21   C     C_R   0.603857 0.014785 0.090556 0.682593
C22   C     C_R   0.396143 0.985219 0.909444 0.682595
C23   C     C_R   0.896181 0.515275 0.409395 0.682642
C24   C     C_R   0.103819 0.484723 0.590604 0.682640
C25   C     C_R   0.569297 0.028768 0.034608 -0.076320
C26   C     C_R   0.430703 0.971235 0.965391 -0.076321
C27   C     C_R   0.930697 0.528582 0.465390 -0.076258
C28   C     C_R   0.069303 0.471417 0.534610 -0.076258
C29   C     C_R   0.589657 0.050941 0.981699 -0.180774
C30   C     C_R   0.410344 0.949057 0.018301 -0.180774
C31   C     C_R   0.910282 0.549323 0.518312 -0.180765
C32   C     C_R   0.089718 0.450677 0.481688 -0.180764
C33   C     C_R   0.515641 0.013510 0.028916 -0.235237
C34   C     C_R   0.484359 0.986495 0.971084 -0.235237
C35   C     C_R   0.984366 0.513923 0.471101 -0.235144
C36   C     C_R   0.015634 0.486075 0.528899 -0.235144
C37   C     C_R   0.508210 0.966582 0.921487 0.698035
C38   C     C_R   0.491789 0.033423 0.078512 0.698035
C39   C     C_R   0.991763 0.464790 0.578431 0.698132
C40   C     C_R   0.008237 0.535208 0.421569 0.698132
C41   C     C_R   0.558594 0.011854 0.925721 0.553562
C42   C     C_R   0.441406 0.988146 0.074279 0.553564
C43   C     C_R   0.941344 0.509483 0.574237 0.553619
C44   C     C_R   0.058656 0.490516 0.425762 0.553618
H1    H     H_    0.288835 0.846293 0.951987 0.203590
H2    H     H_    0.711166 0.153694 0.048013 0.203587
H3    H     H_    0.211305 0.348587 0.547916 0.203436
H4    H     H_    0.788695 0.651416 0.452084 0.203437
C45   C     C_R   0.651576 0.931884 0.397416 0.519677
C46   C     C_R   0.348424 0.068118 0.602585 0.519677
C47   C     C_R   0.848456 0.431788 0.102630 0.519566
C48   C     C_R   0.151546 0.568207 0.897371 0.519568
C49   C     C_R   0.615876 0.917367 0.434092 0.547422
C50   C     C_R   0.384125 0.082636 0.565909 0.547422
C51   C     C_R   0.884156 0.417266 0.065956 0.547470
C52   C     C_R   0.115845 0.582728 0.934045 0.547470
C53   C     C_R   0.572349 0.028592 0.423776 -0.341194
C54   C     C_R   0.427651 0.971408 0.576224 -0.341195
C55   C     C_R   0.927651 0.528616 0.076217 -0.341180
C56   C     C_R   0.072349 0.471384 0.923782 -0.341181
C57   C     C_R   0.565371 0.154077 0.375061 0.642641
C58   C     C_R   0.434629 0.845921 0.624939 0.642642
C59   C     C_R   0.934596 0.654236 0.124875 0.642648
C60   C     C_R   0.065403 0.345770 0.875124 0.642648
C61   C     C_R   0.601132 0.169112 0.337508 -0.081252
C62   C     C_R   0.398867 0.830886 0.662491 -0.081249
C63   C     C_R   0.898835 0.669277 0.162427 -0.081285
C64   C     C_R   0.101164 0.330728 0.837572 -0.081290
C65   C     C_R   0.645164 0.057805 0.349114 -0.327021
C66   C     C_R   0.354836 0.942195 0.650886 -0.327021
C67   C     C_R   0.854835 0.557833 0.150879 -0.327010
C68   C     C_R   0.145165 0.442167 0.849120 -0.327009
N1    N     N_R   0.501143 0.152639 0.466377 -0.158553
N2    N     N_R   0.498857 0.847361 0.533623 -0.158552
N3    N     N_R   0.998795 0.652769 0.033525 -0.158508
N4    N     N_R   0.001205 0.347230 0.966475 -0.158511
N5    N     N_R   0.467513 0.139351 0.501905 -0.163733
N6    N     N_R   0.532487 0.860649 0.498095 -0.163735
N7    N     N_R   0.032426 0.639468 0.998000 -0.163700
N8    N     N_R   0.967574 0.360532 0.001999 -0.163698
C69   C     C_R   0.465534 0.986406 0.536435 0.622648
C70   C     C_R   0.534466 0.013594 0.463565 0.622648
C71   C     C_R   0.034467 0.486393 0.963567 0.622633
C72   C     C_R   0.965533 0.513607 0.036432 0.622632
F1    F     F_    0.577227 0.000467 0.874566 -0.617621
F2    F     F_    0.422773 0.999530 0.125433 -0.617621
F3    F     F_    0.922687 0.496759 0.625347 -0.617672
F4    F     F_    0.077313 0.503240 0.374653 -0.617672
F5    F     F_    0.409656 0.061835 0.860326 -0.647093
F6    F     F_    0.590343 0.938173 0.139674 -0.647096
F7    F     F_    0.090211 0.560126 0.639836 -0.647302
F8    F     F_    0.909788 0.439871 0.360164 -0.647300
C73   C     C_3   0.664088 0.149532 0.933256 -0.495957
H5    H     H_    0.667055 0.023026 0.906314 0.254346
H6    H     H_    0.641015 0.256478 0.905343 0.236891
H7    H     H_    0.702611 0.207016 0.946893 0.197056
C74   C     C_3   0.335914 0.850448 0.066744 -0.495955
H8    H     H_    0.332946 0.976949 0.093687 0.254348
H9    H     H_    0.297392 0.792961 0.053106 0.197057
H10   H     H_    0.358988 0.743501 0.094655 0.236887
C75   C     C_3   0.835725 0.645727 0.566856 -0.495828
H11   H     H_    0.832847 0.518603 0.593562 0.254192
H12   H     H_    0.858692 0.752430 0.594979 0.237038
H13   H     H_    0.797156 0.702908 0.553288 0.197156
C76   C     C_3   0.164276 0.354276 0.433144 -0.495830
H14   H     H_    0.167153 0.481401 0.406438 0.254192
H15   H     H_    0.202844 0.297096 0.446712 0.197155
H16   H     H_    0.141309 0.247573 0.405020 0.237039
F9    F     F_    0.484658 0.887059 0.869433 -0.589129
F10   F     F_    0.515342 0.112949 0.130566 -0.589130
F11   F     F_    0.015342 0.384469 0.630350 -0.589170
F12   F     F_    0.984657 0.615529 0.369650 -0.589167
F13   F     F_    0.693468 0.824673 0.410296 -0.652696
F14   F     F_    0.306533 0.175332 0.589705 -0.652696
F15   F     F_    0.806594 0.324445 0.089798 -0.652766
F16   F     F_    0.193408 0.675543 0.910205 -0.652767
F17   F     F_    0.624870 0.796393 0.480794 -0.577583
F18   F     F_    0.375131 0.203613 0.519207 -0.577582
F19   F     F_    0.875195 0.296156 0.019306 -0.577539
F20   F     F_    0.124807 0.703831 0.980697 -0.577540
F21   F     F_    0.523197 0.260195 0.363302 -0.602610
F22   F     F_    0.476802 0.739799 0.636696 -0.602610
F23   F     F_    0.976739 0.760481 0.136578 -0.602609
F24   F     F_    0.023258 0.239530 0.863418 -0.602610
C77   C     C_3   0.590993 0.299068 0.284263 -0.443962
H17   H     H_    0.552330 0.356466 0.276143 0.267256
H18   H     H_    0.617438 0.417975 0.291976 0.188596
H19   H     H_    0.595410 0.223970 0.242895 0.216774
C78   C     C_3   0.409007 0.700927 0.715735 -0.443962
H20   H     H_    0.447669 0.643527 0.723855 0.267254
H21   H     H_    0.404589 0.776023 0.757104 0.216771
H22   H     H_    0.382561 0.582021 0.708021 0.188598
C79   C     C_3   0.908944 0.799404 0.215609 -0.443762
H23   H     H_    0.947590 0.856917 0.223695 0.267220
H24   H     H_    0.882465 0.918228 0.207839 0.188587
H25   H     H_    0.904554 0.724409 0.257016 0.217119
C80   C     C_3   0.091054 0.200608 0.784388 -0.443762
H26   H     H_    0.052408 0.143098 0.776301 0.267223
H27   H     H_    0.095445 0.275607 0.742982 0.217123
H28   H     H_    0.117533 0.081781 0.792156 0.188584

loop_
_geom_bond_atom_site_label_1
_geom_bond_atom_site_label_2
_ccdc_geom_bond_type
C64   C80   S    
O17   V3    S    
N3    N7    A    
C16   C76   S    
C40   F12   S    
O1    C5    A    
C79   H23   S    
C15   C75   S    
C59   C63   A    
O19   V1    S    
C9    C21   A    
C46   C66   A    
O3    C7    A    
C10   C18   A    
N4    N8    A    
C52   C56   A    
O15   V3    S    
C80   H26   S    
C47   C67   A    
C33   C38   A    
C5    C12   S    
O7    C3    A    
C6    C11   S    
C46   F14   S    
C35   C40   A    
C26   C30   A    
N2    C69   A    
C59   F23   S    
C36   C39   A    
C40   C44   A    
C63   C79   S    
O9    V1    S    
C57   F21   S    
C14   C18   A    
C73   H6    S    
O4    C8    A    
O1    V3    S    
C56   C71   S    
O13   V1    S    
C55   C72   S    
C20   H3    S    
O2    V4    S    
C44   F4    S    
C54   C69   S    
O3    V1    S    
C74   H10   S    
C28   C36   A    
C21   F6    S    
C1    O15   A    
C15   C31   A    
C60   C64   A    
C2    O16   A    
C16   C32   A    
O2    C6    A    
C75   H13   S    
C12   C24   A    
C10   C22   A    
C49   C53   A    
C78   H21   S    
C11   C19   A    
C16   C20   A    
C76   H16   S    
C13   C29   A    
C34   C37   A    
O11   C7    A    
C11   C23   A    
C35   C36   A    
O12   C8    A    
C61   C65   A    
C77   H18   S    
O10   V2    S    
C58   F22   S    
C80   H27   S    
C62   C66   A    
O5    V1    S    
C48   F16   S    
C64   C68   A    
N5    C69   A    
C23   F8    S    
C39   C43   A    
C61   C77   S    
O7    V3    S    
C38   C42   A    
C37   F9    S    
C26   C34   A    
C56   C60   A    
C58   C62   A    
C73   H7    S    
C57   C61   A    
O18   V4    S    
C15   C19   A    
C52   F20   S    
N2    N6    A    
C18   H1    S    
O4    V2    S    
C78   H22   S    
C39   F11   S    
O5    C1    A    
N3    C72   A    
C51   F19   S    
C50   C54   A    
C31   C43   A    
C14   C30   A    
C21   C25   A    
O8    C4    A    
C7    C10   S    
C60   F24   S    
O9    C5    A    
C42   F2    S    
C62   C78   S    
C1    C68   S    
C41   F1    S    
C74   H8    S    
C24   F7    S    
O14   V2    S    
N1    C70   A    
C3    C66   S    
C43   F3    S    
O6    V2    S    
C79   H25   S    
C75   H11   S    
C4    C65   S    
C77   H19   S    
C27   C35   A    
N8    C72   A    
C80   H28   S    
C29   C41   A    
N7    C71   A    
C76   H14   S    
O16   V4    S    
C19   H4    S    
C53   C70   S    
C3    O13   A    
N4    C71   A    
C22   F5    S    
C48   C52   A    
C55   C59   A    
O6    C2    A    
C25   C33   A    
C23   C27   A    
O11   V3    S    
C30   C42   A    
O12   V4    S    
C22   C26   A    
C8    C9    S    
C9    C17   A    
C38   F10   S    
C50   F18   S    
C32   C44   A    
C77   H17   S    
C48   C68   A    
C54   C58   A    
O10   C6    A    
C33   C34   A    
O8    V4    S    
C45   F13   S    
C2    C67   S    
C25   C29   A    
C45   C65   A    
O20   V2    S    
N6    C70   A    
C27   C31   A    
C13   C17   A    
N1    N5    A    
C74   H9    S    
C14   C74   S    
C12   C20   A    
C63   C67   A    
C51   C55   A    
C37   C41   A    
C24   C28   A    
C13   C73   S    
C49   F17   S    
C79   H24   S    
C46   C50   A    
C4    O14   A    
C75   H12   S    
C45   C49   A    
C47   F15   S    
C78   H20   S    
C73   H5    S    
C47   C51   A    
C53   C57   A    
C28   C32   A    
C17   H2    S    
C76   H15   S    
