data_mof_unit_893.cif
_audit_creation_date              2012-12-10T19:24:29-0500
_audit_creation_method            fapswitch 2.2
_symmetry_space_group_name_H-M    P1
_symmetry_Int_Tables_number       1
_space_group_crystal_system       triclinic
_cell_length_a                    17.712427
_cell_length_b                    16.52236
_cell_length_c                    10.830078
_cell_angle_alpha                 88.8547
_cell_angle_beta                  92.088335
_cell_angle_gamma                 89.797071
_cell_volume                      3166.66747217

loop_
_atom_site_label
_atom_site_type_symbol
_atom_type_description
_atom_site_fract_x
_atom_site_fract_y
_atom_site_fract_z
_atom_type_partial_charge
C1    C     C_R   0.355457 0.499940 0.504891 0.803092
C2    C     C_R   0.644684 0.499922 0.501195 0.834078
C3    C     C_R   0.885757 0.499173 0.528573 -0.070798
C4    C     C_R   0.115050 0.498732 0.529307 -0.066888
C5    C     C_1   0.966632 0.499385 0.532221 0.097140
C6    C     C_1   0.034304 0.499215 0.532380 0.096145
C7    C     C_R   0.555322 0.825663 0.580755 0.182938
C8    C     C_R   0.458667 0.171731 0.406132 0.218556
C9    C     C_R   0.472761 0.831210 0.397380 0.213037
C10   C     C_R   0.530119 0.168146 0.599441 0.206338
C11   C     C_R   0.550557 0.738459 0.579881 0.472835
C12   C     C_R   0.460562 0.258593 0.407375 0.439759
C13   C     C_R   0.460673 0.746171 0.410460 0.407062
C14   C     C_R   0.534453 0.254375 0.595241 0.428694
C15   C     C_R   0.511760 0.872116 0.492269 -0.140319
C16   C     C_R   0.499435 0.126032 0.497906 -0.198092
C17   C     C_1   0.511098 0.962062 0.490431 0.073614
C18   C     C_1   0.506732 0.036457 0.492131 0.064494
C19   C     C_R   0.508350 0.500866 0.262056 0.803420
C20   C     C_R   0.488918 0.499638 0.736479 0.792856
C21   C     C_R   0.521538 0.653242 0.106675 -0.055162
C22   C     C_R   0.457239 0.352875 0.893721 -0.079258
C23   C     C_R   0.446185 0.646064 0.877678 -0.112827
C24   C     C_R   0.539987 0.354668 0.116469 -0.078958
C25   C     C_R   0.497982 0.724317 0.045109 -0.126225
C26   C     C_R   0.470822 0.281251 0.960552 -0.131000
C27   C     C_R   0.456697 0.720454 0.933920 -0.217162
C28   C     C_R   0.516931 0.281271 0.067035 -0.100310
C29   C     C_R   0.475324 0.573967 0.934235 0.073276
C30   C     C_R   0.514077 0.428607 0.061836 0.058554
C31   C     C_R   0.503982 0.576501 0.057447 0.062636
C32   C     C_R   0.483526 0.427096 0.940208 0.068177
C33   C     C_R   0.476383 0.499796 0.871190 -0.250731
C34   C     C_R   0.515626 0.502732 0.125608 -0.241927
C35   C     C_R   0.846039 0.570946 0.549577 0.403490
C36   C     C_R   0.152705 0.427838 0.496734 0.416172
C37   C     C_R   0.155263 0.570054 0.553305 0.413088
C38   C     C_R   0.847072 0.427042 0.503321 0.410882
C39   C     C_R   0.766947 0.571230 0.536174 -0.299799
C40   C     C_R   0.231832 0.428314 0.492610 -0.316567
C41   C     C_R   0.234301 0.568971 0.550324 -0.306368
C42   C     C_R   0.768111 0.428200 0.490939 -0.306010
C43   C     C_R   0.727683 0.499871 0.508404 -0.152337
C44   C     C_R   0.272744 0.499366 0.515017 -0.144399
Cu1   Cu    Cu3+1 0.500000 0.580420 0.500000 0.996702
Cu2   Cu    Cu3+1 0.500000 0.419580 0.500000 0.989981
H1    H     H_    0.531684 0.224897 0.114715 0.150438
H2    H     H_    0.435791 0.775450 0.888431 0.120036
H3    H     H_    0.445599 0.226046 0.929617 0.137864
H4    H     H_    0.511341 0.782425 0.084265 0.182011
H5    H     H_    0.555739 0.659591 0.190500 0.158040
H6    H     H_    0.422741 0.350301 0.809342 0.140080
H7    H     H_    0.414287 0.645374 0.790586 0.138131
H8    H     H_    0.575951 0.352868 0.199368 0.143348
H9    H     H_    0.736336 0.627213 0.547497 0.203966
H10   H     H_    0.261318 0.373052 0.473051 0.163602
H11   H     H_    0.265356 0.622036 0.578300 0.145801
H12   H     H_    0.738709 0.373287 0.465997 0.160289
N1    N     N_R   0.500000 0.701220 0.500000 -0.279051
N2    N     N_R   0.500000 0.298780 0.500000 -0.283619
O1    O     O_R   0.391260 0.567930 0.500000 -0.581127
O2    O     O_R   0.608740 0.432070 0.500000 -0.586941
O3    O     O_R   0.608740 0.567930 0.500000 -0.526814
O4    O     O_R   0.391260 0.432070 0.500000 -0.573543
O5    O     O_R   0.500000 0.567910 0.319660 -0.541735
O6    O     O_R   0.500000 0.432090 0.680340 -0.526426
O7    O     O_R   0.500000 0.567910 0.680340 -0.556574
O8    O     O_R   0.500000 0.432090 0.319660 -0.522459
O9    O     O_3   0.885637 0.641164 0.576016 -0.569630
C45   C     C_3   0.865579 0.669712 0.692670 0.069728
H13   H     H_    0.863392 0.619643 0.763186 0.132155
H14   H     H_    0.810003 0.701192 0.685181 0.152660
C46   C     C_3   0.924231 0.730285 0.737916 -0.775121
H15   H     H_    0.925634 0.783062 0.672950 0.245560
H16   H     H_    0.909593 0.751908 0.830515 0.195938
H17   H     H_    0.980917 0.701228 0.744834 0.273867
O10   O     O_3   0.111413 0.357684 0.477101 -0.571878
C47   C     C_3   0.124860 0.327233 0.358789 0.063625
H18   H     H_    0.179355 0.293666 0.360270 0.133322
H19   H     H_    0.125240 0.376435 0.286681 0.137285
C48   C     C_3   0.062471 0.268331 0.322872 -0.772177
H20   H     H_    0.006734 0.299388 0.322134 0.282737
H21   H     H_    0.071933 0.244946 0.229243 0.191521
H22   H     H_    0.062451 0.216508 0.389754 0.241494
O11   O     O_3   0.116804 0.639151 0.585986 -0.569737
C49   C     C_3   0.126152 0.700379 0.494833 0.072136
H23   H     H_    0.115718 0.677010 0.399796 0.134310
H24   H     H_    0.183947 0.726323 0.502745 0.124763
C50   C     C_3   0.069658 0.768092 0.513417 -0.779733
H25   H     H_    0.077338 0.792473 0.607854 0.243646
H26   H     H_    0.078286 0.817708 0.444755 0.190343
H27   H     H_    0.011257 0.744770 0.500508 0.282839
O12   O     O_3   0.887249 0.356686 0.483934 -0.570952
C51   C     C_3   0.875808 0.301578 0.582879 0.074396
H28   H     H_    0.817748 0.276162 0.576537 0.131589
H29   H     H_    0.885035 0.330811 0.674183 0.133026
C52   C     C_3   0.931804 0.231998 0.576406 -0.773212
H30   H     H_    0.990440 0.255279 0.585617 0.277020
H31   H     H_    0.922521 0.187655 0.652699 0.193262
H32   H     H_    0.924138 0.201013 0.486777 0.245395
O13   O     O_3   0.616058 0.862129 0.641510 -0.566432
C53   C     C_3   0.592119 0.907140 0.742567 0.042894
H33   H     H_    0.545349 0.877463 0.792483 0.098003
H34   H     H_    0.573634 0.967913 0.709839 0.214655
C54   C     C_3   0.659088 0.918786 0.833083 -0.780119
H35   H     H_    0.708377 0.942346 0.783217 0.263742
H36   H     H_    0.644816 0.962668 0.904774 0.216323
H37   H     H_    0.674872 0.860757 0.880480 0.214742
O14   O     O_3   0.416625 0.132811 0.314691 -0.577813
C55   C     C_3   0.353362 0.094399 0.367520 0.065814
H38   H     H_    0.333060 0.125369 0.450982 0.110048
H39   H     H_    0.368495 0.031201 0.394485 0.161496
C56   C     C_3   0.287272 0.091601 0.273394 -0.868347
H40   H     H_    0.307311 0.078410 0.180112 0.262489
H41   H     H_    0.246975 0.043791 0.301072 0.210420
H42   H     H_    0.256507 0.150257 0.269302 0.217475
O15   O     O_3   0.473990 0.867616 0.280686 -0.551229
C57   C     C_3   0.401282 0.881903 0.228200 0.094040
H43   H     H_    0.361235 0.903856 0.297145 0.112323
H44   H     H_    0.379848 0.826502 0.183012 0.185333
C58   C     C_3   0.407076 0.945591 0.125856 -0.815682
H45   H     H_    0.445054 0.923794 0.054086 0.234532
H46   H     H_    0.430323 0.002525 0.164013 0.295318
H47   H     H_    0.350397 0.957495 0.082029 0.191737
O16   O     O_3   0.551167 0.126471 0.707625 -0.566263
C59   C     C_3   0.484669 0.101800 0.766956 0.091197
H48   H     H_    0.458838 0.048562 0.721041 0.116275
H49   H     H_    0.441155 0.150722 0.764676 0.117839
C60   C     C_3   0.503423 0.077890 0.901226 -0.823642
H50   H     H_    0.545494 0.119990 0.942618 0.269045
H51   H     H_    0.451283 0.079364 0.954997 0.206142
H52   H     H_    0.526204 0.015563 0.907854 0.223888
O17   O     O_3   0.603406 0.687488 0.640946 -0.534393
C61   C     C_3   0.630171 0.712720 0.757881 0.111120
H53   H     H_    0.585141 0.741574 0.810395 0.151182
H54   H     H_    0.679083 0.753476 0.746666 0.194232
C62   C     C_3   0.660306 0.639632 0.832297 -0.836457
H55   H     H_    0.708364 0.611850 0.785364 0.225081
H56   H     H_    0.679986 0.658688 0.925763 0.203416
H57   H     H_    0.615808 0.593461 0.842149 0.266969
O18   O     O_3   0.432364 0.303894 0.306760 -0.531100
C63   C     C_3   0.355261 0.290493 0.278305 0.142170
H58   H     H_    0.322725 0.275482 0.361668 0.097717
H59   H     H_    0.349757 0.241794 0.209800 0.201047
C64   C     C_3   0.321803 0.366119 0.214571 -0.829887
H60   H     H_    0.351274 0.379122 0.127634 0.255487
H61   H     H_    0.260923 0.356732 0.191716 0.180543
H62   H     H_    0.328079 0.419132 0.275010 0.253048
O19   O     O_3   0.418212 0.706617 0.321297 -0.535242
C65   C     C_3   0.341072 0.711011 0.350208 0.077343
H63   H     H_    0.317995 0.773133 0.338879 0.070604
H64   H     H_    0.331888 0.693290 0.447402 0.136875
C66   C     C_3   0.295849 0.656025 0.264360 -0.748610
H65   H     H_    0.317376 0.592926 0.273355 0.250481
H66   H     H_    0.235414 0.656951 0.287800 0.174838
H67   H     H_    0.300925 0.677252 0.167066 0.237169
O20   O     O_3   0.567240 0.294478 0.694008 -0.523915
C67   C     C_3   0.646293 0.282993 0.696746 0.133106
H68   H     H_    0.669892 0.291103 0.603421 0.106265
H69   H     H_    0.661443 0.221592 0.733621 0.175514
C68   C     C_3   0.682845 0.344874 0.781981 -0.789115
H70   H     H_    0.745169 0.336995 0.784742 0.178108
H71   H     H_    0.668789 0.407182 0.748065 0.252245
H72   H     H_    0.662014 0.336681 0.876930 0.250539

loop_
_geom_bond_atom_site_label_1
_geom_bond_atom_site_label_2
_ccdc_geom_bond_type
C27   H2    S    
C4    C36   A    
C28   H1    S    
C59   H48   S    
C29   C33   A    
C48   H22   S    
O15   C57   S    
C9    O15   S    
C46   H15   S    
C64   H62   S    
C20   O7    A    
C42   H12   S    
C61   C62   S    
C48   H20   S    
O10   C47   S    
C7    C11   A    
C54   H36   S    
O20   C67   S    
C22   C32   A    
Cu2   O2    S    
C37   C41   A    
C23   C29   A    
C37   O11   S    
Cu2   O6    S    
C36   O10   S    
C11   O17   S    
C64   H60   S    
C5    C6    T    
C47   H19   S    
C24   H8    S    
C52   H30   S    
C12   O18   S    
C53   C54   S    
C9    C13   A    
C25   H4    S    
C58   H47   S    
C22   C26   A    
C67   C68   S    
C48   H21   S    
C57   H43   S    
C39   H9    S    
C66   H65   S    
C3    C38   A    
C40   H10   S    
C65   C66   S    
Cu1   O7    S    
C68   H71   S    
C45   H13   S    
C23   C27   A    
C66   H66   S    
C10   O16   S    
C51   H29   S    
C60   H52   S    
C7    C15   A    
C8    C16   A    
C67   H69   S    
C46   H16   S    
C63   C64   S    
C51   H28   S    
C11   N1    A    
C64   H61   S    
C23   H7    S    
C24   C30   A    
C62   H57   S    
C30   C34   A    
C14   O20   S    
C53   H33   S    
O13   C53   S    
C36   C40   A    
C4    C6    S    
C52   H31   S    
C26   H3    S    
C49   H23   S    
C61   H54   S    
C59   C60   S    
O11   C49   S    
Cu1   O3    S    
C55   H38   S    
Cu2   O4    S    
C50   H27   S    
C57   C58   S    
C67   H68   S    
C35   C39   A    
Cu2   O8    S    
C21   C31   A    
C1    C44   S    
C3    C35   A    
C2    C43   S    
C8    C12   A    
C45   C46   S    
C17   C18   T    
C31   C34   A    
C19   O8    A    
O12   C51   S    
C54   H37   S    
C66   H67   S    
C53   H34   S    
C62   H56   S    
C55   C56   S    
C58   H45   S    
C8    O14   S    
C20   C33   S    
C57   H44   S    
Cu1   O5    S    
O16   C59   S    
C41   C44   A    
C65   H64   S    
C50   H26   S    
C42   C43   A    
C1    O4    A    
C21   H5    S    
C68   H72   S    
C2    O3    A    
C19   C34   S    
C22   H6    S    
C56   H40   S    
C62   H55   S    
C20   O6    A    
C15   C17   S    
C21   C25   A    
Cu1   N1    S    
C59   H49   S    
C52   H32   S    
Cu2   N2    S    
C47   H18   S    
C24   C28   A    
C3    C5    S    
C49   C50   S    
C1    O1    A    
C39   C43   A    
C38   C42   A    
C61   H53   S    
C13   N1    A    
C25   C27   A    
C14   N2    A    
C54   H35   S    
C26   C28   A    
C51   C52   S    
C32   C33   A    
C56   H42   S    
C60   H50   S    
C41   H11   S    
C29   C31   A    
C10   C16   A    
O19   C65   S    
C30   C32   A    
C47   C48   S    
O17   C61   S    
C68   H70   S    
C38   O12   S    
Cu1   O1    S    
C46   H17   S    
C19   O5    A    
C49   H24   S    
C9    C15   A    
O9    C45   S    
C55   H39   S    
C58   H46   S    
C13   O19   S    
C12   N2    A    
Cu1   Cu2   S    
C40   C44   A    
C4    C37   A    
C35   O9    S    
C16   C18   S    
C7    O13   S    
O14   C55   S    
C63   H58   S    
C65   H63   S    
C45   H14   S    
C56   H41   S    
C50   H25   S    
O18   C63   S    
C63   H59   S    
C2    O2    A    
C10   C14   A    
C60   H51   S    
