data_mof_unit_2217.cif
_audit_creation_date              2012-12-11T17:16:05-0500
_audit_creation_method            fapswitch 2.2
_symmetry_space_group_name_H-M    P1
_symmetry_Int_Tables_number       1
_space_group_crystal_system       triclinic
_cell_length_a                    14.731364
_cell_length_b                    7.281546
_cell_length_c                    13.319821
_cell_angle_alpha                 90.0
_cell_angle_beta                  99.636092
_cell_angle_gamma                 90.000013
_cell_volume                      1408.61969449

loop_
_atom_site_label
_atom_site_type_symbol
_atom_type_description
_atom_site_fract_x
_atom_site_fract_y
_atom_site_fract_z
_atom_type_partial_charge
O1    O     O_R   0.398210 0.494340 0.401550 -0.535686
O2    O     O_R   0.601790 0.994340 0.598450 -0.535686
O3    O     O_R   0.586310 0.821730 0.403360 -0.536860
O4    O     O_R   0.413690 0.321730 0.596640 -0.536860
C1    C     C_R   0.611331 0.655181 0.377414 0.698868
C2    C     C_R   0.388669 0.155181 0.622586 0.698868
O5    O     O_R   0.397970 0.823900 0.389580 -0.528975
O6    O     O_R   0.602030 0.323900 0.610420 -0.528975
O7    O     O_R   0.412100 0.996500 0.584560 -0.547064
O8    O     O_R   0.587900 0.496500 0.415440 -0.547064
C3    C     C_R   0.364245 0.655548 0.364403 0.710999
C4    C     C_R   0.635754 0.155549 0.635597 0.710999
O9    O     O_3   0.504860 0.661550 0.563990 -0.383940
O10   O     O_3   0.495140 0.161550 0.436010 -0.383940
V1    V     V_3+5 0.499100 0.935510 0.488130 1.375864
V2    V     V_3+5 0.500900 0.435510 0.511870 1.375864
C5    C     C_1   0.716824 0.144991 0.715731 -0.185532
C6    C     C_1   0.283176 0.644991 0.284269 -0.185532
C7    C     C_1   0.784521 0.134116 0.782552 -0.183629
C8    C     C_1   0.215479 0.634116 0.217448 -0.183629
C9    C     C_3   0.236559 0.324470 0.820985 -0.357011
C10   C     C_3   0.763442 0.824471 0.179016 -0.357010
H1    H     H_    0.186182 0.434817 0.793613 0.147260
H2    H     H_    0.813819 0.934817 0.206389 0.147262
H3    H     H_    0.262529 0.355658 0.902543 0.139383
H4    H     H_    0.737472 0.855660 0.097457 0.139383
C11   C     C_3   0.315825 0.330704 0.757227 0.196732
C12   C     C_3   0.684175 0.830704 0.242773 0.196730
C13   C     C_3   0.145440 0.099282 0.698507 0.165961
C14   C     C_3   0.854560 0.599280 0.301492 0.165958
C15   C     C_3   0.261462 0.983338 0.844427 -0.433733
C16   C     C_3   0.738538 0.483339 0.155573 -0.433735
C17   C     C_3   0.187339 0.134278 0.812418 0.000796
C18   C     C_3   0.812661 0.634278 0.187582 0.000798
H5    H     H_    0.228956 0.844882 0.838129 0.130199
H6    H     H_    0.771043 0.344883 0.161870 0.130199
C19   C     C_3   0.320435 0.146323 0.697688 0.026006
C20   C     C_3   0.679565 0.646323 0.302312 0.026007
C21   C     C_3   0.223399 0.112582 0.632515 -0.459942
C22   C     C_3   0.776601 0.612582 0.367485 -0.459942
C23   C     C_3   0.339522 0.985533 0.777772 0.169332
C24   C     C_3   0.660478 0.485534 0.222227 0.169332
H7    H     H_    0.335898 0.854418 0.734711 0.098410
H8    H     H_    0.664102 0.354418 0.265289 0.098410
H9    H     H_    0.117017 0.956948 0.692742 0.108986
H10   H     H_    0.882981 0.456945 0.307258 0.108986
H11   H     H_    0.224078 0.983320 0.588001 0.124466
H12   H     H_    0.775921 0.483320 0.411999 0.124466
O11   O     O_R   0.912140 0.786650 0.084610 -0.540205
O12   O     O_R   0.087860 0.286650 0.915390 -0.540206
O13   O     O_R   0.102040 0.454810 0.110430 -0.533731
O14   O     O_R   0.897960 0.954810 0.889570 -0.533731
C25   C     C_R   0.134668 0.623482 0.137007 0.717874
C26   C     C_R   0.865332 0.123482 0.862993 0.717876
O15   O     O_R   0.913690 0.457060 0.096650 -0.542420
O16   O     O_R   0.086310 0.957060 0.903350 -0.542420
O17   O     O_R   0.898200 0.284560 0.901540 -0.531450
O18   O     O_R   0.101800 0.784560 0.098460 -0.531450
C27   C     C_R   0.885154 0.625394 0.117925 0.662755
C28   C     C_R   0.114845 0.125394 0.882075 0.662756
O19   O     O_3   0.995160 0.617270 0.936040 -0.375623
O20   O     O_3   0.004840 0.117270 0.063960 -0.375623
V3    V     V_3+5 0.000900 0.343280 0.011870 1.389871
V4    V     V_3+5 0.999100 0.843280 0.988130 1.389872
N1    N     N_2   0.403675 0.367825 0.822875 -0.493895
H13   H     H_    0.411967 0.308500 0.894122 0.292955
C29   C     C_3   0.433479 0.555494 0.829041 -0.598414
H14   H     H_    0.503089 0.565155 0.876067 0.203251
H15   H     H_    0.384416 0.636552 0.865606 0.192598
H16   H     H_    0.437390 0.607302 0.751663 0.225435
N2    N     N_2   0.596326 0.867825 0.177124 -0.493895
H17   H     H_    0.588033 0.808500 0.105878 0.292954
C30   C     C_3   0.566522 0.055494 0.170959 -0.598414
H18   H     H_    0.496911 0.065154 0.123932 0.203251
H19   H     H_    0.615584 0.136553 0.134393 0.192597
H20   H     H_    0.562610 0.107302 0.248336 0.225435
H21   H     H_    0.299378 0.442983 0.700042 0.105471
H22   H     H_    0.700622 0.942983 0.299958 0.105471
N3    N     N_2   0.071230 0.227784 0.660921 -0.513519
H23   H     H_    0.033517 0.274012 0.714372 0.254874
C31   C     C_3   0.011911 0.174564 0.567451 -0.581793
H24   H     H_    0.962834 0.287506 0.541808 0.197702
H25   H     H_    0.971982 0.049781 0.580382 0.194178
H26   H     H_    0.052688 0.147235 0.506119 0.209575
N4    N     N_2   0.928771 0.727780 0.339079 -0.513521
H27   H     H_    0.966486 0.774001 0.285629 0.254874
C32   C     C_3   0.988089 0.674559 0.432549 -0.581789
H28   H     H_    0.037166 0.787502 0.458193 0.197702
H29   H     H_    0.028018 0.549776 0.419618 0.194177
H30   H     H_    0.947310 0.647226 0.493881 0.209575
H31   H     H_    0.208526 0.225882 0.575985 0.170706
H32   H     H_    0.791473 0.725883 0.424014 0.170706
H33   H     H_    0.289848 0.003382 0.926555 0.150665
H34   H     H_    0.710152 0.503384 0.073445 0.150665
N5    N     N_2   0.428646 0.995422 0.846105 -0.531902
H35   H     H_    0.433002 0.921517 0.912800 0.253694
C33   C     C_3   0.513675 0.990420 0.805701 -0.511197
H36   H     H_    0.572088 0.960823 0.867936 0.169857
H37   H     H_    0.526875 0.126820 0.774801 0.212352
H38   H     H_    0.511967 0.882212 0.747138 0.209446
N6    N     N_2   0.571354 0.495423 0.153895 -0.531902
H39   H     H_    0.566998 0.421517 0.087200 0.253694
C34   C     C_3   0.486324 0.490420 0.194299 -0.511196
H40   H     H_    0.427912 0.460823 0.132064 0.169856
H41   H     H_    0.473125 0.626820 0.225199 0.212352
H42   H     H_    0.488033 0.382212 0.252862 0.209446

loop_
_geom_bond_atom_site_label_1
_geom_bond_atom_site_label_2
_ccdc_geom_bond_type
C16   H34   S    
C32   H28   S    
C3    C6    S    
N6    H39   S    
O15   C27   A    
C30   H19   S    
C30   H18   S    
N5    H35   S    
O1    C3    A    
O2    C4    A    
C33   H38   S    
C2    O7    A    
C33   H36   S    
N4    H27   S    
O5    C3    A    
C16   H6    S    
C20   C24   S    
C9    C17   S    
C13   C17   S    
C33   H37   S    
N1    C29   S    
O15   V3    S    
C4    C5    S    
C15   C17   S    
C12   H22   S    
C6    C8    T    
O5    V1    S    
C9    C11   S    
N6    C34   S    
O11   V4    S    
C10   C12   S    
C1    C20   S    
O12   V3    S    
C23   H7    S    
C24   H8    S    
C21   H31   S    
C31   H25   S    
O14   C26   A    
O17   V3    S    
N4    C32   S    
O18   V4    S    
C10   C18   S    
C14   C18   S    
C29   H14   S    
O13   V3    S    
O4    C2    A    
O14   V4    S    
N3    C31   S    
O3    C1    A    
C15   H33   S    
C31   H24   S    
O16   C28   A    
C13   H9    S    
O13   C25   A    
C16   C18   S    
O4    V2    S    
O19   V4    S    
O20   V3    S    
C11   N1    S    
C13   N3    S    
C12   C20   S    
O6    C4    A    
C13   C21   S    
O16   V4    S    
C2    C19   S    
C14   C22   S    
C34   H41   S    
O1    V2    S    
C22   H32   S    
C14   N4    S    
O2    V1    S    
C7    C26   S    
C17   C28   S    
C32   H29   S    
C18   C27   S    
C30   H20   S    
C10   H2    S    
C32   H30   S    
C12   N2    S    
C24   N6    S    
C31   H26   S    
O3    V1    S    
C21   H11   S    
C22   H12   S    
C9    H3    S    
C15   C23   S    
C14   H10   S    
C8    C25   S    
C11   H21   S    
C25   O18   A    
N5    C33   S    
O11   C27   A    
C29   H16   S    
O12   C28   A    
C9    H1    S    
O7    V1    S    
N2    H17   S    
C19   C21   S    
O8    V2    S    
C20   C22   S    
C23   N5    S    
C11   C19   S    
C5    C7    T    
C34   H42   S    
C15   H5    S    
C19   C23   S    
N3    H23   S    
C1    O8    A    
O6    V2    S    
N1    H13   S    
C10   H4    S    
O9    V2    S    
N2    C30   S    
C34   H40   S    
C16   C24   S    
O10   V1    S    
C29   H15   S    
C26   O17   A    
