data_mof_unit_1080.cif
_audit_creation_date              2012-10-26T19:09:56-0400
_audit_creation_method            fapswitch 2.2
_symmetry_space_group_name_H-M    P1
_symmetry_Int_Tables_number       1
_space_group_crystal_system       triclinic
_cell_length_a                    17.064007
_cell_length_b                    14.734103
_cell_length_c                    9.881843
_cell_angle_alpha                 90.002936
_cell_angle_beta                  90.000396
_cell_angle_gamma                 89.999062
_cell_volume                      2484.52099553

loop_
_atom_site_label
_atom_site_type_symbol
_atom_type_description
_atom_site_fract_x
_atom_site_fract_y
_atom_site_fract_z
_atom_type_partial_charge
C1    C     C_R   0.116759 0.375795 0.500818 0.613056
C2    C     C_R   0.879631 0.617786 0.500070 0.585478
C3    C     C_R   0.379637 0.882206 0.500068 0.585463
C4    C     C_R   0.379626 0.117779 0.499932 0.585464
C5    C     C_3   0.788636 0.283407 0.650164 0.343381
C6    C     C_3   0.820482 0.232964 0.401987 0.394055
C7    C     C_3   0.820488 0.767046 0.597968 0.394057
C8    C     C_3   0.788607 0.716547 0.349821 0.343372
C9    C     C_3   0.320495 0.732960 0.597997 0.394056
C10   C     C_3   0.288651 0.783391 0.349816 0.343409
C11   C     C_3   0.288628 0.216571 0.650183 0.343385
C12   C     C_R   0.116760 0.624203 0.499183 0.613066
C13   C     C_3   0.320480 0.267013 0.402008 0.394063
C14   C     C_3   0.261717 0.657778 0.560290 0.084194
C15   C     C_3   0.214118 0.720576 0.348172 0.097002
C16   C     C_3   0.214103 0.279406 0.651830 0.097010
C17   C     C_3   0.261712 0.342196 0.439728 0.084183
C18   C     C_3   0.714101 0.220592 0.651808 0.097020
C19   C     C_3   0.761709 0.157786 0.439706 0.084213
C20   C     C_3   0.761709 0.842219 0.560248 0.084203
C21   C     C_3   0.714078 0.779372 0.348181 0.097011
C22   C     C_3   0.732578 0.364901 0.451506 -0.233613
C23   C     C_R   0.616754 0.875790 0.499183 0.613062
C24   C     C_3   0.732581 0.635099 0.548534 -0.233612
C25   C     C_3   0.232578 0.864895 0.548480 -0.233616
C26   C     C_3   0.232564 0.135089 0.451510 -0.233623
C27   C     C_3   0.808348 0.316529 0.500819 -0.107333
C28   C     C_3   0.808342 0.683463 0.499175 -0.107324
C29   C     C_3   0.308355 0.816521 0.499167 -0.107313
C30   C     C_3   0.308338 0.183454 0.500833 -0.107332
C31   C     C_3   0.184101 0.698289 0.495646 -0.103351
C32   C     C_3   0.184094 0.301698 0.504354 -0.103355
C33   C     C_3   0.684096 0.198296 0.504342 -0.103371
C34   C     C_R   0.616756 0.124206 0.500818 0.613085
C35   C     C_3   0.684089 0.801694 0.495656 -0.103366
C36   C     C_3   0.161737 0.796264 0.557815 0.397238
C37   C     C_3   0.161724 0.203727 0.442178 0.397239
C38   C     C_3   0.661738 0.296270 0.442162 0.397258
C39   C     C_3   0.661737 0.703730 0.557871 0.397263
C40   C     C_3   0.960995 0.580211 0.079817 0.142895
C41   C     C_3   0.954304 0.576650 0.917179 0.145460
C42   C     C_3   0.954294 0.423362 0.082819 0.145461
C43   C     C_3   0.960982 0.419803 0.920181 0.142914
C44   C     C_3   0.454305 0.076648 0.082828 0.145467
C45   C     C_3   0.082000 0.489523 0.078828 0.507857
C46   C     C_3   0.460986 0.080201 0.920191 0.142849
C47   C     C_3   0.460986 0.919803 0.079803 0.142919
C48   C     C_3   0.454308 0.923357 0.917166 0.145494
C49   C     C_3   0.081999 0.510463 0.921176 0.507852
C50   C     C_3   0.582000 0.010452 0.078838 0.507882
C51   C     C_3   0.582002 0.989559 0.921166 0.507888
C52   C     C_R   0.879633 0.382210 0.499928 0.585469
Cl1   Cl    Cl    0.775217 0.380645 0.761825 -0.427478
Cl2   Cl    Cl    0.916580 0.186605 0.410361 -0.235159
Cl3   Cl    Cl    0.916583 0.813401 0.589538 -0.235179
Cl4   Cl    Cl    0.867242 0.782697 0.281289 -0.295008
Cl5   Cl    Cl    0.416591 0.686597 0.589602 -0.235187
Cl6   Cl    Cl    0.367302 0.717220 0.281356 -0.294894
Cl7   Cl    Cl    0.367282 0.282722 0.718672 -0.294971
Cl8   Cl    Cl    0.416582 0.313362 0.410386 -0.235183
Cl9   Cl    Cl    0.257428 0.571135 0.683674 -0.304467
Cl10  Cl    Cl    0.143701 0.760399 0.229468 -0.188794
Cl11  Cl    Cl    0.143678 0.239599 0.770532 -0.188788
Cl12  Cl    Cl    0.805925 0.261761 0.226117 -0.272937
Cl13  Cl    Cl    0.257438 0.428843 0.316356 -0.304489
Cl14  Cl    Cl    0.643672 0.260418 0.770488 -0.188784
Cl15  Cl    Cl    0.757425 0.071109 0.316369 -0.304510
Cl16  Cl    Cl    0.757438 0.928907 0.683585 -0.304537
Cl17  Cl    Cl    0.643634 0.739541 0.229529 -0.188794
Cl18  Cl    Cl    0.128025 0.793178 0.727203 -0.207199
Cl19  Cl    Cl    0.080798 0.849091 0.474665 -0.247186
Cl20  Cl    Cl    0.080779 0.150909 0.525317 -0.247174
Cl21  Cl    Cl    0.128007 0.206818 0.272781 -0.207168
Cl22  Cl    Cl    0.580805 0.349108 0.525298 -0.247194
Cl23  Cl    Cl    0.805957 0.738277 0.773851 -0.272960
Cl24  Cl    Cl    0.628031 0.293185 0.272768 -0.207150
Cl25  Cl    Cl    0.628045 0.706832 0.727275 -0.207167
Cl26  Cl    Cl    0.580792 0.650881 0.474778 -0.247178
Cl27  Cl    Cl    0.997663 0.682704 0.139897 -0.208055
Cl28  Cl    Cl    0.970676 0.685095 0.839520 -0.212672
Cl29  Cl    Cl    0.970668 0.314914 0.160466 -0.212679
Cl30  Cl    Cl    0.997626 0.317302 0.860092 -0.208057
Cl31  Cl    Cl    0.470690 0.185092 0.160487 -0.212657
Cl32  Cl    Cl    0.497666 0.182688 0.860133 -0.208063
Cl33  Cl    Cl    0.497625 0.817298 0.139879 -0.208049
Cl34  Cl    Cl    0.775175 0.619272 0.238225 -0.427545
Cl35  Cl    Cl    0.470707 0.814920 0.839504 -0.212690
Cl36  Cl    Cl    0.156295 0.554382 0.152133 -0.294484
Cl37  Cl    Cl    0.125993 0.619404 0.889400 -0.190568
Cl38  Cl    Cl    0.125995 0.380578 0.110606 -0.190557
Cl39  Cl    Cl    0.156288 0.445600 0.847876 -0.294494
Cl40  Cl    Cl    0.626021 0.119363 0.110719 -0.190594
Cl41  Cl    Cl    0.656264 0.054484 0.847913 -0.294449
Cl42  Cl    Cl    0.656264 0.945536 0.152097 -0.294500
Cl43  Cl    Cl    0.626027 0.880656 0.889297 -0.190646
Cl44  Cl    Cl    0.305953 0.761775 0.773873 -0.272978
Cl45  Cl    Cl    0.275230 0.880625 0.238171 -0.427472
Cl46  Cl    Cl    0.275199 0.119314 0.761803 -0.427525
Cl47  Cl    Cl    0.305928 0.238199 0.226131 -0.273021
Cl48  Cl    Cl    0.867285 0.217238 0.718622 -0.294918
Cu1   Cu    Cu3+1 0.000100 0.500000 0.642410 1.229701
Cu2   Cu    Cu3+1 0.000100 0.500000 0.357590 1.229704
Cu3   Cu    Cu3+1 0.500100 1.000000 0.642410 1.229710
Cu4   Cu    Cu3+1 0.500100 1.000000 0.357590 1.229707
H1    H     H_    0.290777 0.614981 0.482333 0.176811
H2    H     H_    0.891105 0.566464 0.892521 0.151237
H3    H     H_    0.891097 0.433561 0.107480 0.151266
H4    H     H_    0.900556 0.417628 0.883262 0.190808
H5    H     H_    0.391108 0.066467 0.107490 0.151269
H6    H     H_    0.400562 0.082398 0.883266 0.190839
H7    H     H_    0.400559 0.917634 0.116712 0.190782
H8    H     H_    0.391112 0.933542 0.892494 0.151277
H9    H     H_    0.718605 0.421693 0.520966 0.181901
H10   H     H_    0.742820 0.400166 0.353698 0.212769
H11   H     H_    0.742841 0.599858 0.646356 0.212747
H12   H     H_    0.231746 0.655604 0.303388 0.220854
H13   H     H_    0.718601 0.578292 0.479109 0.181898
H14   H     H_    0.242818 0.900162 0.646298 0.212755
H15   H     H_    0.218602 0.921688 0.479027 0.181896
H16   H     H_    0.218585 0.078295 0.520952 0.181910
H17   H     H_    0.242805 0.099829 0.353693 0.212741
H18   H     H_    0.231735 0.344373 0.696615 0.220849
H19   H     H_    0.290776 0.384983 0.517693 0.176807
H20   H     H_    0.731722 0.155618 0.696585 0.220856
H21   H     H_    0.790774 0.115006 0.517668 0.176835
H22   H     H_    0.790757 0.884991 0.482261 0.176833
H23   H     H_    0.731698 0.844331 0.303374 0.220860
H24   H     H_    0.900569 0.582409 0.116741 0.190828
N1    N     N_3   0.001260 0.500000 0.143650 -0.365986
N2    N     N_3   0.001260 0.500000 0.856350 -0.365976
N3    N     N_3   0.501260 0.000000 0.143650 -0.365985
N4    N     N_3   0.501260 1.000000 0.856350 -0.365982
O1    O     O_R   0.091250 0.408820 0.620260 -0.439192
O2    O     O_R   0.908940 0.408800 0.379740 -0.479518
O3    O     O_R   0.908940 0.591200 0.620260 -0.479543
O4    O     O_R   0.908940 0.591200 0.379740 -0.460007
O5    O     O_R   0.408940 0.908800 0.620260 -0.479541
O6    O     O_R   0.408940 0.908800 0.379740 -0.460009
O7    O     O_R   0.408940 0.091200 0.620260 -0.460001
O8    O     O_R   0.408940 0.091200 0.379740 -0.479522
O9    O     O_R   0.091250 0.408820 0.379740 -0.401730
O10   O     O_R   0.091250 0.591180 0.620260 -0.401721
O11   O     O_R   0.091250 0.591180 0.379740 -0.439190
O12   O     O_R   0.591250 0.908820 0.620260 -0.401718
O13   O     O_R   0.591250 0.908820 0.379740 -0.439200
O14   O     O_R   0.591250 0.091180 0.620260 -0.439179
O15   O     O_R   0.591250 0.091180 0.379740 -0.401718
O16   O     O_R   0.908940 0.408800 0.620260 -0.460008

loop_
_geom_bond_atom_site_label_1
_geom_bond_atom_site_label_2
_ccdc_geom_bond_type
C40   N1    S    
Cu1   O16   S    
C45   N1    S    
Cu1   Cu2   S    
C52   O2    A    
Cu2   N1    S    
C7    Cl3   S    
C14   C31   S    
C44   Cl31  S    
Cu3   O12   S    
C8    Cl4   S    
C41   Cl28  S    
C13   Cl8   S    
C38   Cl24  S    
C44   N3    S    
C6    C19   S    
C23   O13   A    
C24   H13   S    
C11   Cl46  S    
C47   Cl33  S    
C5    Cl1   S    
C10   Cl6   S    
C26   H16   S    
C10   C15   S    
Cu3   O5    S    
C46   N4    S    
C41   N2    S    
C11   Cl7   S    
Cu3   N4    S    
C40   H24   S    
C24   C39   S    
C34   O15   A    
C6    Cl12  S    
C3    C29   S    
C16   H18   S    
C16   Cl11  S    
C5    C27   S    
C20   C35   S    
C17   H19   S    
C14   H1    S    
C47   C48   S    
C11   C30   S    
C36   Cl18  S    
Cu4   N3    S    
C19   Cl15  S    
C3    O5    A    
Cu2   O9    S    
C21   H23   S    
C42   H3    S    
C8    Cl34  S    
C36   Cl19  S    
C9    C29   S    
C44   H5    S    
C52   O16   A    
C25   H14   S    
Cu4   O15   S    
C42   Cl29  S    
C49   Cl39  S    
C1    O1    A    
C25   H15   S    
C44   C46   S    
C33   C34   S    
Cu1   O3    S    
C25   C29   S    
C40   Cl27  S    
C41   H2    S    
C39   Cl26  S    
C13   C30   S    
C45   Cl36  S    
C19   C33   S    
Cu4   O6    S    
C50   Cl42  S    
C7    Cl23  S    
C5    C18   S    
C14   Cl9   S    
C19   H21   S    
C1    C32   S    
C2    O4    A    
C7    C28   S    
Cu4   O8    S    
C2    O3    A    
C21   Cl17  S    
C13   Cl47  S    
C10   Cl45  S    
C35   C39   S    
C9    C14   S    
Cu2   O2    S    
C20   H22   S    
Cu3   O7    S    
C4    O8    A    
Cu1   O10   S    
C6    C27   S    
C5    Cl48  S    
C45   C49   S    
C50   C51   S    
C48   Cl35  S    
C3    O6    A    
C32   C37   S    
C15   C31   S    
C45   Cl38  S    
C9    Cl44  S    
C51   Cl41  S    
C46   Cl32  S    
C50   Cl40  S    
C40   C41   S    
C26   H17   S    
C6    Cl2   S    
C23   C35   S    
C22   C27   S    
C46   H6    S    
C12   C31   S    
C8    C28   S    
C23   O12   A    
C18   Cl14  S    
C42   C43   S    
C39   Cl25  S    
C27   C52   S    
C38   Cl22  S    
C22   H9    S    
C43   Cl30  S    
C37   Cl21  S    
C48   H8    S    
C31   C36   S    
Cu4   O13   S    
C20   Cl16  S    
C43   N2    S    
C24   C28   S    
C49   Cl37  S    
C8    C21   S    
C51   N4    S    
C26   C37   S    
C26   C30   S    
C21   C35   S    
Cu1   O1    S    
C16   C32   S    
C49   N2    S    
C17   Cl13  S    
C33   C38   S    
C12   O11   A    
C13   C17   S    
Cu1   N2    S    
C4    O7    A    
C34   O14   A    
C10   C29   S    
C47   H7    S    
C15   Cl10  S    
C12   O10   A    
C42   N1    S    
C9    Cl5   S    
C43   H4    S    
C18   C33   S    
Cu2   O4    S    
C11   C16   S    
C1    O9    A    
C50   N3    S    
C25   C36   S    
C22   H10   S    
C24   H11   S    
C7    C20   S    
Cu2   O11   S    
C37   Cl20  S    
C47   N3    S    
Cu3   Cu4   S    
C17   C32   S    
C15   H12   S    
C48   N4    S    
C2    C28   S    
C18   H20   S    
C4    C30   S    
Cu3   O14   S    
C51   Cl43  S    
C22   C38   S    
