data_mof_unit_4725.cif
_audit_creation_date              2012-12-11T19:42:25-0500
_audit_creation_method            fapswitch 2.2
_symmetry_space_group_name_H-M    P1
_symmetry_Int_Tables_number       1
_space_group_crystal_system       triclinic
_cell_length_a                    8.282613
_cell_length_b                    15.173541
_cell_length_c                    26.92087
_cell_angle_alpha                 98.697132
_cell_angle_beta                  93.445185
_cell_angle_gamma                 80.889527
_cell_volume                      3299.9631269

loop_
_atom_site_label
_atom_site_type_symbol
_atom_type_description
_atom_site_fract_x
_atom_site_fract_y
_atom_site_fract_z
_atom_type_partial_charge
Ba1   Ba    Ba6+2 0.860050 0.456430 0.522530 1.794611
Ba2   Ba    Ba6+2 0.329780 0.543490 0.477460 1.787569
C1    C     C_3   0.668152 0.142157 0.659880 0.615285
C2    C     C_R   0.946259 0.590344 0.184992 0.661843
C3    C     C_2   0.759058 0.563269 0.272630 -0.061789
C4    C     C_3   0.154950 0.273781 0.656622 0.787524
C5    C     C_3   0.735790 0.591322 0.328332 -0.062482
C6    C     C_1   0.984101 0.483413 0.342188 0.027575
C7    C     C_2   0.017308 0.469825 0.293529 -0.055687
C8    C     C_2   0.900868 0.512970 0.255955 0.215566
C9    C     C_R   0.027100 0.507753 0.102983 -0.149081
C10   C     C_R   0.031993 0.426515 0.123004 -0.022427
C11   C     C_R   0.073910 0.344502 0.091541 -0.051124
C12   C     C_3   0.676278 0.228497 0.637104 0.956811
C13   C     C_R   0.982128 0.590757 0.134073 -0.052938
C14   C     C_2   0.856497 0.539523 0.361335 -0.213326
C15   C     C_2   0.346640 0.478892 0.642169 -0.235087
C16   C     C_3   0.128746 0.254434 0.709339 1.081212
C17   C     C_R   0.180670 0.422186 0.972319 0.034618
C18   C     C_R   0.070075 0.583741 0.978167 -0.031468
C19   C     C_R   0.142892 0.502302 0.949639 -0.000739
C20   C     C_R   0.277529 0.346166 0.945126 0.375279
C21   C     C_R   0.314109 0.347256 0.894805 -0.077059
C22   C     C_R   0.264557 0.423430 0.870844 -0.061376
C23   C     C_3   0.510041 0.706999 0.637185 0.834204
C24   C     C_R   0.180153 0.501608 0.898320 -0.160578
C25   C     C_R   0.134355 0.579418 0.874665 -0.122063
C26   C     C_R   0.172780 0.577088 0.823732 0.670481
C27   C     C_R   0.303007 0.423621 0.820303 0.754874
C28   C     C_3   0.217992 0.266944 0.414097 0.396933
C29   C     C_2   0.456778 0.484784 0.731441 0.437430
C30   C     C_3   0.495235 0.487190 0.676560 -0.032570
C31   C     C_1   0.203927 0.519278 0.658484 0.065015
C32   C     C_2   0.165533 0.519850 0.705770 -0.095173
C33   C     C_2   0.297852 0.499363 0.745043 0.261622
C34   C     C_3   0.562017 0.740946 0.691762 1.399169
C35   C     C_R   0.124500 0.422509 0.021835 0.049586
C36   C     C_R   0.066838 0.505753 0.051722 0.040356
C37   C     C_R   0.046996 0.586854 0.030554 0.010338
C38   C     C_R   0.117441 0.342500 0.042061 -0.035717
C39   C     C_R   0.975038 0.672038 0.113636 0.446027
C40   C     C_3   0.255477 0.165512 0.397888 0.577768
C41   C     C_R   0.021280 0.659633 0.953157 -0.126320
C42   C     C_R   0.051773 0.657653 0.902650 0.673863
C43   C     C_R   0.006079 0.668987 0.062604 -0.145984
C44   C     C_R   0.837712 0.829800 0.459919 0.038827
C45   C     C_3   0.982848 0.761472 0.341969 0.859272
C46   C     C_R   0.772729 0.923248 0.464983 0.063987
C47   C     C_R   0.643125 0.111239 0.479333 0.015773
C48   C     C_R   0.785112 0.077313 0.451799 0.032676
C49   C     C_R   0.850631 0.985799 0.445890 0.021534
C50   C     C_R   0.581330 0.205251 0.488316 0.071601
C51   C     C_R   0.439766 0.234134 0.515650 -0.318073
C52   C     C_3   0.977186 0.735262 0.586270 0.343397
C53   C     C_R   0.610390 0.801023 0.504714 0.022939
C54   C     C_R   0.546819 0.893486 0.511262 -0.069083
C55   C     C_R   0.625379 0.955053 0.490804 0.066916
C56   C     C_3   0.917824 0.827482 0.305434 0.611993
C57   C     C_R   0.407647 0.925509 0.539005 -0.080186
C58   C     C_R   0.336682 0.015269 0.544762 0.385175
C59   C     C_R   0.413591 0.079464 0.525238 -0.075355
C60   C     C_R   0.560732 0.048804 0.498524 -0.042007
C61   C     C_R   0.351620 0.173081 0.532045 0.016709
C62   C     C_R   0.750704 0.769923 0.477614 -0.295204
C63   C     C_3   0.921796 0.836579 0.602999 0.802411
C64   C     C_3   0.692898 0.319968 0.362396 0.880341
C65   C     C_3   0.612460 0.304578 0.309669 0.669484
C66   C     C_3   0.471322 0.781859 0.362832 0.076819
C67   C     C_3   0.441171 0.865876 0.336821 1.366264
C68   C     C_R   0.990035 0.428760 0.173547 0.606071
F1    F     F_    0.815178 0.215948 0.609539 -0.679254
F2    F     F_    0.508923 0.845904 0.289855 -0.670768
F3    F     F_    0.307524 0.299171 0.655873 -0.817526
F4    F     F_    0.000224 0.733605 0.881565 -0.607007
F5    F     F_    0.007246 0.201458 0.708186 -0.673436
F6    F     F_    0.378828 0.146632 0.363770 -0.643516
F7    F     F_    0.929035 0.883270 0.563296 -0.733767
F8    F     F_    0.444047 0.318310 0.312073 -0.640831
F9    F     F_    0.494578 0.830512 0.704307 -0.640699
F10   F     F_    0.505121 0.691364 0.724467 -0.692590
F11   F     F_    0.083043 0.334486 0.740547 -0.720932
F12   F     F_    0.846167 0.908520 0.331330 -0.703545
F13   F     F_    0.275131 0.894524 0.331036 -0.655673
H1    H     H_    0.294338 0.130220 0.430624 -0.128884
H2    H     H_    0.874821 0.742176 0.357731 -0.417948
H3    H     H_    0.018706 0.839912 0.283304 0.125300
H4    H     H_    0.824730 0.799209 0.279073 0.087164
H5    H     H_    0.604983 0.767939 0.371363 0.257401
H6    H     H_    0.408044 0.796102 0.399049 0.034165
H7    H     H_    0.060448 0.329683 0.648053 0.036672
H8    H     H_    0.134086 0.432248 0.281138 0.153852
H9    H     H_    0.071987 0.280898 0.104988 0.141887
H10   H     H_    0.385884 0.288231 0.874604 0.129896
H11   H     H_    0.136785 0.276952 0.019534 0.156558
H12   H     H_    0.144472 0.139709 0.380066 0.031243
H13   H     H_    0.672836 0.595725 0.246541 0.114389
H14   H     H_    0.953762 0.721434 0.971496 0.119408
H15   H     H_    0.039030 0.536356 0.716497 0.131840
H16   H     H_    0.003150 0.732619 0.049136 0.077807
H17   H     H_    0.852855 0.563250 0.401399 0.052776
H18   H     H_    0.356681 0.439315 0.604996 0.064154
H19   H     H_    0.849764 0.120686 0.434792 0.069465
H20   H     H_    0.962336 0.964612 0.425685 0.123446
H21   H     H_    0.348111 0.880935 0.556540 0.122382
H22   H     H_    0.391653 0.305351 0.521643 0.046949
H23   H     H_    0.875471 0.705326 0.565260 -0.115045
H24   H     H_    0.800625 0.699039 0.474377 0.047639
H25   H     H_    0.243235 0.218274 0.724874 0.062444
H26   H     H_    0.329906 0.292763 0.430126 -0.043245
H27   H     H_    0.123101 0.280684 0.442738 -0.077269
H28   H     H_    0.979956 0.859153 0.674205 0.345532
H29   H     H_    0.890276 0.234254 0.347816 0.278468
H30   H     H_    0.731990 0.428266 0.407413 0.285996
H31   H     H_    0.664121 0.058113 0.597996 0.306637
H32   H     H_    0.508420 0.083167 0.686471 0.345139
H33   H     H_    0.293051 0.776260 0.636244 0.339554
H34   H     H_    0.080908 0.726711 0.561179 0.077651
H35   H     H_    0.511068 0.584388 0.602471 0.298227
H36   H     H_    0.776740 0.670880 0.700814 0.303261
H37   H     H_    0.113610 0.643876 0.340015 0.309075
H38   H     H_    0.507889 0.983596 0.345376 0.397686
H39   H     H_    0.683659 0.482264 0.753740 0.333583
H40   H     H_    0.413533 0.228326 0.945192 0.325524
H41   H     H_    0.935247 0.804045 0.123791 0.317473
H42   H     H_    0.158029 0.986880 0.581908 0.378823
H43   H     H_    0.792930 0.848504 0.614707 0.046825
H44   H     H_    0.652260 0.234409 0.291379 0.004663
H45   H     H_    0.648597 0.351802 0.286056 -0.046119
H46   H     H_    0.567725 0.241569 0.611618 -0.062284
H47   H     H_    0.739350 0.144865 0.696294 0.156761
N1    N     N_R   0.946611 0.510171 0.203944 -0.442037
N2    N     N_R   0.256460 0.499817 0.797142 -0.425338
O1    O     O_2   0.906480 0.548660 0.619050 -0.433517
O2    O     O_2   0.174664 0.824970 0.473329 -0.467525
O3    O     O_3   0.086557 0.802873 0.378625 -0.568318
O4    O     O_3   0.138490 0.548590 0.558870 -0.506676
O5    O     O_3   0.572560 0.389960 0.472890 -0.468699
O6    O     O_2   0.345660 0.723580 0.528500 -0.461024
O7    O     O_3   0.559701 0.763057 0.605658 -0.687366
O8    O     O_2   0.421910 0.534241 0.323341 -0.417476
O9    O     O_3   0.412261 0.709243 0.331813 -0.546474
O10   O     O_2   0.990558 0.358184 0.190260 -0.562117
O11   O     O_2   0.377586 0.355615 0.796802 -0.525933
O12   O     O_3   0.642146 0.260390 0.391508 -0.609223
O13   O     O_2   0.915649 0.661731 0.212782 -0.523369
O14   O     O_2   0.134213 0.644349 0.803266 -0.454970
O15   O     O_3   0.686300 0.382310 0.585700 -0.469354
O16   O     O_2   0.831670 0.436830 0.672610 -0.479454
O17   O     O_3   0.024801 0.693002 0.628697 -0.594110
O18   O     O_3   0.681784 0.301039 0.676182 -0.585171
O19   O     O_2   0.844040 0.276390 0.471470 -0.495196
O20   O     O_3   0.101510 0.335500 0.560330 -0.508697
O21   O     O_2   0.012993 0.177033 0.530080 -0.397267
O22   O     O_3   0.022618 0.870985 0.642549 -0.653808
O23   O     O_3   0.142869 0.196313 0.621625 -0.492359
O24   O     O_3   0.862070 0.300478 0.357720 -0.819167
O25   O     O_3   0.645630 0.410675 0.382469 -0.702969
O26   O     O_3   0.738014 0.065121 0.628155 -0.642562
O27   O     O_3   0.505224 0.136077 0.668598 -0.755345
O28   O     O_3   0.339514 0.711530 0.633954 -0.758237
O29   O     O_3   0.587079 0.617781 0.624960 -0.758898
O30   O     O_3   0.732959 0.734451 0.697168 -0.698841
O31   O     O_3   0.072095 0.684770 0.315148 -0.714387
O32   O     O_3   0.513512 0.934530 0.366185 -0.769300
O33   O     O_3   0.579030 0.478500 0.768537 -0.667658
O34   O     O_2   0.283210 0.451310 0.380920 -0.381056
O35   O     O_3   0.348859 0.274648 0.969192 -0.729287
O36   O     O_3   0.935967 0.754209 0.143789 -0.647890
O37   O     O_3   0.192831 0.039454 0.570064 -0.632824
O38   O     O_3   0.051220 0.451340 0.441120 -0.526489
O39   O     O_3   0.503410 0.617620 0.414290 -0.487774
O40   O     O_3   0.163612 0.307166 0.371626 -0.522637
O41   O     O_3   0.617150 0.609960 0.527100 -0.456435
O42   O     O_3   0.088210 0.664420 0.439670 -0.510703
P1    P     P_3+3 0.071950 0.575820 0.612140 1.075306
P2    P     P_3+3 0.664370 0.290050 0.457240 1.047476
P3    P     P_3+3 0.152440 0.220666 0.560139 1.149161
P4    P     P_3+3 0.117760 0.424110 0.387850 1.108517
P5    P     P_3+3 0.045831 0.781261 0.438288 1.002363
P6    P     P_3+3 0.671617 0.402780 0.651578 1.075608
P7    P     P_3+3 0.534134 0.723691 0.541152 0.984758
P8    P     P_3+3 0.519345 0.608780 0.349081 1.012518

loop_
_geom_bond_atom_site_label_1
_geom_bond_atom_site_label_2
_ccdc_geom_bond_type
C34   O30   S    
C53   C54   A    
Ba1   P2    S    
C16   F5    S    
C67   F2    S    
C1    H47   S    
C12   F1    S    
O39   P8    S    
C67   O32   S    
C19   C24   A    
C56   H4    S    
C7    H8    S    
C46   C55   A    
H35   O29   S    
C52   C63   S    
O8    P8    D    
Ba1   O41   S    
C24   C25   A    
C63   O22   S    
C28   H27   S    
C8    N1    S    
C58   O37   S    
C45   H2    S    
C3    H13   S    
C17   C19   A    
C22   C24   A    
C32   C33   S    
C35   C38   A    
C56   F12   S    
Ba2   O41   S    
C36   C37   A    
C27   N2    Am   
C64   O12   S    
C49   H20   S    
C27   O11   D    
C39   O36   S    
Ba1   O38   S    
C23   O7    S    
C16   F11   S    
C54   C55   A    
Ba1   O20   S    
Ba1   Ba2   S    
O20   P3    S    
C59   C61   A    
O6    P7    D    
C15   H18   S    
C22   C27   A    
H31   O26   S    
C11   C38   A    
C17   C35   A    
H37   O31   S    
H41   O36   S    
C9    C13   A    
O15   P6    S    
C46   C49   A    
C29   O33   S    
C23   O29   S    
C66   C67   S    
C1    O26   S    
C21   C22   A    
O34   P4    D    
O2    P5    D    
C52   O17   S    
Ba1   O4    S    
H42   O37   S    
C7    C8    S    
Ba2   O34   S    
C4    O23   S    
O7    P7    S    
Ba2   O39   S    
C37   C43   A    
H40   O35   S    
C64   C65   S    
O4    P1    S    
O41   P7    S    
C57   C58   A    
O16   P6    D    
H39   O33   S    
C1    O27   S    
C12   O18   S    
C65   F8    S    
C15   C31   D    
Ba1   O1    S    
C56   H3    S    
H36   O30   S    
C48   C49   A    
C2    N1    Am   
O21   P3    D    
C4    C16   S    
C44   C46   A    
C68   O10   D    
C63   F7    S    
C52   H23   S    
C28   H26   S    
C40   H12   S    
Ba2   O6    S    
C55   C60   A    
C17   C20   A    
C40   H1    S    
C13   C39   A    
O5    P2    S    
C34   F10   S    
C3    C5    S    
C18   C37   A    
C6    C7    D    
C4    H7    S    
H38   O32   S    
Ba2   O4    S    
C21   H10   S    
C44   C62   A    
C58   C59   A    
C26   N2    Am   
C9    C36   A    
C41   C42   A    
C35   C36   A    
C67   F13   S    
C65   H44   S    
C29   C30   S    
C47   C50   A    
C53   C62   A    
O12   P2    S    
C23   O28   S    
C31   C32   D    
C53   P7    S    
C66   O9    S    
C18   C19   A    
C42   F4    S    
O1    P1    D    
C28   O40   S    
C1    C12   S    
Ba2   O38   S    
C6    P4    S    
C20   O35   S    
C5    C14   S    
O38   P4    S    
C48   H19   S    
C11   H9    S    
C43   H16   S    
C66   H5    S    
C47   C48   A    
C29   C33   D    
Ba1   O15   S    
C57   H21   S    
C18   C41   A    
Ba1   O5    S    
C50   C51   A    
C66   H6    S    
C4    F3    S    
O18   P6    S    
O40   P4    S    
C10   C68   A    
Ba1   P1    S    
O19   P2    D    
C5    P8    S    
C45   O3    S    
C20   C21   A    
Ba2   O5    S    
C26   O14   D    
C44   P5    S    
C14   H17   S    
C41   H14   S    
C38   H11   S    
C34   F9    S    
O9    P8    S    
C9    C10   A    
H33   O28   S    
C40   F6    S    
C61   P3    S    
C54   C57   A    
H30   O25   S    
C63   H43   S    
C2    C13   A    
C45   O31   S    
C3    C8    D    
C65   H45   S    
Ba2   O42   S    
C45   C56   S    
C64   O24   S    
C51   C61   A    
C2    O13   D    
C33   N2    S    
C68   N1    Am   
C32   H15   S    
Ba1   O19   S    
C28   C40   S    
C59   C60   A    
C31   P1    S    
H28   O22   S    
C16   H25   S    
C23   C34   S    
O3    P5    S    
C51   H22   S    
C10   C11   A    
C6    C14   D    
C62   H24   S    
H29   O24   S    
C52   H34   S    
H32   O27   S    
C25   C26   A    
C15   C30   S    
C39   C43   A    
C50   P2    S    
C30   P6    S    
C47   C60   A    
Ba2   P4    S    
O17   P1    S    
C25   C42   A    
O42   P5    S    
C64   O25   S    
O23   P3    S    
C12   H46   S    
