data_mof_unit_944.cif
_audit_creation_date              2012-12-10T18:47:44-0500
_audit_creation_method            fapswitch 2.2
_symmetry_space_group_name_H-M    P1
_symmetry_Int_Tables_number       1
_space_group_crystal_system       triclinic
_cell_length_a                    9.863556
_cell_length_b                    10.664288
_cell_length_c                    15.536677
_cell_angle_alpha                 89.762818
_cell_angle_beta                  69.06288
_cell_angle_gamma                 90.910945
_cell_volume                      1526.08598448

loop_
_atom_site_label
_atom_site_type_symbol
_atom_type_description
_atom_site_fract_x
_atom_site_fract_y
_atom_site_fract_z
_atom_type_partial_charge
C1    C     C_R   0.500792 0.739991 0.499875 0.859949
C2    C     C_R   0.499236 0.260099 0.499765 0.876348
C3    C     C_R   0.352022 0.571360 0.097764 -0.153444
C4    C     C_R   0.651581 0.437936 0.900762 -0.157009
C5    C     C_R   0.251194 0.602674 0.057529 0.083608
C6    C     C_R   0.752334 0.406676 0.941072 0.101728
C7    C     C_R   0.628075 0.938441 0.450146 -0.188717
C8    C     C_R   0.370633 0.061971 0.547236 -0.177439
C9    C     C_R   0.627274 0.067043 0.449964 -0.168490
C10   C     C_R   0.371871 0.933296 0.548189 -0.178217
C11   C     C_R   0.498623 0.127796 0.498655 -0.013457
C12   C     C_R   0.500922 0.872467 0.500058 -0.000999
C13   C     C_R   0.896898 0.414848 0.551958 -0.109862
C14   C     C_R   0.104090 0.584232 0.447777 -0.052070
C15   C     C_R   0.040602 0.415292 0.552779 0.186164
C16   C     C_R   0.960852 0.586092 0.448431 0.165913
C17   C     C_R   0.411339 0.513575 0.674586 0.889151
C18   C     C_R   0.588770 0.487557 0.325223 0.897697
C19   C     C_R   0.362411 0.545357 0.772815 -0.163184
C20   C     C_R   0.638440 0.458934 0.226469 -0.123936
C21   C     C_R   0.181452 0.599445 0.920299 -0.203448
C22   C     C_R   0.821125 0.408426 0.078740 -0.252762
C23   C     C_R   0.217622 0.576299 0.826264 0.057762
C24   C     C_R   0.783811 0.429949 0.173551 0.069418
C25   C     C_R   0.468000 0.552983 0.813897 0.081437
C26   C     C_R   0.533723 0.453055 0.184644 0.065038
C27   C     C_R   0.424747 0.541377 0.909203 0.031602
C28   C     C_R   0.578095 0.466787 0.089438 0.024097
C29   C     C_R   0.283346 0.579639 0.963258 0.051403
C30   C     C_R   0.719676 0.428940 0.035522 0.079797
C31   C     C_R   0.521250 0.498771 0.951312 0.038520
C32   C     C_R   0.482113 0.510197 0.047206 0.036018
H1    H     H_    0.072561 0.629642 0.959098 0.159345
H2    H     H_    0.930087 0.379104 0.039337 0.143183
H3    H     H_    0.327429 0.595424 0.169303 0.179455
H4    H     H_    0.676397 0.413854 0.829214 0.173569
H5    H     H_    0.726060 0.891060 0.409854 0.139108
H6    H     H_    0.271625 0.109848 0.585631 0.151774
H7    H     H_    0.725725 0.118951 0.411083 0.161838
H8    H     H_    0.273305 0.881419 0.586895 0.149280
H9    H     H_    0.817242 0.347233 0.593653 0.144417
H10   H     H_    0.183790 0.652395 0.406849 0.154526
N1    N     N_R   0.142780 0.500030 0.500020 -0.090362
N2    N     N_R   0.857220 0.499970 0.499980 -0.091753
O1    O     O_R   0.385370 0.683250 0.500010 -0.632130
O2    O     O_R   0.614630 0.316750 0.499990 -0.624078
O3    O     O_R   0.614700 0.683220 0.500000 -0.625223
O4    O     O_R   0.385300 0.316780 0.500000 -0.584252
O5    O     O_R   0.319830 0.500020 0.632250 -0.620134
O6    O     O_R   0.680170 0.499980 0.367750 -0.628118
O7    O     O_R   0.549160 0.499990 0.632240 -0.580990
O8    O     O_R   0.450840 0.500010 0.367760 -0.587870
Zn1   Zn    Zn3+2 0.346870 0.500020 0.500000 0.976653
Zn2   Zn    Zn3+2 0.653130 0.499980 0.500000 0.962696
N3    N     N_3   0.121626 0.664654 0.112661 -0.465456
H11   H     H_    0.032066 0.613419 0.110427 0.173769
H12   H     H_    0.121085 0.752981 0.083348 0.198236
N4    N     N_3   0.882111 0.345056 0.885849 -0.479132
H13   H     H_    0.883160 0.256754 0.915065 0.193524
H14   H     H_    0.971528 0.396693 0.887871 0.192346
I1    I     I_    0.331514 0.351042 0.251252 -0.372955
I2    I     I_    0.669157 0.655512 0.745377 -0.378419
N5    N     N_3   0.888154 0.409023 0.217095 -0.419946
H15   H     H_    0.984187 0.373639 0.169980 0.199227
H16   H     H_    0.915656 0.495553 0.238021 0.202858
N6    N     N_3   0.109533 0.597518 0.786231 -0.438464
H17   H     H_    0.089683 0.514550 0.757019 0.217620
H18   H     H_    0.148755 0.666148 0.734589 0.208032
N7    N     N_3   0.079235 0.326929 0.609003 -0.410565
H19   H     H_    0.009724 0.338822 0.677233 0.170665
H20   H     H_    0.059802 0.236994 0.588851 0.166324
N8    N     N_3   0.926027 0.685119 0.398562 -0.474313
H21   H     H_    0.866067 0.649922 0.360674 0.222846
H22   H     H_    0.865578 0.749622 0.446584 0.210250

loop_
_geom_bond_atom_site_label_1
_geom_bond_atom_site_label_2
_ccdc_geom_bond_type
N6    H18   S    
N3    H11   S    
N5    H16   S    
C14   C16   A    
C17   O7    A    
C27   C29   A    
N8    H22   S    
N4    H14   S    
C6    N4    S    
C9    H7    S    
C26   C28   A    
C31   C32   A    
C16   N8    S    
C13   C15   A    
C3    H3    S    
C14   H10   S    
O7    Zn2   S    
C2    O4    A    
O2    Zn2   S    
N8    H21   S    
C13   H9    S    
N6    H17   S    
C7    H5    S    
C18   O8    A    
C10   H8    S    
O6    Zn2   S    
C4    H4    S    
C2    O2    A    
C9    C11   A    
C1    O1    A    
O4    Zn1   S    
C1    C12   S    
C20   C26   A    
C8    H6    S    
C8    C11   A    
C15   N7    S    
C2    C11   S    
C10   C12   A    
C23   N6    S    
C28   C30   A    
C6    C30   A    
C26   I1    S    
C5    N3    S    
C24   N5    S    
C5    C29   A    
C25   I2    S    
N3    H12   S    
N7    H19   S    
N1    Zn1   S    
C3    C32   A    
C22   H2    S    
C22   C24   A    
C7    C12   A    
C4    C31   A    
C25   C27   A    
C19   C25   A    
C15   N1    A    
N5    H15   S    
N2    Zn2   S    
N7    H20   S    
C28   C32   A    
C21   H1    S    
O8    Zn1   S    
C27   C31   A    
C18   C20   S    
C8    C10   A    
C4    C6    A    
C17   O5    A    
C7    C9    A    
C16   N2    A    
C19   C23   A    
C1    O3    A    
C18   O6    A    
O5    Zn1   S    
C22   C30   A    
C17   C19   S    
N4    H13   S    
C21   C29   A    
C21   C23   A    
O1    Zn1   S    
C13   N2    A    
C20   C24   A    
O3    Zn2   S    
C14   N1    A    
C3    C5    A    
