data_mof_unit_1898.cif
_audit_creation_date              2012-12-11T14:36:01-0500
_audit_creation_method            fapswitch 2.2
_symmetry_space_group_name_H-M    P1
_symmetry_Int_Tables_number       1
_space_group_crystal_system       triclinic
_cell_length_a                    14.428916
_cell_length_b                    16.159691
_cell_length_c                    6.976724
_cell_angle_alpha                 89.896289
_cell_angle_beta                  80.823131
_cell_angle_gamma                 89.894005
_cell_volume                      1605.91484704

loop_
_atom_site_label
_atom_site_type_symbol
_atom_type_description
_atom_site_fract_x
_atom_site_fract_y
_atom_site_fract_z
_atom_type_partial_charge
O1    O     O_R   0.337460 0.413110 0.524760 -0.541127
O2    O     O_R   0.662540 0.913110 0.475240 -0.535919
O3    O     O_R   0.348690 0.587910 0.191230 -0.532666
O4    O     O_R   0.651310 0.087910 0.808770 -0.531000
O5    O     O_R   0.166530 0.586890 0.082470 -0.554970
O6    O     O_R   0.833470 0.086890 0.917530 -0.552573
C1    C     C_R   0.373463 0.614371 0.352499 0.700163
C2    C     C_R   0.626509 0.114299 0.647397 0.722970
O7    O     O_R   0.348700 0.413830 0.191250 -0.532350
O8    O     O_R   0.651300 0.913830 0.808750 -0.530308
O9    O     O_R   0.166530 0.411570 0.082490 -0.545237
O10   O     O_R   0.833470 0.911570 0.917510 -0.538811
C3    C     C_R   0.371756 0.386194 0.353171 0.745611
C4    C     C_R   0.628279 0.886122 0.646925 0.753467
O11   O     O_R   0.337460 0.588430 0.524740 -0.545809
O12   O     O_R   0.662540 0.088430 0.475260 -0.537779
O13   O     O_3   0.192230 0.499460 0.407330 -0.369552
O14   O     O_3   0.807770 0.999460 0.592670 -0.385618
V1    V     V_3+5 0.263080 0.500100 0.108540 1.469658
V2    V     V_3+5 0.736920 0.000100 0.891460 1.505277
O15   O     O_R   0.155290 0.412090 0.756570 -0.530611
O16   O     O_R   0.844710 0.912090 0.243430 -0.552495
C5    C     C_R   0.134103 0.382112 0.931359 0.710811
C6    C     C_R   0.866242 0.882150 0.068417 0.760468
O17   O     O_R   0.155290 0.586170 0.756550 -0.519317
O18   O     O_R   0.844710 0.086170 0.243450 -0.529723
C7    C     C_R   0.131631 0.613930 0.933297 0.731785
C8    C     C_R   0.867983 0.114507 0.065625 0.745961
V3    V     V_3+5 0.240910 0.499900 0.616030 1.482335
V4    V     V_3+5 0.759090 0.999900 0.383970 1.461672
O19   O     O_3   0.311760 0.500540 0.867100 -0.363779
O20   O     O_3   0.688240 0.000540 0.132900 -0.360012
C9    C     C_3   0.113715 0.767542 0.003894 -0.016401
C10   C     C_3   0.960226 0.207730 0.802396 -0.016219
H1    H     H_    0.167735 0.774734 0.872824 0.143514
H2    H     H_    0.891723 0.213527 0.750712 0.147729
C11   C     C_3   0.044442 0.845114 0.024425 0.154377
C12   C     C_3   0.016007 0.292753 0.770394 0.160813
H3    H     H_    0.017451 0.648522 0.274196 0.150996
H4    H     H_    0.059541 0.099047 0.013303 0.190794
C13   C     C_3   0.984469 0.665346 0.146490 -0.328497
C14   C     C_3   0.035232 0.158458 0.083094 -0.261239
C15   C     C_3   0.009528 0.699692 0.790643 0.037411
C16   C     C_3   0.903368 0.264512 0.141289 -0.027451
C17   C     C_3   0.061058 0.684794 0.969102 -0.051254
C18   C     C_3   0.940037 0.184647 0.025321 -0.019354
H5    H     H_    0.063030 0.720449 0.666813 0.146350
H6    H     H_    0.844409 0.289565 0.073936 0.166722
C19   C     C_3   0.938959 0.811479 0.036525 -0.028223
C20   C     C_3   0.064654 0.309386 0.960002 -0.055627
C21   C     C_3   0.914471 0.739451 0.195072 0.424208
C22   C     C_3   0.112519 0.227116 0.032233 0.398878
C23   C     C_3   0.934998 0.769869 0.835483 -0.471810
C24   C     C_3   0.982103 0.331496 0.126217 -0.417616
H7    H     H_    0.948590 0.817337 0.720562 0.174371
H8    H     H_    0.951770 0.393323 0.103072 0.145795
H9    H     H_    0.863296 0.747590 0.824938 0.175113
H10   H     H_    0.008454 0.337599 0.265596 0.209549
H11   H     H_    0.946932 0.607632 0.119805 0.134542
H12   H     H_    0.023536 0.143570 0.239339 0.120109
H13   H     H_    0.604943 0.775212 0.384369 0.191903
H14   H     H_    0.395229 0.275285 0.615894 0.173193
H15   H     H_    0.412255 0.716903 0.625194 0.151261
H16   H     H_    0.587858 0.217045 0.374717 0.155712
C25   C     C_2   0.452748 0.674179 0.337759 -0.177326
C26   C     C_2   0.547220 0.174076 0.662065 -0.185300
C27   C     C_2   0.464786 0.720237 0.495026 -0.164245
C28   C     C_2   0.535282 0.220278 0.504840 -0.164183
H17   H     H_    0.498629 0.821870 0.783941 0.173411
H18   H     H_    0.501434 0.322036 0.216107 0.171582
C29   C     C_2   0.552596 0.824012 0.656316 -0.328373
C30   C     C_2   0.447478 0.324132 0.343757 -0.334313
C31   C     C_2   0.546951 0.774652 0.503620 -0.092249
C32   C     C_2   0.453109 0.274698 0.496451 -0.093029
N1    N     N_3   0.167797 0.762831 0.166082 -0.638690
H19   H     H_    0.130292 0.734738 0.288717 0.247876
H20   H     H_    0.229778 0.729358 0.124218 0.228310
N2    N     N_3   0.010932 0.139507 0.689929 -0.645136
H21   H     H_    0.966457 0.089273 0.684729 0.279506
H22   H     H_    0.027955 0.155648 0.544718 0.248688
N3    N     N_3   0.817059 0.710849 0.197912 -0.684640
H23   H     H_    0.797306 0.673277 0.319933 0.242995
H24   H     H_    0.811175 0.673365 0.078966 0.213340
N4    N     N_3   0.152244 0.244239 0.209379 -0.661337
H25   H     H_    0.172666 0.188377 0.266624 0.245461
H26   H     H_    0.214839 0.277307 0.175001 0.230951
C33   C     C_2   0.520913 0.675886 0.152987 0.754994
O21   O     O_2   0.539856 0.611727 0.062269 -0.555711
O22   O     O_R   0.562252 0.750016 0.080526 -0.668259
H27   H     H_    0.612206 0.741098 0.962665 0.289294
C34   C     C_2   0.479064 0.175737 0.846790 0.769703
O23   O     O_2   0.459538 0.111406 0.936760 -0.545374
O24   O     O_R   0.438521 0.250046 0.920141 -0.674563
H28   H     H_    0.388922 0.241205 0.038604 0.288771
C35   C     C_2   0.068427 0.904053 0.849209 0.668317
O25   O     O_2   0.025179 0.968885 0.847559 -0.587104
O26   O     O_R   0.136882 0.884816 0.689667 -0.672472
H29   H     H_    0.143383 0.929111 0.585269 0.315508
C36   C     C_2   0.947433 0.364456 0.741717 0.666217
O27   O     O_2   0.977559 0.434878 0.714025 -0.546046
O28   O     O_R   0.851241 0.351085 0.746954 -0.700473
H30   H     H_    0.815648 0.403683 0.726430 0.298438
N5    N     N_3   0.055595 0.893570 0.198557 -0.662603
H31   H     H_    0.012980 0.946232 0.210666 0.226783
H32   H     H_    0.124470 0.915792 0.184428 0.260233
N6    N     N_3   0.084705 0.287938 0.588964 -0.672507
H33   H     H_    0.152579 0.274774 0.610799 0.231070
H34   H     H_    0.089727 0.342792 0.508587 0.269444
N7    N     N_3   0.921387 0.766424 0.392770 -0.708219
H35   H     H_    0.986947 0.789941 0.405375 0.268741
H36   H     H_    0.867436 0.806358 0.451072 0.259418
N8    N     N_3   0.190054 0.194448 0.889039 -0.674624
H37   H     H_    0.167244 0.163710 0.774158 0.277674
H38   H     H_    0.237231 0.241422 0.837287 0.199804
N9    N     N_3   0.967409 0.623196 0.730062 -0.599873
H39   H     H_    0.906658 0.608058 0.825837 0.237104
H40   H     H_    0.946278 0.633268 0.595758 0.251872
N10   N     N_3   0.864727 0.246863 0.344070 -0.654037
H41   H     H_    0.919443 0.234166 0.420380 0.257447
H42   H     H_    0.830733 0.300106 0.404493 0.257562

loop_
_geom_bond_atom_site_label_1
_geom_bond_atom_site_label_2
_ccdc_geom_bond_type
C26   C28   D    
C33   O21   D    
C2    C26   S    
O24   H28   S    
O11   V3    S    
C9    C17   S    
C4    C29   S    
C35   O25   D    
O4    C2    A    
V1    O19   S    
C19   C21   S    
N8    H38   S    
O26   H29   S    
H3    C13   S    
C8    C18   S    
C20   C24   S    
H16   C28   S    
N4    H26   S    
O3    C1    A    
N7    H36   S    
C24   H10   S    
N2    H22   S    
C25   C27   D    
N6    H33   S    
C22   N8    S    
C28   C32   S    
N9    H39   S    
O13   V3    S    
C11   C35   S    
H17   C29   S    
O7    V1    S    
C14   C18   S    
C22   N4    S    
O7    C3    A    
N10   H41   S    
C15   N9    S    
O5    C7    A    
C15   C23   S    
O6    C8    A    
O8    V2    S    
N9    H40   S    
C20   C22   S    
O3    V1    S    
C10   C18   S    
C15   H5    S    
C21   N3    S    
C10   H2    S    
C7    C17   S    
H4    C14   S    
C2    O12   A    
N8    H37   S    
N3    H24   S    
C16   C18   S    
C25   C33   S    
C24   H8    S    
C23   H7    S    
O17   V3    S    
H15   C27   S    
C12   C20   S    
O28   H30   S    
N4    H25   S    
C13   H11   S    
C30   C32   D    
O8    C4    A    
C14   H12   S    
C34   O23   D    
C29   C31   D    
C23   H9    S    
N2    H21   S    
O13   V1    S    
C5    C20   S    
C1    O11   A    
H13   C31   S    
O15   V3    S    
N3    H23   S    
C12   N6    S    
N1    H19   S    
C34   O24   S    
C11   C19   S    
C36   O27   D    
C16   N10   S    
O9    V1    S    
O10   V2    S    
O1    V3    S    
N5    H32   S    
C15   C17   S    
C27   C31   S    
N10   H42   S    
C36   O28   S    
O18   V4    S    
O15   C5    A    
O14   V4    S    
O16   C6    A    
O1    C3    A    
C11   N5    S    
V2    O20   S    
C6    C19   S    
O16   V4    S    
C10   C12   S    
C1    C25   S    
C12   C36   S    
C35   O26   S    
C26   C34   S    
O5    V1    S    
C3    C30   S    
O17   C7    A    
O6    V2    S    
O10   C6    A    
O18   C8    A    
O2    V4    S    
C33   O22   S    
V3    O19   S    
N7    H35   S    
C10   N2    S    
V4    O20   S    
N6    H34   S    
C19   C23   S    
O9    C5    A    
C9    H1    S    
O14   V2    S    
O2    C4    A    
C9    C11   S    
O4    V2    S    
C16   C24   S    
C21   N7    S    
N1    H20   S    
N5    H31   S    
C13   C17   S    
C9    N1    S    
H14   C32   S    
H18   C30   S    
O22   H27   S    
O12   V4    S    
C13   C21   S    
C16   H6    S    
C14   C22   S    
