data_mof_unit_1180.cif
_audit_creation_date              2012-12-11T16:29:32-0500
_audit_creation_method            fapswitch 2.2
_symmetry_space_group_name_H-M    P1
_symmetry_Int_Tables_number       1
_space_group_crystal_system       triclinic
_cell_length_a                    6.954403
_cell_length_b                    17.194698
_cell_length_c                    18.894834
_cell_angle_alpha                 106.253473
_cell_angle_beta                  90.219684
_cell_angle_gamma                 90.78869
_cell_volume                      2168.84506483

loop_
_atom_site_label
_atom_site_type_symbol
_atom_type_description
_atom_site_fract_x
_atom_site_fract_y
_atom_site_fract_z
_atom_type_partial_charge
O1    O     O_R   0.494360 0.415680 0.413760 -0.519600
O2    O     O_R   0.818810 0.432910 0.557230 -0.535222
O3    O     O_R   0.994290 0.584320 0.586240 -0.549951
C1    C     C_R   0.650307 0.416683 0.581232 0.755433
O4    O     O_R   0.823740 0.406440 0.412520 -0.535784
O5    O     O_R   0.999250 0.557660 0.440500 -0.509093
C2    C     C_R   0.653727 0.383160 0.385156 0.882495
O6    O     O_R   0.489400 0.442340 0.559500 -0.511044
O7    O     O_3   0.662500 0.549650 0.509350 -0.340467
V1    V     V_3+5 0.935340 0.490790 0.498270 1.567521
O8    O     O_R   0.329270 0.567090 0.442770 -0.499530
C3    C     C_R   0.161018 0.583313 0.418756 0.787554
O9    O     O_R   0.324340 0.593560 0.587480 -0.496614
C4    C     C_R   0.157487 0.618550 0.613863 0.844598
V2    V     V_3+5 0.435970 0.509210 0.501730 1.649981
O10   O     O_3   0.158940 0.450350 0.490650 -0.374443
C5    C     C_R   0.225634 0.591313 0.759657 0.258007
C6    C     C_R   0.237848 0.576854 0.829475 0.231704
C7    C     C_R   0.165141 0.634027 0.891422 0.322191
C8    C     C_R   0.098710 0.708289 0.885059 0.234639
C9    C     C_R   0.127005 0.731417 0.818961 -0.135980
C10   C     C_R   0.170439 0.669281 0.753367 -0.065073
C11   C     C_R   0.106268 0.813290 0.816327 -0.040353
C12   C     C_R   0.094950 0.830626 0.746635 -0.065342
C13   C     C_R   0.138250 0.768474 0.681036 -0.135991
C14   C     C_R   0.159130 0.686616 0.683674 -0.038186
C15   C     C_R   0.039805 0.908602 0.740341 0.256970
C16   C     C_R   0.027031 0.922974 0.670502 0.226291
C17   C     C_R   0.099345 0.865738 0.608510 0.321602
C18   C     C_R   0.166180 0.791555 0.614901 0.240088
C19   C     C_1   0.112201 0.864595 0.133222 -0.104926
C20   C     C_1   0.119528 0.821793 0.176589 0.083864
C21   C     C_1   0.128579 0.771246 0.228192 0.083386
C22   C     C_1   0.136324 0.728676 0.271759 0.091672
C23   C     C_1   0.145486 0.678161 0.323383 0.125658
C24   C     C_1   0.152932 0.635392 0.366773 -0.033197
C25   C     C_1   0.642231 0.364792 0.633328 -0.184646
C26   C     C_1   0.637914 0.322078 0.676791 0.051309
C27   C     C_1   0.634196 0.271569 0.728446 0.067221
C28   C     C_1   0.631374 0.228958 0.772016 0.075468
C29   C     C_1   0.627652 0.178353 0.823586 0.086554
C30   C     C_1   0.623291 0.135493 0.866920 -0.106864
C31   C     C_R   0.697502 0.413372 0.238440 0.257860
C32   C     C_R   0.724644 0.425436 0.168749 0.313895
C33   C     C_R   0.668790 0.364405 0.105650 0.290538
C34   C     C_R   0.600440 0.290110 0.112588 0.230355
C35   C     C_R   0.623936 0.269249 0.180064 -0.111510
C36   C     C_R   0.655588 0.333592 0.245978 -0.130964
C37   C     C_R   0.618289 0.186872 0.182841 -0.056476
C38   C     C_R   0.619580 0.168911 0.252440 -0.084141
C39   C     C_R   0.612662 0.234083 0.318834 -0.084904
C40   C     C_R   0.639750 0.316115 0.315653 -0.068212
C41   C     C_R   0.623937 0.087149 0.257544 0.259842
C42   C     C_R   0.617238 0.071392 0.326677 0.207289
C43   C     C_R   0.579387 0.134398 0.390373 0.213853
C44   C     C_R   0.578301 0.215298 0.387049 0.266496
O11   O     O_R   0.775690 0.057750 0.940570 -0.522902
O12   O     O_R   0.441200 0.093570 0.087490 -0.515795
O13   O     O_R   0.265840 0.942320 0.059480 -0.534764
C45   C     C_R   0.610887 0.119404 0.112960 0.856877
O14   O     O_R   0.446270 0.067110 0.942790 -0.510511
O15   O     O_R   0.270950 0.915660 0.913750 -0.550841
C46   C     C_R   0.614946 0.083376 0.918816 0.764386
O16   O     O_R   0.770580 0.084400 0.086300 -0.533799
O17   O     O_3   0.602640 0.950400 0.990690 -0.354684
V3    V     V_3+5 0.329740 0.009200 0.001730 1.587466
O18   O     O_R   0.940900 0.906360 0.912450 -0.496186
C47   C     C_R   0.107807 0.881358 0.886133 0.848637
O19   O     O_R   0.935830 0.932820 0.057160 -0.498419
C48   C     C_R   0.104096 0.916677 0.081239 0.761166
V4    V     V_3+5 0.829130 0.990680 0.998180 1.623149
O20   O     O_3   0.106100 0.049590 0.009310 -0.357284
Cl1   Cl    Cl    0.119980 0.888875 0.523059 -0.553123
Cl2   Cl    Cl    0.713344 0.504263 0.311300 -0.610889
O21   O     O_3   0.790544 0.500600 0.165205 -0.572577
H1    H     H_    0.834129 0.497295 0.114731 0.370042
Cl3   Cl    Cl    0.663655 0.383397 0.018137 -0.494779
Cl4   Cl    Cl    0.438553 0.237544 0.042998 -0.590531
O22   O     O_3   0.644666 0.022987 0.194815 -0.647152
H2    H     H_    0.614311 0.970706 0.204887 0.332882
O23   O     O_3   0.648926 0.993346 0.330249 -0.635514
H3    H     H_    0.705745 0.995692 0.378990 0.332637
O24   O     O_3   0.534636 0.276607 0.449520 -0.659347
H4    H     H_    0.500329 0.254990 0.491176 0.329001
O25   O     O_3   0.279278 0.531240 0.697743 -0.645379
H5    H     H_    0.285986 0.478116 0.708293 0.330785
O26   O     O_3   0.314205 0.504493 0.834112 -0.618055
H6    H     H_    0.347747 0.508095 0.885822 0.375300
Cl5   Cl    Cl    0.143467 0.610680 0.976752 -0.490826
Cl6   Cl    Cl    0.938124 0.759388 0.954002 -0.591039
O27   O     O_3   0.986755 0.968776 0.802279 -0.646356
H7    H     H_    0.980178 0.021881 0.791687 0.328498
O28   O     O_3   0.950496 0.995309 0.665884 -0.631487
H8    H     H_    0.916730 0.991682 0.614192 0.356461
Cl7   Cl    Cl    0.326839 0.740544 0.545944 -0.597022
O29   O     O_3   0.543031 0.118554 0.456946 -0.637015
H9    H     H_    0.482517 0.064037 0.447335 0.333168

loop_
_geom_bond_atom_site_label_1
_geom_bond_atom_site_label_2
_ccdc_geom_bond_type
C43   C44   A    
O28   H8    S    
C29   C30   T    
C7    C8    A    
C12   C15   A    
C1    O6    A    
O23   H3    S    
C35   C37   A    
C41   C42   A    
C17   C18   A    
C37   C45   S    
C5    O25   S    
C16   C17   A    
C41   O22   S    
C2    C40   S    
C6    C7    A    
O13   V3    S    
O5    C3    A    
C26   C27   S    
C17   Cl1   S    
O12   C45   A    
V2    O10   S    
C18   Cl7   S    
O19   V4    S    
C22   C23   S    
O16   V4    S    
O14   C46   A    
C42   C43   A    
O8    V2    S    
O14   V3    S    
O12   V3    S    
C19   C48   S    
V3    O20   S    
C19   C20   T    
C11   C12   A    
C15   O27   S    
O1    V2    S    
C5    C10   A    
C3    C24   S    
O7    V1    S    
C31   Cl2   S    
C9    C10   A    
C5    C6    A    
C38   C41   A    
O15   V3    S    
C39   C40   A    
C35   C36   A    
C12   C13   A    
C27   C28   T    
O4    C2    A    
C38   C39   A    
C13   C14   A    
O25   H5    S    
C8    Cl6   S    
O11   V4    S    
O18   C47   A    
C16   O28   S    
C23   C24   T    
C11   C47   S    
C32   O21   S    
O2    C1    A    
O21   H1    S    
C25   C26   T    
C7    Cl5   S    
O24   H4    S    
O29   H9    S    
C8    C9    A    
C21   C22   T    
C4    C14   S    
O3    C4    A    
C28   C29   S    
O17   V3    S    
O6    V2    S    
O9    V2    S    
C31   C32   A    
O2    V1    S    
O27   H7    S    
C32   C33   A    
C44   O24   S    
C34   Cl4   S    
C31   C36   A    
C13   C18   A    
C34   C35   A    
O1    C2    A    
C39   C44   A    
O11   C46   A    
C43   O29   S    
O5    V1    S    
C33   Cl3   S    
O8    C3    A    
C6    O26   S    
O15   C47   A    
C45   O16   A    
C20   C21   S    
C9    C11   A    
O7    V2    S    
O4    V1    S    
O3    V1    S    
O17   V4    S    
O18   V4    S    
O19   C48   A    
O13   C48   A    
O22   H2    S    
C33   C34   A    
C36   C40   A    
V4    O20   S    
C1    C25   S    
O26   H6    S    
C37   C38   A    
C10   C14   A    
C15   C16   A    
V1    O10   S    
O9    C4    A    
C30   C46   S    
C42   O23   S    
