data_mof_unit_1451.cif
_audit_creation_date              2012-12-10T20:42:40-0500
_audit_creation_method            fapswitch 2.2
_symmetry_space_group_name_H-M    P1
_symmetry_Int_Tables_number       1
_space_group_crystal_system       triclinic
_cell_length_a                    8.887928
_cell_length_b                    10.767498
_cell_length_c                    9.92577
_cell_angle_alpha                 90.513452
_cell_angle_beta                  90.779562
_cell_angle_gamma                 90.701823
_cell_volume                      949.7048459

loop_
_atom_site_label
_atom_site_type_symbol
_atom_type_description
_atom_site_fract_x
_atom_site_fract_y
_atom_site_fract_z
_atom_type_partial_charge
C1    C     C_R   0.508324 0.260731 0.498737 0.899336
C2    C     C_R   0.522992 0.932148 0.374875 -0.235235
C3    C     C_R   0.514115 0.870287 0.498557 -0.118150
C4    C     C_R   0.521615 0.939664 0.615846 0.077609
C5    C     C_3   0.532022 0.933040 0.765416 -0.454985
C6    C     C_3   0.538226 0.075976 0.762888 0.047903
C7    C     C_R   0.369376 0.482221 0.068839 0.204138
C8    C     C_R   0.622777 0.537598 0.075402 -0.119424
C9    C     C_R   0.622126 0.541964 0.932711 0.203967
C10   C     C_R   0.369791 0.481003 0.927403 0.179143
C11   C     C_3   0.262697 0.373849 0.919152 -0.453257
C12   C     C_R   0.218939 0.499678 0.499407 0.928485
C13   C     C_3   0.260864 0.375678 0.072764 -0.453548
C14   C     C_R   0.503497 0.739247 0.500316 0.900166
C15   C     C_R   0.781062 0.499752 0.500550 0.947865
C16   C     C_1   0.065470 0.499487 0.499145 -0.175754
C17   C     C_1   0.934527 0.499496 0.500757 -0.150209
C18   C     C_R   0.525453 0.063612 0.613630 0.040743
C19   C     C_R   0.522784 0.129299 0.494313 -0.161536
C20   C     C_R   0.531355 0.060939 0.371333 0.171748
H1    H     H_    0.150474 0.403629 0.113902 0.215277
H2    H     H_    0.308950 0.291561 0.119099 0.238946
H3    H     H_    0.427443 0.894748 0.810090 0.196454
H4    H     H_    0.638049 0.889695 0.800557 0.246016
H5    H     H_    0.438352 0.119533 0.808029 0.141647
H6    H     H_    0.153102 0.399757 0.872708 0.230410
N1    N     N_R   0.499010 0.499140 0.142800 -0.114723
N2    N     N_R   0.499010 0.499180 0.857150 -0.122917
O1    O     O_R   0.500020 0.316790 0.614690 -0.612135
O2    O     O_R   0.500000 0.316760 0.385350 -0.591416
O3    O     O_R   0.285350 0.500020 0.614650 -0.613136
O4    O     O_R   0.285340 0.499980 0.385310 -0.617509
O5    O     O_R   0.500000 0.683240 0.614650 -0.605686
O6    O     O_R   0.499980 0.683210 0.385310 -0.631260
O7    O     O_R   0.714660 0.500020 0.614690 -0.577742
O8    O     O_R   0.714650 0.499980 0.385350 -0.626084
Zn1   Zn    Zn3+2 0.500010 0.500020 0.653130 0.994947
Zn2   Zn    Zn3+2 0.499990 0.499980 0.346870 0.976357
I1    I     I_    0.572197 0.133251 0.176063 -0.340905
H7    H     H_    0.314238 0.289586 0.876003 0.210469
H8    H     H_    0.526098 0.881042 0.280456 0.199364
I2    I     I_    0.753538 0.153906 0.819538 -0.295486
H9    H     H_    0.721483 0.567924 0.132103 0.175141
I3    I     I_    0.812199 0.636665 0.855413 -0.355034

loop_
_geom_bond_atom_site_label_1
_geom_bond_atom_site_label_2
_ccdc_geom_bond_type
C14   O6    A    
C7    C10   A    
O4    Zn2   S    
C19   C20   A    
C5    H3    S    
C8    H9    S    
C4    C18   A    
C14   O5    A    
O8    Zn2   S    
C2    C3    A    
C20   I1    S    
C13   H1    S    
C12   O4    A    
C11   C13   S    
C1    O1    A    
C5    C6    S    
C3    C14   S    
C5    H4    S    
N2    Zn1   S    
C15   O7    A    
C1    O2    A    
O7    Zn1   S    
C13   H2    S    
C12   O3    A    
C11   H7    S    
C6    C18   S    
C1    C19   S    
C6    H5    S    
C16   C17   T    
C10   C11   S    
N1    Zn2   S    
O1    Zn1   S    
C3    C4    A    
O3    Zn1   S    
C15   O8    A    
C7    C13   S    
C7    N1    A    
O2    Zn2   S    
C18   C19   A    
C6    I2    S    
C10   N2    A    
C15   C17   S    
C8    N1    A    
C8    C9    A    
C9    I3    S    
C2    H8    S    
C11   H6    S    
O6    Zn2   S    
C2    C20   A    
O5    Zn1   S    
C12   C16   S    
C9    N2    A    
C4    C5    S    
