data_mof_unit_3596.cif
_audit_creation_date              2012-12-11T14:36:08-0500
_audit_creation_method            fapswitch 2.2
_symmetry_space_group_name_H-M    P1
_symmetry_Int_Tables_number       1
_space_group_crystal_system       triclinic
_cell_length_a                    13.544984
_cell_length_b                    13.553191
_cell_length_c                    27.407853
_cell_angle_alpha                 91.476005
_cell_angle_beta                  90.119837
_cell_angle_gamma                 60.063168
_cell_volume                      4358.37048485

loop_
_atom_site_label
_atom_site_type_symbol
_atom_type_description
_atom_site_fract_x
_atom_site_fract_y
_atom_site_fract_z
_atom_type_partial_charge
C1    C     C_R   0.620550 0.102266 0.569776 0.546614
C2    C     C_1   0.625339 0.734653 0.616271 -0.018058
C3    C     C_3   0.673064 0.551056 0.763027 -0.104836
C4    C     C_3   0.681609 0.629153 0.802989 0.051230
C5    C     C_3   0.568551 0.656347 0.742183 0.025480
C6    C     C_3   0.647313 0.678746 0.709617 0.050963
C7    C     C_3   0.576408 0.732840 0.782722 0.024743
C8    C     C_3   0.654816 0.756969 0.749860 -0.104512
C9    C     C_1   0.695452 0.609721 0.855297 -0.062851
C10   C     C_1   0.636436 0.706390 0.658013 -0.061604
C11   C     C_3   0.094700 0.147421 0.738786 -0.135319
C12   C     C_R   0.598473 0.780701 0.568708 0.542310
C13   C     C_3   0.188710 0.065409 0.773827 -0.109459
C14   C     C_1   0.103489 0.197258 0.902915 -0.021342
C15   C     C_1   0.227862 0.144043 0.617249 -0.020210
C16   C     C_3   0.066520 0.250445 0.774002 -0.116810
C17   C     C_3   0.160090 0.168170 0.808466 0.043798
C18   C     C_3   0.155767 0.269421 0.747385 0.032392
C19   C     C_3   0.182785 0.168153 0.712632 0.062996
C20   C     C_3   0.247702 0.189274 0.782505 0.053121
C21   C     C_3   0.276254 0.087969 0.747220 0.030209
C22   C     C_1   0.135654 0.177771 0.860993 -0.063943
C23   C     C_R   0.276912 0.123167 0.569357 0.541749
C24   C     C_1   0.200684 0.158712 0.659694 -0.060217
C25   C     C_3   0.634628 0.279449 0.740150 -0.109852
C26   C     C_3   0.562833 0.256475 0.777502 -0.132074
C27   C     C_1   0.693598 0.206420 0.903043 -0.018887
C28   C     C_1   0.637965 0.136901 0.617177 -0.020125
C29   C     C_3   0.741865 0.208233 0.771012 0.029950
C30   C     C_3   0.670467 0.185551 0.807678 0.063259
C31   C     C_3   0.767786 0.099287 0.741846 0.054858
C32   C     C_3   0.660459 0.169400 0.711666 0.042281
C33   C     C_3   0.696554 0.076785 0.778787 0.032870
C34   C     C_R   0.621469 0.095489 0.429651 0.547579
C35   C     C_3   0.588537 0.146000 0.748236 -0.111679
C36   C     C_1   0.678946 0.195454 0.860493 -0.058819
C37   C     C_1   0.649963 0.156018 0.659181 -0.062437
C38   C     C_R   0.744214 0.685901 0.363511 -0.156894
C39   C     C_R   0.754933 0.669205 0.312920 0.014181
C40   C     C_R   0.761816 0.662715 0.209994 0.037715
C41   C     C_R   0.850320 0.662565 0.237304 -0.120890
C42   C     C_R   0.846387 0.666396 0.288114 -0.133150
C43   C     C_R   0.765039 0.656878 0.158276 -0.007217
C44   C     C_R   0.682481 0.640709 0.133475 -0.001930
C45   C     C_R   0.604516 0.770554 0.431906 0.542155
C46   C     C_R   0.578333 0.661820 0.363019 0.000563
C47   C     C_R   0.579919 0.658597 0.311674 0.018432
C48   C     C_R   0.668148 0.663835 0.286548 0.043259
C49   C     C_R   0.492163 0.656526 0.285173 -0.105454
C50   C     C_R   0.489103 0.662361 0.234432 0.010510
C51   C     C_R   0.579288 0.664203 0.209242 0.021518
C52   C     C_R   0.669934 0.663255 0.235220 0.033445
C53   C     C_R   0.584457 0.659332 0.158519 -0.140826
C54   C     C_R   0.648081 0.696751 0.387564 0.004142
C55   C     C_R   0.220241 0.053947 0.356279 -0.148238
C56   C     C_R   0.276342 0.121059 0.431231 0.542174
C57   C     C_R   0.194695 0.066789 0.306500 0.009772
C58   C     C_R   0.165290 0.085958 0.204166 0.030228
C59   C     C_R   0.184947 0.986485 0.227676 -0.122804
C60   C     C_R   0.202308 0.976035 0.277947 -0.128170
C61   C     C_R   0.150056 0.097579 0.152907 -0.018154
C62   C     C_R   0.123734 0.202440 0.132029 0.013949
C63   C     C_R   0.163616 0.254887 0.364530 -0.002065
C64   C     C_R   0.153960 0.263885 0.313310 0.034375
C65   C     C_R   0.168150 0.169701 0.284329 0.048681
C66   C     C_R   0.135387 0.363062 0.290186 -0.131475
C67   C     C_3   0.751372 0.574450 0.729949 0.025826
C68   C     C_R   0.135888 0.367065 0.239620 -0.125594
C69   C     C_R   0.146931 0.275145 0.210499 0.027400
C70   C     C_R   0.157964 0.177730 0.233005 0.033869
C71   C     C_R   0.145513 0.279337 0.159339 -0.009465
C72   C     C_R   0.212256 0.145273 0.384912 0.003674
C73   C     C_R   0.563472 0.225861 0.360315 -0.148879
C74   C     C_R   0.566209 0.246080 0.310514 0.026767
C75   C     C_R   0.575025 0.278239 0.209810 -0.004322
C76   C     C_R   0.485510 0.360855 0.238686 -0.100852
C77   C     C_R   0.478396 0.345004 0.288658 0.016301
C78   C     C_3   0.760015 0.651171 0.770199 0.029149
C79   C     C_R   0.586285 0.297107 0.160710 -0.153371
C80   C     C_R   0.671078 0.208968 0.131725 0.002570
C81   C     C_R   0.737414 0.039751 0.350678 -0.005724
C82   C     C_R   0.747232 0.065695 0.302264 0.018345
C83   C     C_R   0.657723 0.163507 0.281375 0.027589
C84   C     C_R   0.843797 0.993927 0.273552 -0.107746
C85   C     C_R   0.841983 0.000163 0.223101 0.008497
C86   C     C_R   0.744718 0.088899 0.200986 0.047145
C87   C     C_R   0.659282 0.177146 0.230811 0.027769
C88   C     C_R   0.733573 0.099250 0.150258 0.007957
C89   C     C_1   0.703091 0.592664 0.898243 -0.017818
C90   C     C_R   0.644610 0.122612 0.380408 0.001467
C91   C     C_R   0.050434 0.235281 0.950108 0.539588
C92   C     C_R   0.712898 0.559746 0.947733 0.543013
C93   C     C_R   0.722468 0.224829 0.951167 0.539716
C94   C     C_R   0.052609 0.243250 0.087304 0.544708
C95   C     C_R   0.707016 0.576683 0.086388 0.544736
C96   C     C_R   0.716249 0.233241 0.088024 0.549870
Cr1   Cr    Cr6+3 0.417550 0.169090 0.500530 1.012933
Cr2   Cr    Cr6+3 0.669180 0.913420 0.499920 1.005857
Cr3   Cr    Cr6+3 0.413260 0.917540 0.499520 1.012073
Cr4   Cr    Cr6+3 0.909170 0.177380 0.020380 1.007701
Cr5   Cr    Cr6+3 0.912710 0.429210 0.018220 1.008307
Cr6   Cr    Cr6+3 0.657170 0.432570 0.019030 1.013089
O1    O     O_R   0.301710 0.195650 0.554160 -0.511953
O2    O     O_R   0.658900 0.818120 0.449760 -0.511721
O3    O     O_R   0.503220 0.801620 0.445520 -0.515432
O4    O     O_R   0.319370 0.022040 0.450020 -0.501632
O5    O     O_3   0.499990 0.000010 0.499990 -0.241483
O6    O     O_R   0.818720 0.150820 0.967160 -0.512990
O7    O     O_R   0.006410 0.181720 0.970200 -0.498148
O8    O     O_R   0.027890 0.334070 0.964920 -0.511754
O9    O     O_R   0.809600 0.521790 0.967960 -0.498679
O10   O     O_R   0.635520 0.542770 0.964420 -0.511230
O11   O     O_R   0.665950 0.325030 0.970100 -0.497101
O12   O     O_R   0.522390 0.158990 0.550460 -0.494237
O13   O     O_R   0.816620 0.158530 0.074540 -0.514257
O14   O     O_R   0.004460 0.188870 0.069750 -0.495542
O15   O     O_R   0.025800 0.341780 0.072300 -0.518520
O16   O     O_R   0.807650 0.528950 0.067500 -0.493726
O17   O     O_R   0.633420 0.550490 0.071810 -0.524886
O18   O     O_R   0.664000 0.332180 0.069640 -0.503187
O19   O     O_3   0.826350 0.346390 0.019210 -0.239788
O20   O     O_R   0.694390 0.003530 0.554040 -0.506960
O21   O     O_R   0.657700 0.819660 0.549320 -0.496716
O22   O     O_R   0.501930 0.803280 0.552920 -0.512920
O23   O     O_R   0.318170 0.023580 0.549580 -0.494613
O24   O     O_R   0.303010 0.193990 0.446760 -0.516802
O25   O     O_R   0.523600 0.157450 0.450900 -0.501994
O26   O     O_R   0.695690 0.001860 0.446640 -0.528419
C97   C     C_3   0.870037 0.644988 0.786736 -0.412096
H1    H     H_    0.910621 0.662972 0.755705 0.125219
H2    H     H_    0.851583 0.708333 0.816837 0.131733
H3    H     H_    0.928775 0.558542 0.800105 0.135936
C98   C     C_3   0.330510 0.215256 0.809193 -0.407403
H4    H     H_    0.366228 0.248894 0.782628 0.125591
H5    H     H_    0.284810 0.281315 0.838253 0.136052
H6    H     H_    0.399358 0.137016 0.825575 0.128991
C99   C     C_3   0.143397 0.381935 0.731757 -0.411953
H7    H     H_    0.117960 0.442044 0.763606 0.125608
H8    H     H_    0.226136 0.367082 0.717048 0.134861
H9    H     H_    0.079237 0.418985 0.702738 0.130629
H10   H     H_    0.982706 0.319290 0.787783 0.107208
H11   H     H_    0.480405 0.323808 0.793203 0.103157
H12   H     H_    0.609472 0.362146 0.723279 0.101872
H13   H     H_    0.527133 0.118301 0.737602 0.105254
C100  C     C_3   0.733452 0.962578 0.801405 -0.414875
H14   H     H_    0.768804 0.894967 0.772457 0.127485
H15   H     H_    0.800964 0.944184 0.828556 0.137183
H16   H     H_    0.659582 0.964107 0.819633 0.126079
C101  C     C_3   0.883568 0.010924 0.720966 -0.404683
H17   H     H_    0.946514 0.976588 0.750771 0.124356
H18   H     H_    0.876976 0.940300 0.702847 0.134251
H19   H     H_    0.912134 0.050860 0.693751 0.128090
C102  C     C_3   0.828782 0.242401 0.785300 -0.416060
H20   H     H_    0.850816 0.273938 0.752531 0.122074
H21   H     H_    0.793038 0.310592 0.814130 0.133366
H22   H     H_    0.905736 0.167813 0.799686 0.145022
C103  C     C_3   0.853764 0.668657 0.129782 -0.385553
H23   H     H_    0.867806 0.735717 0.146481 0.097347
H24   H     H_    0.934612 0.586745 0.128814 0.144146
H25   H     H_    0.825811 0.695718 0.091955 0.137869
C104  C     C_3   0.845100 0.485984 0.696818 -0.410773
H26   H     H_    0.908678 0.416214 0.718687 0.130907
H27   H     H_    0.808221 0.450386 0.670296 0.132661
H28   H     H_    0.886129 0.526195 0.676652 0.134181
H29   H     H_    0.805603 0.699471 0.383539 0.105837
H30   H     H_    0.924104 0.658085 0.219938 0.101993
H31   H     H_    0.914844 0.667823 0.308040 0.092197
H32   H     H_    0.517156 0.657009 0.138204 0.138303
C105  C     C_3   0.389843 0.664742 0.208129 -0.416057
H33   H     H_    0.325740 0.666066 0.233765 0.109839
H34   H     H_    0.346706 0.741926 0.185909 0.119882
H35   H     H_    0.420647 0.588363 0.183666 0.120686
H36   H     H_    0.422725 0.654915 0.303879 0.106238
C106  C     C_3   0.504167 0.627969 0.391106 -0.382242
H37   H     H_    0.529842 0.611293 0.429856 0.149523
H38   H     H_    0.413234 0.695394 0.389296 0.130840
H39   H     H_    0.515252 0.546712 0.375476 0.114648
C107  C     C_3   0.172700 0.996563 0.120152 -0.384253
H40   H     H_    0.184591 0.010653 0.081424 0.140210
H41   H     H_    0.253618 0.920283 0.130441 0.110711
H42   H     H_    0.101702 0.978690 0.122798 0.129590
H43   H     H_    0.252907 0.970845 0.371966 0.126737
H44   H     H_    0.187020 0.915953 0.207559 0.103362
H45   H     H_    0.645921 0.840955 0.742663 0.098401
H46   H     H_    0.221349 0.896788 0.294536 0.101358
C108  C     C_3   0.180366 0.355809 0.134307 -0.380393
H47   H     H_    0.111082 0.445429 0.136630 0.123064
H48   H     H_    0.257013 0.349365 0.152174 0.117593
H49   H     H_    0.205094 0.329361 0.095538 0.149743
H50   H     H_    0.124019 0.444363 0.223599 0.104653
H51   H     H_    0.125655 0.436675 0.310740 0.102098
C109  C     C_3   0.121541 0.361193 0.396769 -0.381705
H52   H     H_    0.183762 0.391831 0.396170 0.132111
H53   H     H_    0.106483 0.346056 0.434938 0.149153
H54   H     H_    0.037750 0.429200 0.383837 0.115909
H55   H     H_    0.532919 0.380553 0.145804 0.118904
H56   H     H_    0.494011 0.287383 0.383312 0.129816
H57   H     H_    0.419331 0.436490 0.221933 0.100404
C110  C     C_3   0.375605 0.433114 0.317275 -0.414783
H58   H     H_    0.402477 0.470405 0.347328 0.115850
H59   H     H_    0.315507 0.503766 0.294097 0.112002
H60   H     H_    0.329074 0.392831 0.332744 0.134673
C111  C     C_3   0.773697 0.996645 0.116022 -0.380456
H61   H     H_    0.762018 0.930488 0.133707 0.124521
H62   H     H_    0.721263 0.019991 0.082536 0.128689
H63   H     H_    0.863772 0.961727 0.104608 0.144230
C112  C     C_3   0.478059 0.814527 0.816260 -0.408821
H64   H     H_    0.399311 0.861068 0.795131 0.133286
H65   H     H_    0.461836 0.765869 0.843976 0.140077
H66   H     H_    0.499215 0.875014 0.835053 0.126442
C113  C     C_3   0.950163 0.920132 0.195388 -0.406382
H67   H     H_    0.023916 0.875163 0.219966 0.109116
H68   H     H_    0.940579 0.853656 0.175257 0.115872
H69   H     H_    0.971672 0.969231 0.170197 0.143398
H70   H     H_    0.922597 0.932743 0.290110 0.109708
C114  C     C_3   0.815122 0.918445 0.367466 -0.365060
H71   H     H_    0.761755 0.882529 0.378966 0.173486
H72   H     H_    0.869715 0.855486 0.339213 0.087814
H73   H     H_    0.871118 0.917759 0.397257 0.146993
C115  C     C_3   0.460456 0.658322 0.725556 -0.408984
H74   H     H_    0.421084 0.639248 0.756714 0.127620
H75   H     H_    0.399280 0.743558 0.711758 0.131241
H76   H     H_    0.481557 0.593166 0.695964 0.131034
H77   H     H_    0.677861 0.468579 0.768901 0.103915
H78   H     H_    0.201113 0.981910 0.784993 0.097162
H79   H     H_    0.032533 0.130221 0.719594 0.105906
C116  C     C_3   0.395697 0.003729 0.728524 -0.411100
H80   H     H_    0.456643 0.982628 0.758685 0.126035
H81   H     H_    0.398251 0.926082 0.713089 0.141310
H82   H     H_    0.420874 0.042585 0.699459 0.133669

loop_
_geom_bond_atom_site_label_1
_geom_bond_atom_site_label_2
_ccdc_geom_bond_type
C38   H29   S    
C66   C68   A    
C111  H61   S    
C77   C110  S    
C3    H77   S    
C30   C36   S    
Cr5   O19   S    
C41   C42   A    
C34   O25   A    
Cr6   O10   S    
Cr4   O14   S    
C114  H73   S    
C74   C83   A    
Cr1   O25   S    
C2    C12   S    
C104  H28   S    
C115  H75   S    
C107  H40   S    
C113  H69   S    
C7    C8    S    
Cr3   O23   S    
C85   C86   A    
C99   H8    S    
C11   C19   S    
C60   H46   S    
Cr5   O16   S    
C91   O8    A    
C99   H9    S    
C19   C21   S    
C78   C97   S    
C114  H72   S    
C73   C90   A    
Cr4   O19   S    
C101  H18   S    
C93   O6    A    
C13   H78   S    
C5    C6    S    
C31   C101  S    
C94   O15   A    
C86   C88   A    
C5    C115  S    
C61   C62   A    
C63   C109  S    
C105  H33   S    
C17   C20   S    
C58   C70   A    
C112  H65   S    
C18   C19   S    
C73   C74   A    
C98   H5    S    
C69   C71   A    
C106  H37   S    
C100  H15   S    
C1    O20   A    
C44   C53   A    
C103  H23   S    
C23   O1    A    
C47   C48   A    
C68   C69   A    
C56   C72   S    
C74   C77   A    
C73   H56   S    
C112  H66   S    
C114  H71   S    
C46   C106  S    
C96   O13   A    
Cr1   O5    S    
C56   O24   A    
C20   C98   S    
C80   C96   S    
Cr6   O19   S    
C59   C60   A    
C55   C72   A    
C84   H70   S    
C35   H13   S    
C23   O23   A    
C97   H3    S    
C8    H45   S    
C25   C32   S    
C15   C23   S    
Cr4   O7    S    
C103  H24   S    
C41   H30   S    
C8    C78   S    
C105  H34   S    
C25   H12   S    
Cr4   O13   S    
C4    C7    S    
C21   C116  S    
C85   C113  S    
C49   H36   S    
C115  H74   S    
C104  H27   S    
C45   O3    A    
C100  H14   S    
C39   C42   A    
C40   C43   A    
C95   O16   A    
C25   C29   S    
Cr2   O21   S    
Cr3   O3    S    
C111  H63   S    
Cr4   O6    S    
C112  H64   S    
C107  H42   S    
C109  H54   S    
C84   C85   A    
C7    C112  S    
C101  H19   S    
C9    C89   T    
C5    C7    S    
C94   O14   A    
C86   C87   A    
C16   C17   S    
C57   C60   A    
C6    C8    S    
C3    C5    S    
C25   C26   S    
C40   C52   A    
C81   C82   A    
Cr2   O5    S    
C51   C52   A    
C51   C53   A    
C109  H53   S    
C18   C99   S    
C75   C76   A    
C32   C35   S    
C113  H67   S    
C4    C78   S    
C29   C30   S    
C45   O2    A    
C110  H60   S    
C111  H62   S    
C11   C16   S    
C67   C104  S    
C53   H32   S    
C116  H80   S    
C38   C54   A    
C68   H50   S    
C29   C31   S    
C66   H51   S    
C46   C54   A    
C31   C33   S    
C50   C51   A    
C13   C21   S    
C1    C28   S    
C93   O11   A    
C32   C37   S    
C76   C77   A    
C89   C92   S    
C59   H44   S    
Cr5   O8    S    
C106  H39   S    
C56   O4    A    
Cr1   O1    S    
C33   C100  S    
C108  H47   S    
C98   H6    S    
C81   C90   A    
C75   C87   A    
C15   C24   T    
C113  H68   S    
C45   C54   S    
C26   C30   S    
C103  H25   S    
C82   C84   A    
C62   C94   S    
C43   C44   A    
C98   H4    S    
C105  H35   S    
C79   C80   A    
C27   C93   S    
C102  H21   S    
C1    O12   A    
C71   C108  S    
C108  H48   S    
C3    C4    S    
C2    C10   T    
C6    C67   S    
C100  H16   S    
Cr6   O18   S    
C42   H31   S    
C29   C102  S    
C97   H1    S    
Cr2   O20   S    
Cr3   O4    S    
C34   C90   S    
C40   C41   A    
C30   C33   S    
C116  H81   S    
C20   C21   S    
C58   C59   A    
C96   O18   A    
C31   C32   S    
C3    C67   S    
C57   C65   A    
Cr1   O24   S    
C43   C103  S    
C16   C18   S    
C83   C87   A    
C6    C10   S    
C107  H41   S    
C92   O9    A    
Cr1   O12   S    
C13   C17   S    
C27   C36   T    
C47   C49   A    
Cr3   O5    S    
C99   H7    S    
C17   C22   S    
C67   C78   S    
Cr5   O15   S    
C64   C65   A    
C14   C22   T    
C108  H49   S    
C55   C57   A    
C19   C24   S    
C102  H20   S    
C61   C107  S    
C80   C88   A    
Cr6   O11   S    
C104  H26   S    
C101  H17   S    
C109  H52   S    
C11   C13   S    
C102  H22   S    
C91   O7    A    
C38   C39   A    
C12   O21   A    
C28   C37   T    
C58   C61   A    
C11   H79   S    
Cr2   O2    S    
Cr5   O9    S    
Cr2   O26   S    
C33   C35   S    
C55   H43   S    
C62   C71   A    
C16   H10   S    
C50   C105  S    
C18   C20   S    
C88   C111  S    
C69   C70   A    
C106  H38   S    
C14   C91   S    
C46   C47   A    
C95   O17   A    
C79   H55   S    
C110  H58   S    
C63   C64   A    
C81   C114  S    
C26   C35   S    
C48   C52   A    
C116  H82   S    
C63   C72   A    
C34   O26   A    
C82   C83   A    
C110  H59   S    
C92   O10   A    
C39   C48   A    
C76   H57   S    
C49   C50   A    
C4    C9    S    
C26   H11   S    
C75   C79   A    
C12   O22   A    
C115  H76   S    
C44   C95   S    
Cr6   O17   S    
C65   C70   A    
C64   C66   A    
Cr3   O22   S    
C97   H2    S    
