data_mof_unit_2988.cif
_audit_creation_date              2013-03-05T16:41:35-0500
_audit_creation_method            fapswitch 2.2
_symmetry_space_group_name_H-M    P1
_symmetry_Int_Tables_number       1
_space_group_crystal_system       triclinic
_cell_length_a                    12.717164
_cell_length_b                    10.729348
_cell_length_c                    9.937154
_cell_angle_alpha                 89.307689
_cell_angle_beta                  97.135974
_cell_angle_gamma                 90.945241
_cell_volume                      1345.13919796

loop_
_atom_site_label
_atom_site_type_symbol
_atom_site_description
_atom_site_fract_x
_atom_site_fract_y
_atom_site_fract_z
_atom_type_partial_charge
O1    O     O_R   0.500010 0.316790 0.614690 -0.617938
O2    O     O_R   0.500000 0.316760 0.385350 -0.643111
C1    C     C_R   0.499058 0.260086 0.500287 0.920320
O3    O     O_R   0.346360 0.499990 0.595720 -0.612799
O4    O     O_R   0.346350 0.499960 0.366370 -0.588942
C2    C     C_R   0.298911 0.505741 0.472986 0.897540
Zn1   Zn    Zn3+2 0.500010 0.500020 0.653130 1.048221
Zn2   Zn    Zn3+2 0.499990 0.499980 0.346870 1.021059
O5    O     O_R   0.500000 0.683240 0.614650 -0.602415
O6    O     O_R   0.499990 0.683210 0.385310 -0.581204
O7    O     O_R   0.653650 0.500040 0.633630 -0.527705
O8    O     O_R   0.653640 0.500010 0.404280 -0.627972
C3    C     C_R   0.503257 0.739590 0.499892 0.942090
C4    C     C_R   0.701419 0.496236 0.527123 0.970511
C5    C     C_R   0.813600 0.481698 0.544757 -0.172469
C6    C     C_R   0.188098 0.528282 0.455334 -0.129597
C7    C     C_R   0.044337 0.672402 0.459288 0.292009
C8    C     C_R   0.149725 0.650344 0.439005 -0.137733
C9    C     C_R   0.123325 0.428371 0.477823 -0.199680
C10   C     C_R   0.020058 0.448011 0.498415 0.071085
C11   C     C_R   0.980229 0.571083 0.496430 -0.069139
C12   C     C_R   0.877252 0.587366 0.529487 0.261696
C13   C     C_R   0.854778 0.360636 0.551330 -0.100501
C14   C     C_R   0.958688 0.345089 0.528234 -0.118136
H1    H     H_    0.992087 0.252410 0.534133 0.202183
H2    H     H_    0.155724 0.335531 0.486862 0.161376
C15   C     C_R   0.510981 0.060575 0.621907 0.034803
C16   C     C_R   0.507036 0.127949 0.500894 -0.048888
C17   C     C_R   0.521345 0.066167 0.380771 -0.178389
H3    H     H_    0.524148 0.115891 0.285725 0.178205
C18   C     C_R   0.524580 0.937492 0.380560 -0.128645
H4    H     H_    0.526221 0.890869 0.284960 0.222585
C19   C     C_R   0.517034 0.871172 0.501426 -0.070515
C20   C     C_R   0.522249 0.934526 0.623557 0.181664
C21   C     C_3   0.461129 0.916426 0.741619 -0.451560
C22   C     C_3   0.444084 0.056628 0.736566 -0.302978
H5    H     H_    0.388232 0.858110 0.716555 0.232073
H6    H     H_    0.512715 0.885542 0.834159 0.240192
H7    H     H_    0.482524 0.105143 0.828444 0.155092
C23   C     C_R   0.409956 0.472967 0.057109 0.215137
N1    N     N_R   0.499290 0.499140 0.142710 -0.161186
C24   C     C_R   0.584881 0.545370 0.083770 -0.149569
C25   C     C_R   0.585594 0.542910 0.940186 0.258891
N2    N     N_R   0.499290 0.499180 0.857070 -0.176357
C26   C     C_R   0.408883 0.476218 0.915545 0.139203
C27   C     C_3   0.338334 0.363330 0.899563 -0.260966
C28   C     C_3   0.343448 0.357548 0.053973 -0.496170
H8    H     H_    0.377028 0.284941 0.854986 0.139030
H9    H     H_    0.266787 0.373595 0.093610 0.228586
H10   H     H_    0.388239 0.276326 0.100226 0.206078
N3    N     N_R   0.841916 0.707595 0.565854 0.239294
O9    O     O_R   0.890393 0.763102 0.672203 -0.251597
O10   O     O_R   0.753834 0.753271 0.506559 -0.377930
C29   C     C_2   0.328163 0.085482 0.700113 1.000593
O11   O     O_2   0.266688 0.061614 0.782528 -0.525446
O12   O     O_R   0.290280 0.136180 0.573604 -0.827115
H11   H     H_    0.210196 0.141362 0.560041 0.367776
C30   C     C_2   0.672644 0.611216 0.164533 1.072088
O13   O     O_2   0.759794 0.563347 0.186388 -0.558212
O14   O     O_R   0.657597 0.732389 0.206706 -0.786793
H12   H     H_    0.725632 0.773291 0.249701 0.398796
N4    N     N_R   0.675144 0.592364 0.882468 0.234992
O15   O     O_R   0.670842 0.702824 0.827003 -0.337467
O16   O     O_R   0.765228 0.535080 0.901745 -0.298738
C31   C     C_2   0.228496 0.391624 0.831429 1.009031
O17   O     O_2   0.165867 0.305931 0.801256 -0.581091
O18   O     O_R   0.197156 0.515079 0.806706 -0.762500
H13   H     H_    0.120424 0.521488 0.765528 0.356692
C32   C     C_2   0.793017 0.250112 0.589227 0.927424
O19   O     O_2   0.801915 0.150063 0.534308 -0.547224
O20   O     O_R   0.729491 0.258817 0.693661 -0.760898
H14   H     H_    0.698470 0.175321 0.718332 0.350911
N5    N     N_R   0.000199 0.792900 0.427112 0.235766
O21   O     O_R   0.027319 0.887587 0.505088 -0.253513
O22   O     O_R   0.934293 0.808479 0.317442 -0.328636
C33   C     C_2   0.218976 0.752960 0.397767 0.929403
O23   O     O_2   0.263638 0.741996 0.296545 -0.588037
O24   O     O_R   0.234224 0.861090 0.474903 -0.756382
H15   H     H_    0.283272 0.923395 0.435802 0.353745

loop_
_geom_bond_atom_site_label_1
_geom_bond_atom_site_label_2
_geom_bond_distance
_ccdc_geom_bond_type
C23   C28   1.486514 S    
N5    O21   1.300973 A    
C13   C32   1.482209 S    
C21   C22   1.522699 S    
C24   C30   1.467661 S    
C28   H9    1.112574 S    
C26   C27   1.493520 S    
Zn1   O7    1.987256 S    
N4    O15   1.300087 A    
C16   C17   1.405160 A    
C21   H5    1.113634 S    
C33   O24   1.395800 S    
O4    C2    1.285254 A    
O7    C4    1.285485 A    
C30   O14   1.394215 S    
O12   H11   1.012954 S    
C20   C21   1.494778 S    
N1    C24   1.381093 A    
C32   O20   1.396962 S    
C9    H2    1.082720 S    
O5    C3    1.289160 A    
N4    O16   1.301060 A    
C27   C28   1.528229 S    
C5    C12   1.399907 A    
C10   C14   1.391926 A    
C31   O18   1.399641 S    
C13   C14   1.382125 A    
C18   C19   1.401366 A    
C5    C13   1.406262 A    
Zn2   N1    2.027812 S    
C11   C12   1.403285 A    
C7    N5    1.434635 S    
N5    O22   1.300528 A    
O3    Zn1   1.966361 S    
C7    C8    1.404137 A    
C28   H10   1.112119 S    
C27   H8    1.105694 S    
C15   C20   1.362034 A    
C23   C26   1.405133 A    
C29   O12   1.396442 S    
N3    O9    1.301077 A    
C21   H6    1.111634 S    
C14   H1    1.085810 S    
C27   C31   1.508560 S    
O3    C2    1.293053 A    
O24   H15   1.013461 S    
C30   O13   1.222930 D    
C7    C11   1.420735 A    
O18   H13   1.013266 S    
O14   H12   1.011881 S    
N3    O10   1.299716 A    
C25   N2    1.368970 A    
C3    C19   1.419780 S    
C17   H3    1.083293 S    
C18   H4    1.081623 S    
Zn2   O8    1.966361 S    
C19   C20   1.392054 A    
Zn1   N2    2.027651 S    
C33   O23   1.222771 D    
Zn2   O6    2.007229 S    
C23   N1    1.359499 A    
O8    C4    1.294724 A    
C24   C25   1.428530 A    
N2    C26   1.368712 A    
Zn1   O5    1.998134 S    
C29   O11   1.222648 D    
C1    C16   1.422921 S    
C8    C33   1.484084 S    
O1    Zn1   2.007231 S    
C22   H7    1.111617 S    
O2    Zn2   1.998134 S    
O6    C3    1.291579 A    
O4    Zn2   1.987257 S    
C15   C22   1.504065 S    
C9    C10   1.373990 A    
O2    C1    1.288713 A    
O20   H14   1.012591 S    
C17   C18   1.381924 A    
C6    C9    1.374205 A    
C32   O19   1.223296 D    
C22   C29   1.509952 S    
C2    C6    1.422664 S    
C10   C11   1.421119 A    
C6    C8    1.405667 A    
C31   O17   1.221784 D    
C15   C16   1.391524 A    
C4    C5    1.426483 S    
O1    C1    1.294510 A    
C25   N4    1.429130 S    
C12   N3    1.437816 S    
