data_mof_unit_223.cif
_audit_creation_date              2012-12-10T18:57:13-0500
_audit_creation_method            fapswitch 2.2
_symmetry_space_group_name_H-M    P1
_symmetry_Int_Tables_number       1
_space_group_crystal_system       triclinic
_cell_length_a                    8.819218
_cell_length_b                    10.774045
_cell_length_c                    9.583914
_cell_angle_alpha                 91.165075
_cell_angle_beta                  97.77481
_cell_angle_gamma                 90.454593
_cell_volume                      902.040339341

loop_
_atom_site_label
_atom_site_type_symbol
_atom_type_description
_atom_site_fract_x
_atom_site_fract_y
_atom_site_fract_z
_atom_type_partial_charge
C1    C     C_R   0.500962 0.262646 0.498467 0.857755
C2    C     C_R   0.606551 0.567694 0.941452 0.250459
C3    C     C_3   0.633321 0.704408 0.941620 -0.515811
C4    C     C_R   0.204673 0.498727 0.464747 0.851594
C5    C     C_3   0.631417 0.705372 0.099851 -0.494561
C6    C     C_R   0.498777 0.737201 0.500892 0.810164
C7    C     C_R   0.795437 0.502728 0.535490 0.799823
C8    C     C_2   0.041062 0.481498 0.448692 -0.216680
C9    C     C_2   0.959763 0.520768 0.551881 -0.025712
C10   C     C_R   0.380265 0.064345 0.541723 0.046861
C11   C     C_R   0.498147 0.129156 0.491548 -0.120732
C12   C     C_R   0.605055 0.932146 0.429002 -0.285670
C13   C     C_R   0.604167 0.062071 0.422174 0.234351
C14   C     C_2   0.976177 0.401365 0.328067 0.888880
C15   C     C_3   0.045288 0.538932 0.803110 -0.512453
C16   C     C_3   0.700500 0.107595 0.205301 -0.591673
C17   C     C_3   0.068913 0.140038 0.759644 -0.696026
C18   C     C_2   0.290737 0.339242 0.105448 0.877834
C19   C     C_R   0.498930 0.870182 0.500007 -0.100886
C20   C     C_R   0.379852 0.937175 0.545297 0.048540
C21   C     C_3   0.305093 0.935191 0.676154 -0.498436
C22   C     C_3   0.305109 0.077235 0.671651 0.073808
C23   C     C_R   0.605712 0.568438 0.088166 0.321949
C24   C     C_R   0.405519 0.422368 0.058129 0.027537
C25   C     C_R   0.407230 0.422795 0.910354 -0.145693
Cu1   Cu    Cu3+1 0.499990 0.499980 0.640670 0.951214
Cu2   Cu    Cu3+1 0.500010 0.500020 0.359330 1.000331
H1    H     H_    0.331193 0.361936 0.841538 0.157718
H2    H     H_    0.851879 0.390245 0.135360 0.315458
H3    H     H_    0.980695 0.683924 0.670200 0.228324
H4    H     H_    0.135268 0.588923 0.875644 0.225664
H5    H     H_    0.078864 0.440368 0.793408 0.243957
H6    H     H_    0.936594 0.543365 0.849338 0.222709
H7    H     H_    0.826793 0.103082 0.402734 0.264463
H8    H     H_    0.716897 0.008768 0.175888 0.197553
H9    H     H_    0.787268 0.164604 0.161496 0.228151
H10   H     H_    0.585607 0.137620 0.157330 0.260519
H11   H     H_    0.087848 0.093639 0.550928 0.278372
H12   H     H_    0.747115 0.728484 0.911428 0.195828
H13   H     H_    0.963852 0.194847 0.729626 0.228602
H14   H     H_    0.139495 0.188543 0.849214 0.238903
H15   H     H_    0.035509 0.046590 0.792663 0.224755
H16   H     H_    0.069601 0.286596 0.075970 0.334836
H17   H     H_    0.535528 0.754447 0.884367 0.214418
H18   H     H_    0.744138 0.730228 0.161046 0.205176
H19   H     H_    0.532232 0.756301 0.132074 0.217966
H20   H     H_    0.691602 0.880170 0.383292 0.147353
H21   H     H_    0.189455 0.891174 0.657185 0.199220
H22   H     H_    0.381297 0.899792 0.767911 0.180164
H23   H     H_    0.378505 0.124856 0.760787 0.149614
N1    N     N_R   0.500980 0.500930 0.148050 -0.235386
N2    N     N_R   0.500990 0.500890 0.852140 -0.193348
N3    N     N_2   0.028728 0.597081 0.667237 -0.430410
N4    N     N_2   0.717743 0.124235 0.356962 -0.403419
N5    N     N_2   0.152972 0.129081 0.640731 -0.392476
O1    O     O_R   0.500000 0.319640 0.618810 -0.611035
O2    O     O_R   0.898409 0.454531 0.207611 -0.734969
O3    O     O_2   0.329184 0.242695 0.163747 -0.598762
O4    O     O_R   0.136410 0.360616 0.060360 -0.792670
O5    O     O_R   0.500020 0.319680 0.381230 -0.520118
O6    O     O_R   0.274830 0.499980 0.591380 -0.542580
O7    O     O_R   0.274850 0.500020 0.353800 -0.582810
O8    O     O_R   0.499980 0.680320 0.618770 -0.584916
O9    O     O_R   0.500000 0.680360 0.381190 -0.591406
O10   O     O_R   0.725150 0.499980 0.646200 -0.583661
O11   O     O_R   0.725170 0.500020 0.408620 -0.568156
O12   O     O_2   0.995677 0.289380 0.333176 -0.630369

loop_
_geom_bond_atom_site_label_1
_geom_bond_atom_site_label_2
_ccdc_geom_bond_type
C6    O8    A    
Cu1   O8    S    
C24   C25   A    
C15   H4    S    
C22   N5    S    
Cu2   O7    S    
Cu1   N2    S    
C7    O10   A    
C5    H19   S    
C17   N5    S    
C23   N1    A    
C19   C20   A    
C5    C23   S    
H16   O4    S    
C16   H10   S    
C22   H23   S    
C21   H21   S    
C3    C5    S    
C24   N1    A    
C21   H22   S    
C2    C3    S    
C25   N2    A    
C3    H12   S    
C15   H5    S    
Cu2   O11   S    
C21   C22   S    
C16   H9    S    
C7    O11   A    
C6    C19   S    
C11   C13   A    
Cu1   Cu2   S    
C2    N2    A    
C12   H20   S    
C18   C24   S    
C15   N3    S    
C12   C19   A    
C1    O1    A    
Cu2   N1    S    
H7    N4    S    
C17   H14   S    
Cu2   O5    S    
C16   H8    S    
H3    N3    S    
C16   N4    S    
C3    H17   S    
C9    N3    S    
C10   C11   A    
C14   O12   D    
C25   H1    S    
Cu1   O1    S    
C4    O7    A    
C18   O4    S    
C2    C23   A    
C10   C20   A    
C20   C21   S    
C13   N4    S    
Cu2   O9    S    
C1    O5    A    
C6    O9    A    
C4    C8    S    
C7    C9    S    
C14   O2    S    
C17   H15   S    
C8    C9    D    
C8    C14   S    
C12   C13   A    
Cu1   O10   S    
C5    H18   S    
C4    O6    A    
Cu1   O6    S    
C10   C22   S    
H11   N5    S    
H2    O2    S    
C18   O3    D    
C15   H6    S    
C17   H13   S    
C1    C11   S    
