data_mof_unit_4312.cif
_audit_creation_date              2012-12-11T17:09:38-0500
_audit_creation_method            fapswitch 2.2
_symmetry_space_group_name_H-M    P1
_symmetry_Int_Tables_number       1
_space_group_crystal_system       triclinic
_cell_length_a                    14.804995
_cell_length_b                    6.930866
_cell_length_c                    13.503538
_cell_angle_alpha                 89.999043
_cell_angle_beta                  99.792713
_cell_angle_gamma                 90.000514
_cell_volume                      1365.4283455

loop_
_atom_site_label
_atom_site_type_symbol
_atom_type_description
_atom_site_fract_x
_atom_site_fract_y
_atom_site_fract_z
_atom_type_partial_charge
O1    O     O_R   0.586930 0.505770 0.416350 -0.538531
O2    O     O_R   0.413070 0.005770 0.583650 -0.538526
O3    O     O_R   0.397900 0.173100 0.389630 -0.534475
O4    O     O_R   0.602100 0.673100 0.610370 -0.534470
C1    C     C_R   0.364286 0.345424 0.362824 0.724931
C2    C     C_R   0.635713 0.845423 0.637176 0.724942
O5    O     O_R   0.585280 0.175870 0.404330 -0.543730
O6    O     O_R   0.414720 0.675870 0.595670 -0.543732
O7    O     O_R   0.601790 0.008380 0.598460 -0.536174
O8    O     O_R   0.398210 0.508380 0.401540 -0.536173
C3    C     C_R   0.614675 0.344731 0.382801 0.704129
C4    C     C_R   0.385326 0.844728 0.617200 0.704138
O9    O     O_3   0.505200 0.340120 0.563670 -0.367509
O10   O     O_3   0.494800 0.840120 0.436330 -0.367515
V1    V     V_3+5 0.499040 0.064180 0.488190 1.425361
V2    V     V_3+5 0.500960 0.564180 0.511810 1.425370
C5    C     C_R   0.319848 0.002287 0.757536 0.081879
C6    C     C_R   0.680153 0.502278 0.242457 0.081925
C7    C     C_R   0.319015 0.852337 0.687845 -0.101979
C8    C     C_R   0.680989 0.352345 0.312160 -0.102047
C9    C     C_R   0.254395 0.703666 0.690083 -0.187739
C10   C     C_R   0.745610 0.203677 0.309930 -0.187674
H1    H     H_    0.251805 0.583262 0.638769 0.124232
H2    H     H_    0.748202 0.083279 0.361249 0.124219
C11   C     C_R   0.188064 0.715948 0.753484 -0.214612
C12   C     C_R   0.811940 0.215950 0.246525 -0.214633
H3    H     H_    0.136672 0.604003 0.749672 0.126317
H4    H     H_    0.863333 0.104007 0.250342 0.126308
C13   C     C_R   0.184753 0.876718 0.816756 -0.138377
C14   C     C_R   0.815246 0.376708 0.183241 -0.138423
C15   C     C_R   0.254803 0.013701 0.820662 0.174781
C16   C     C_R   0.745192 0.513678 0.179326 0.174908
C17   C     C_3   0.249937 0.228668 0.812496 -0.193881
C18   C     C_3   0.750045 0.728647 0.187453 -0.193970
C19   C     C_3   0.321503 0.215597 0.743591 -0.468013
C20   C     C_3   0.678487 0.715596 0.256370 -0.467807
H5    H     H_    0.181984 0.280119 0.773838 0.105326
H6    H     H_    0.818001 0.780118 0.226090 0.105259
H7    H     H_    0.389454 0.278366 0.775221 0.180361
H8    H     H_    0.610532 0.778338 0.224736 0.180393
H9    H     H_    0.294636 0.257785 0.664709 0.165244
H10   H     H_    0.705358 0.757827 0.335243 0.165194
C21   C     C_1   0.783463 0.877124 0.782883 -0.148455
C22   C     C_1   0.216535 0.377123 0.217119 -0.148442
C23   C     C_1   0.716172 0.860130 0.716844 -0.171229
C24   C     C_1   0.283827 0.360131 0.283158 -0.171283
O11   O     O_R   0.101720 0.231700 0.098560 -0.526657
O12   O     O_R   0.898280 0.731700 0.901440 -0.526718
O13   O     O_R   0.914700 0.558980 0.095690 -0.536914
O14   O     O_R   0.085300 0.058980 0.904310 -0.536817
C25   C     C_R   0.885443 0.389740 0.117334 0.713276
C26   C     C_R   0.114558 0.889743 0.882665 0.713428
O15   O     O_R   0.102080 0.561590 0.110390 -0.544479
O16   O     O_R   0.897920 0.061590 0.889610 -0.544475
O17   O     O_R   0.086950 0.728940 0.916330 -0.545002
O18   O     O_R   0.913050 0.228940 0.083670 -0.545034
C27   C     C_R   0.136062 0.391913 0.137484 0.760193
C28   C     C_R   0.863937 0.891914 0.862518 0.759868
O19   O     O_3   0.994770 0.394510 0.936380 -0.374695
O20   O     O_3   0.005230 0.894510 0.063620 -0.374739
V3    V     V_3+5 0.000970 0.670520 0.011800 1.451178
V4    V     V_3+5 0.999030 0.170520 0.988200 1.451279
C29   C     C_2   0.284226 0.331947 0.909837 0.406182
H11   H     H_    0.301493 0.483909 0.908404 0.064352
O21   O     O_2   0.292162 0.248252 0.990466 -0.535300
C30   C     C_2   0.715745 0.831875 0.090096 0.406222
H12   H     H_    0.698734 0.983948 0.091479 0.064328
O22   O     O_2   0.707506 0.748008 0.009507 -0.535297

loop_
_geom_bond_atom_site_label_1
_geom_bond_atom_site_label_2
_ccdc_geom_bond_type
O4    V2    S    
O5    C3    A    
C14   C25   S    
C15   C17   S    
O9    V2    S    
O12   C28   A    
C7    C9    A    
C2    C23   S    
O11   C27   A    
O16   V4    S    
C1    C24   S    
C20   H10   S    
O1    C3    A    
C26   O17   A    
O6    C4    A    
C22   C27   S    
C17   C29   S    
O2    C4    A    
C29   O21   D    
C18   C30   S    
C2    O7    A    
O5    V1    S    
C30   H12   S    
O7    V1    S    
O3    V1    S    
C1    O8    A    
C13   C15   A    
O1    V2    S    
O8    V2    S    
C14   C16   A    
O2    V1    S    
C21   C23   T    
O12   V3    S    
C6    C20   S    
O11   V4    S    
C19   H9    S    
O17   V3    S    
C4    C7    S    
O20   V4    S    
C12   H4    S    
C17   C19   S    
C18   C20   S    
C8    C10   A    
C12   C14   A    
O18   V4    S    
O9    V1    S    
C9    H1    S    
C11   C13   A    
C19   H7    S    
C5    C15   A    
O10   V2    S    
C3    C8    S    
O19   V3    S    
O14   V4    S    
O13   V3    S    
C30   O22   D    
C29   H11   S    
C20   H8    S    
C6    C16   A    
C6    C8    A    
O4    C2    A    
C25   O18   A    
C10   C12   A    
C10   H2    S    
O16   C28   A    
O14   C26   A    
C9    C11   A    
O10   V1    S    
O19   V4    S    
O15   C27   A    
O6    V2    S    
C5    C19   S    
C21   C28   S    
C5    C7    A    
C18   H6    S    
O15   V3    S    
C13   C26   S    
C17   H5    S    
O13   C25   A    
C22   C24   T    
O20   V3    S    
O3    C1    A    
C11   H3    S    
C16   C18   S    
