data_mof_unit_3333.cif
_audit_creation_date              2012-10-26T19:07:30-0400
_audit_creation_method            fapswitch 2.2
_symmetry_space_group_name_H-M    P1
_symmetry_Int_Tables_number       1
_space_group_crystal_system       triclinic
_cell_length_a                    15.065823
_cell_length_b                    13.714812
_cell_length_c                    10.636374
_cell_angle_alpha                 89.811442
_cell_angle_beta                  90.117019
_cell_angle_gamma                 89.997208
_cell_volume                      2197.72354573

loop_
_atom_site_label
_atom_site_type_symbol
_atom_type_description
_atom_site_fract_x
_atom_site_fract_y
_atom_site_fract_z
_atom_type_partial_charge
C1    C     C_R   0.328916 0.499969 0.502003 0.631079
C2    C     C_R   0.958130 0.627627 0.335203 0.273888
C3    C     C_R   0.446825 0.792799 0.581803 0.099104
C4    C     C_R   0.553173 0.207201 0.418195 0.099099
C5    C     C_R   0.553137 0.793200 0.418163 0.092111
C6    C     C_R   0.446866 0.206800 0.581841 0.092111
C7    C     C_R   0.554782 0.896462 0.415498 -0.026394
C8    C     C_R   0.445220 0.103538 0.584504 -0.026395
C9    C     C_R   0.445226 0.896057 0.584524 -0.025261
C10   C     C_R   0.554774 0.103943 0.415476 -0.025265
C11   C     C_R   0.500000 0.948190 0.500001 -0.032405
C12   C     C_R   0.671082 0.500032 0.498019 0.631078
C13   C     C_R   0.500001 0.051809 0.499999 -0.032403
C14   C     C_R   0.609439 0.948875 0.331013 0.259377
C15   C     C_R   0.390563 0.051124 0.668990 0.259355
C16   C     C_R   0.390617 0.948080 0.669062 0.257426
C17   C     C_R   0.609384 0.051920 0.330939 0.257431
C18   C     C_R   0.499858 0.500236 0.259246 0.608792
C19   C     C_R   0.500142 0.499763 0.740753 0.608804
C20   C     C_3   0.500990 0.593351 0.040181 -0.119881
C21   C     C_3   0.499009 0.406648 0.959818 -0.119843
C22   C     C_3   0.573932 0.545372 0.958184 -0.127162
C23   C     C_R   0.953097 0.501021 0.498134 -0.062094
C24   C     C_3   0.426066 0.454627 0.041816 -0.127147
C25   C     C_3   0.428819 0.546191 0.957727 0.410254
C26   C     C_3   0.571180 0.453808 0.042273 0.410257
C27   C     C_3   0.500595 0.499073 0.877291 -0.025371
C28   C     C_3   0.499404 0.500926 0.122708 -0.025401
C29   C     C_R   0.813263 0.557755 0.406156 0.207759
C30   C     C_R   0.186758 0.442307 0.594056 0.207786
C31   C     C_R   0.767542 0.500404 0.494771 0.022763
C32   C     C_R   0.232458 0.499616 0.505358 0.022736
C33   C     C_R   0.812976 0.442171 0.580859 0.343917
C34   C     C_R   0.046899 0.499120 0.502221 -0.062117
C35   C     C_R   0.187001 0.557911 0.419366 0.343926
C36   C     C_R   0.905231 0.440261 0.580958 -0.006681
C37   C     C_R   0.094754 0.559885 0.419380 -0.006653
C38   C     C_R   0.907308 0.563305 0.411597 0.031001
C39   C     C_R   0.092698 0.436854 0.588782 0.031025
C40   C     C_R   0.949775 0.376994 0.662344 -0.019544
C41   C     C_R   0.050202 0.623268 0.338144 -0.019495
C42   C     C_R   0.041851 0.372670 0.665367 0.273910
Cl1   Cl    Cl    0.750103 0.607188 0.280026 -0.428328
Cl2   Cl    Cl    0.250025 0.392719 0.719976 -0.428392
Cl3   Cl    Cl    0.085184 0.276648 0.757828 -0.351719
Cl4   Cl    Cl    0.914742 0.723941 0.243305 -0.351778
Cl5   Cl    Cl    0.678832 0.886415 0.223914 -0.386658
Cl6   Cl    Cl    0.321173 0.113584 0.776092 -0.386714
Cl7   Cl    Cl    0.321542 0.885135 0.776587 -0.396816
Cl8   Cl    Cl    0.678458 0.114865 0.223413 -0.396756
Cu1   Cu    Cu3+1 0.500000 0.597420 0.500000 1.085820
Cu2   Cu    Cu3+1 0.500000 0.402580 0.500000 1.085850
F1    F     F_    0.355160 0.593953 0.910169 -0.530964
F2    F     F_    0.644839 0.406046 0.089830 -0.530936
F3    F     F_    0.766689 0.387086 0.664926 -0.594795
F4    F     F_    0.233266 0.612997 0.335271 -0.594776
H1    H     H_    0.500719 0.669595 0.074957 0.192454
H2    H     H_    0.405966 0.248916 0.644837 0.207601
H3    H     H_    0.499280 0.330404 0.925042 0.192470
H4    H     H_    0.634768 0.581197 0.921683 0.190099
H5    H     H_    0.365231 0.418802 0.078316 0.190129
H6    H     H_    0.912594 0.327912 0.722556 0.232904
H7    H     H_    0.087369 0.672437 0.278034 0.232862
H8    H     H_    0.405790 0.750360 0.644662 0.204179
H9    H     H_    0.594207 0.249640 0.355334 0.204184
H10   H     H_    0.594040 0.751082 0.355170 0.207566
N1    N     N_R   0.500000 0.743810 0.500000 -0.271036
N2    N     N_R   0.500000 0.256190 0.500000 -0.271035
O1    O     O_R   0.370260 0.582280 0.500030 -0.453030
O2    O     O_R   0.629740 0.417720 0.499970 -0.453039
O3    O     O_R   0.629740 0.582280 0.499970 -0.497344
O4    O     O_R   0.370260 0.417720 0.500030 -0.497299
O5    O     O_R   0.499980 0.582260 0.316850 -0.495270
O6    O     O_R   0.500020 0.417740 0.683150 -0.495246
O7    O     O_R   0.500020 0.582260 0.683150 -0.499841
O8    O     O_R   0.499980 0.417740 0.316850 -0.499823

loop_
_geom_bond_atom_site_label_1
_geom_bond_atom_site_label_2
_ccdc_geom_bond_type
C33   F3    S    
C21   C26   S    
C24   H5    S    
C34   C37   A    
C6    H2    S    
C5    N1    A    
C3    H8    S    
C2    Cl4   S    
C7    C11   A    
C8    C13   A    
C3    C9    A    
C35   C37   A    
C9    C16   A    
Cu1   O7    S    
C21   H3    S    
Cu2   O6    S    
C22   H4    S    
C4    H9    S    
C20   C25   S    
C2    C41   A    
C15   C16   A    
C33   C36   A    
C40   H6    S    
C7    C14   A    
C29   C38   A    
C31   C33   A    
C19   C27   S    
Cu2   N2    S    
C6    N2    A    
C21   C27   S    
C29   Cl1   S    
C14   C17   A    
C30   Cl2   S    
Cu1   O3    S    
C15   Cl6   S    
C26   F2    S    
C39   C42   A    
C1    O4    A    
Cu1   Cu2   S    
C32   C35   A    
C24   C28   S    
C36   C40   A    
C18   C28   S    
C16   Cl7   S    
C4    N2    A    
C6    C8    A    
C20   C28   S    
C1    C32   S    
C1    O1    A    
C34   C39   A    
C42   Cl3   S    
Cu2   O4    S    
C2    C38   A    
C23   C34   A    
Cu1   N1    S    
C24   C25   S    
C9    C11   A    
C12   O3    A    
C20   C22   S    
C8    C15   A    
C22   C27   S    
C12   C31   S    
C25   C27   S    
C41   H7    S    
C4    C10   A    
C10   C17   A    
C5    C7    A    
C12   O2    A    
C18   O8    A    
C35   F4    S    
C19   O6    A    
C3    N1    A    
Cu1   O5    S    
C25   F1    S    
C5    H10   S    
Cu2   O8    S    
C10   C13   A    
C17   Cl8   S    
C14   Cl5   S    
C18   O5    A    
C23   C38   A    
C26   C28   S    
C19   O7    A    
C29   C31   A    
C30   C32   A    
C11   C13   A    
C40   C42   A    
C30   C39   A    
C37   C41   A    
Cu2   O2    S    
C23   C36   A    
C22   C26   S    
C21   C24   S    
Cu1   O1    S    
C20   H1    S    
