data_mof_unit_4991.cif
_audit_creation_date              2012-12-11T17:57:10-0500
_audit_creation_method            fapswitch 2.2
_symmetry_space_group_name_H-M    P1
_symmetry_Int_Tables_number       1
_space_group_crystal_system       triclinic
_cell_length_a                    8.254734
_cell_length_b                    12.797193
_cell_length_c                    17.322582
_cell_angle_alpha                 99.225393
_cell_angle_beta                  96.519057
_cell_angle_gamma                 99.346177
_cell_volume                      1763.8716054

loop_
_atom_site_label
_atom_site_type_symbol
_atom_type_description
_atom_site_fract_x
_atom_site_fract_y
_atom_site_fract_z
_atom_type_partial_charge
Ba1   Ba    Ba6+2 0.843240 0.548600 0.461650 1.688966
Ba2   Ba    Ba6+2 0.346590 0.451490 0.538360 1.668095
C1    C     C_3   0.535705 0.901332 0.245435 -0.383869
C2    C     C_3   0.376635 0.511906 0.215180 -0.032655
C3    C     C_2   0.304753 0.517786 0.132599 -0.124431
C4    C     C_3   0.072673 0.764186 0.246490 0.419070
C5    C     C_2   0.139588 0.482594 0.109574 0.002795
C6    C     C_2   0.035282 0.445731 0.170100 -0.171493
C7    C     C_1   0.100754 0.459643 0.246012 0.068064
C8    C     C_R   0.885193 0.468970 0.862598 -0.134573
C9    C     C_R   0.821687 0.453327 0.782682 0.003949
C10   C     C_R   0.081898 0.544612 0.753962 0.019515
C11   C     C_R   0.148457 0.559662 0.834496 -0.123285
C12   C     C_3   0.574051 0.805600 0.280822 0.312409
C13   C     C_R   0.051580 0.519135 0.889442 0.024390
C14   C     C_2   0.060506 0.474864 0.026381 -0.039009
C15   C     C_2   0.126607 0.531403 0.973872 -0.038180
C16   C     C_3   0.021425 0.785625 0.164017 0.341379
C17   C     C_R   0.921450 0.487062 0.728596 -0.263597
C18   C     C_R   0.766261 0.185710 0.545470 -0.273402
C19   C     C_R   0.422300 0.808188 0.471772 -0.283539
C20   C     C_R   0.388042 0.985751 0.451670 -0.105519
C21   C     C_R   0.324906 0.876592 0.442466 -0.026520
C22   C     C_R   0.581034 0.849014 0.514192 0.060449
C23   C     C_3   0.422145 0.209206 0.283826 0.252126
C24   C     C_R   0.644791 0.962112 0.526390 -0.066128
C25   C     C_R   0.546276 0.030919 0.494100 -0.080118
C26   C     C_R   0.608980 0.143147 0.504138 0.026349
C27   C     C_R   0.866961 0.118747 0.573391 0.013499
C28   C     C_3   0.159968 0.808751 0.714053 0.680142
C29   C     C_R   0.805374 0.008562 0.566963 -0.100975
C30   C     C_3   0.137963 0.813406 0.801067 -0.306545
C31   C     C_3   0.931042 0.219812 0.374511 0.311017
C32   C     C_3   0.876511 0.097550 0.360224 -0.358857
C33   C     C_3   0.725989 0.700217 0.702058 0.383245
C34   C     C_3   0.498226 0.179801 0.208105 -0.476525
C35   C     C_3   0.695125 0.731578 0.786979 -0.357631
C36   C     C_2   0.243044 0.155313 0.266558 0.573127
C37   C     C_2   0.440527 0.329171 0.301764 0.361691
C38   C     C_2   0.181927 0.288926 0.806812 0.559008
C39   C     C_3   0.076769 0.899251 0.076005 0.172519
C40   C     C_3   0.267819 0.917261 0.630203 0.212244
C41   C     C_3   0.082025 0.187245 0.756819 0.406973
C42   C     C_3   0.044240 0.098230 0.804832 -0.274803
C43   C     C_3   0.580158 0.187107 0.723058 0.333218
C44   C     C_3   0.584413 0.088427 0.761154 -0.354415
C45   C     C_2   0.248031 0.521369 0.269977 -0.133618
H1    H     H_    0.688113 0.831790 0.325040 0.079151
H2    H     H_    0.843968 0.671207 0.701866 -0.129209
H3    H     H_    0.630107 0.631336 0.672847 0.105122
H4    H     H_    0.646101 0.939706 0.222357 0.112104
H5    H     H_    0.786617 0.803603 0.817823 0.092960
H6    H     H_    0.705983 0.664184 0.819188 0.073638
H7    H     H_    0.568910 0.750789 0.787821 0.137320
H8    H     H_    0.467863 0.777141 0.310872 -0.031967
H9    H     H_    0.499212 0.960605 0.291106 0.135365
H10   H     H_    0.481683 0.091061 0.189986 0.151932
H11   H     H_    0.438735 0.212341 0.158494 0.053740
H12   H     H_    0.260142 0.822288 0.838093 0.092998
H13   H     H_    0.633354 0.213070 0.217849 0.157877
H14   H     H_    0.431731 0.874556 0.196071 0.172525
H15   H     H_    0.036805 0.715234 0.120258 -0.066471
H16   H     H_    0.961748 0.206455 0.734197 -0.219284
H17   H     H_    0.161225 0.075581 0.829350 0.142991
H18   H     H_    0.977686 0.125543 0.854360 0.066627
H19   H     H_    0.964388 0.026371 0.766140 0.102511
H20   H     H_    0.701664 0.209168 0.703107 -0.034980
H21   H     H_    0.482991 0.167263 0.670530 0.075542
H22   H     H_    0.683102 0.107414 0.813023 0.105580
H23   H     H_    0.080038 0.882941 0.822067 0.085591
H24   H     H_    0.610261 0.021196 0.718040 0.074950
H25   H     H_    0.991377 0.689212 0.253208 0.004915
H26   H     H_    0.463811 0.063624 0.781543 0.179598
H27   H     H_    0.242914 0.587738 0.992443 0.063886
H28   H     H_    0.904894 0.410900 0.151950 0.097647
H29   H     H_    0.802777 0.442847 0.902723 0.080717
H30   H     H_    0.943822 0.419032 0.008872 0.071702
H31   H     H_    0.388379 0.538837 0.091279 0.089654
H32   H     H_    0.274376 0.602702 0.854055 0.081155
H33   H     H_    0.266435 0.587383 0.319830 0.035869
H34   H     H_    0.055057 0.741088 0.809938 0.001345
H35   H     H_    0.870034 0.474355 0.666809 0.068388
H36   H     H_    0.308659 0.034544 0.427059 0.160674
H37   H     H_    0.203095 0.752166 0.251569 -0.094389
H38   H     H_    0.886955 0.960337 0.591087 0.107845
H39   H     H_    0.816471 0.270281 0.549368 0.046797
H40   H     H_    0.370874 0.723318 0.464816 0.082666
H41   H     H_    0.888283 0.793318 0.158145 0.047924
H42   H     H_    0.040601 0.781181 0.674934 0.011303
H43   H     H_    0.156962 0.184607 0.226845 -0.067370
H44   H     H_    0.529429 0.378371 0.275554 0.025099
H45   H     H_    0.842691 0.258797 0.407265 -0.009937
H46   H     H_    0.208727 0.358620 0.779430 0.015520
H47   H     H_    0.945301 0.909920 0.066369 0.027230
H48   H     H_    0.098701 0.832910 0.030650 0.018060
H49   H     H_    0.155768 0.974758 0.068492 0.066479
H50   H     H_    0.305982 0.001453 0.623861 0.096021
H51   H     H_    0.163465 0.878492 0.582996 0.046437
H52   H     H_    0.378328 0.879640 0.623773 0.023528
H53   H     H_    0.054059 0.240440 0.411286 0.099432
H54   H     H_    0.893736 0.059907 0.300196 0.186409
H55   H     H_    0.744307 0.075344 0.366102 0.086094
H56   H     H_    0.949185 0.063217 0.404482 0.129784
O1    O     O_2   0.825360 0.427200 0.308020 -0.477994
O2    O     O_2   0.187644 0.120631 0.546262 -0.512889
O3    O     O_3   0.172562 0.150867 0.696909 -0.606188
O4    O     O_3   0.099050 0.435020 0.406000 -0.449379
O5    O     O_3   0.588300 0.633530 0.539940 -0.481445
O6    O     O_2   0.332090 0.232110 0.462130 -0.441411
O7    O     O_3   0.507289 0.166922 0.343577 -0.644360
O8    O     O_2   0.490039 0.466057 0.781536 -0.482714
O9    O     O_3   0.544867 0.270487 0.778137 -0.572172
O10   O     O_3   0.623690 0.628090 0.355970 -0.470519
O11   O     O_2   0.723257 0.552871 0.221349 -0.500250
O12   O     O_3   0.730745 0.790731 0.665132 -0.649603
O13   O     O_3   0.940381 0.255193 0.302214 -0.643548
O14   O     O_3   0.599025 0.725685 0.219995 -0.610294
O15   O     O_2   0.857620 0.767930 0.537920 -0.474866
O16   O     O_3   0.055170 0.686660 0.395490 -0.494841
O17   O     O_2   0.989468 0.878731 0.447053 -0.492229
O18   O     O_2   0.195416 0.074761 0.292914 -0.558428
O19   O     O_2   0.362300 0.372316 0.348834 -0.588320
O20   O     O_2   0.233076 0.294836 0.876678 -0.597898
O21   O     O_3   0.121474 0.881043 0.153025 -0.614859
O22   O     O_3   0.222114 0.915395 0.705815 -0.668804
O23   O     O_3   0.054921 0.851703 0.303245 -0.563414
O24   O     O_2   0.364350 0.572830 0.692030 -0.458810
O25   O     O_3   0.090660 0.565070 0.594010 -0.490653
O26   O     O_3   0.566030 0.372000 0.644040 -0.501843
O27   O     O_3   0.274214 0.742356 0.693115 -0.644748
O28   O     O_3   0.601410 0.366560 0.460070 -0.431298
O29   O     O_3   0.134540 0.313430 0.604520 -0.481806
P1    P     P_3+3 0.996360 0.395990 0.320310 1.018343
P2    P     P_3+3 0.688190 0.753610 0.561600 0.984978
P3    P     P_3+3 0.107893 0.824340 0.397851 0.968722
P4    P     P_3+3 0.193350 0.604100 0.679700 0.960847
P5    P     P_3+3 0.088014 0.175423 0.605562 0.940574
P6    P     P_3+3 0.579858 0.602740 0.253042 0.958514
P7    P     P_3+3 0.513105 0.228538 0.443265 1.010970
P8    P     P_3+3 0.605049 0.392495 0.747057 0.960989

loop_
_geom_bond_atom_site_label_1
_geom_bond_atom_site_label_2
_ccdc_geom_bond_type
C11   H32   S    
Ba2   O6    S    
C29   H38   S    
O9    P8    S    
C42   H19   S    
O14   P6    S    
Ba1   O25   S    
C38   H46   S    
C41   C42   S    
C19   H40   S    
Ba2   O25   S    
C43   O9    S    
C41   H16   S    
C5    C6    S    
C43   C44   S    
C42   H17   S    
C4    H25   S    
C30   H34   S    
C9    C17   A    
C24   C25   A    
C32   H55   S    
C37   O19   D    
C39   O21   S    
O7    P7    S    
C33   C35   S    
C22   C24   A    
C14   H30   S    
C34   H11   S    
C8    C13   A    
C40   H51   S    
C39   H49   S    
Ba2   O4    S    
Ba2   O26   S    
Ba1   Ba2   S    
Ba1   O16   S    
C44   H22   S    
C40   O22   S    
Ba2   P4    S    
C8    H29   S    
C38   C41   S    
C14   C15   D    
C18   H39   S    
C33   H2    S    
Ba2   O29   S    
C33   O12   S    
C17   H35   S    
O15   P2    D    
C35   H6    S    
Ba2   O24   S    
C12   H8    S    
C28   O22   S    
C24   C29   A    
C42   H18   S    
C26   P7    S    
Ba1   O10   S    
C45   H33   S    
C43   H21   S    
C28   H42   S    
Ba1   P1    S    
C37   H44   S    
O8    P8    D    
Ba2   O28   S    
C18   C27   A    
C1    H14   S    
C4    C16   S    
C32   H54   S    
C4    H37   S    
O1    P1    D    
O24   P4    D    
C4    O23   S    
C34   H10   S    
C40   H50   S    
C3    C5    D    
C35   H5    S    
C1    H4    S    
C6    C7    D    
O3    P5    S    
C12   H1    S    
O13   P1    S    
C18   C26   A    
C34   H13   S    
O29   P5    S    
C28   O27   S    
C2    P6    S    
C6    H28   S    
C16   H41   S    
C41   O3    S    
C9    P8    S    
O5    P2    S    
C23   C36   S    
C1    H9    S    
C39   H47   S    
C12   O14   S    
C33   H3    S    
C31   C32   S    
Ba1   O1    S    
C44   H24   S    
C1    C12   S    
C23   O7    S    
Ba1   O4    S    
C35   H7    S    
C5    C14   S    
O25   P4    S    
O23   P3    S    
C7    C45   D    
C20   C25   A    
C19   C21   A    
C15   H27   S    
C31   H45   S    
Ba1   P2    S    
C22   P2    S    
C13   C15   S    
C38   O20   D    
C31   O13   S    
C23   C34   S    
O10   P6    S    
O27   P4    S    
C2    C3    S    
Ba1   O28   S    
C30   H23   S    
C43   H20   S    
O12   P2    S    
C27   P5    S    
C36   H43   S    
C32   H56   S    
C21   P3    S    
O6    P7    D    
C31   H53   S    
C20   H36   S    
O17   P3    D    
C11   C13   A    
O4    P1    S    
C40   H52   S    
C23   C37   S    
C28   C30   S    
C39   H48   S    
O26   P8    S    
C10   C17   A    
Ba2   O5    S    
Ba1   O15   S    
O11   P6    D    
O16   P3    S    
C36   O18   D    
O28   P7    S    
C8    C9    A    
Ba1   O5    S    
O2    P5    D    
C10   C11   A    
C27   C29   A    
C10   P4    S    
C19   C22   A    
C25   C26   A    
C20   C21   A    
C16   H15   S    
C30   H12   S    
C3    H31   S    
C44   H26   S    
C16   O21   S    
C2    C45   S    
C7    P1    S    
