data_mof_unit_2408.cif
_audit_creation_date              2013-03-05T16:41:26-0500
_audit_creation_method            fapswitch 2.2
_symmetry_space_group_name_H-M    P1
_symmetry_Int_Tables_number       1
_space_group_crystal_system       triclinic
_cell_length_a                    10.838247
_cell_length_b                    10.640605
_cell_length_c                    9.906269
_cell_angle_alpha                 88.37817
_cell_angle_beta                  103.766872
_cell_angle_gamma                 91.189002
_cell_volume                      1109.06525755

loop_
_atom_site_label
_atom_site_type_symbol
_atom_site_description
_atom_site_fract_x
_atom_site_fract_y
_atom_site_fract_z
_atom_type_partial_charge
O1    O     O_R   0.500020 0.316790 0.614700 -0.598587
O2    O     O_R   0.500000 0.316760 0.385350 -0.656144
C1    C     C_R   0.514738 0.261386 0.505149 0.883191
O3    O     O_R   0.317820 0.500020 0.571850 -0.615954
O4    O     O_R   0.317800 0.499980 0.342510 -0.570913
C2    C     C_R   0.259653 0.502309 0.441678 0.948728
Zn1   Zn    Zn3+2 0.500010 0.500020 0.653140 0.983089
Zn2   Zn    Zn3+2 0.499990 0.499980 0.346860 1.031418
O5    O     O_R   0.500000 0.683240 0.614650 -0.615104
O6    O     O_R   0.499980 0.683210 0.385300 -0.585243
O7    O     O_R   0.682200 0.500020 0.657490 -0.606265
O8    O     O_R   0.682180 0.499980 0.428150 -0.605342
C3    C     C_R   0.496514 0.741114 0.496858 0.879682
C4    C     C_R   0.740669 0.500665 0.558014 0.927803
H1    H     H_    0.881642 0.470810 0.384101 0.209967
H2    H     H_    0.116922 0.568449 0.603888 0.171257
C5    C     C_2   0.123530 0.502121 0.407155 -0.239103
C6    C     C_2   0.065516 0.530556 0.505514 -0.108241
H3    H     H_    0.929461 0.536393 0.694040 0.192412
C7    C     C_2   0.876916 0.511989 0.590037 -0.317287
C8    C     C_2   0.933400 0.501805 0.485901 -0.051300
H4    H     H_    0.071278 0.470192 0.305986 0.225726
C9    C     C_R   0.544026 0.060214 0.633355 0.153684
C10   C     C_R   0.549913 0.131766 0.515667 -0.250962
C11   C     C_R   0.572597 0.070932 0.399466 -0.062450
C12   C     C_R   0.525026 0.947402 0.377746 -0.005396
C13   C     C_R   0.510350 0.875684 0.496707 -0.251480
C14   C     C_R   0.531943 0.932440 0.625811 0.149139
C15   C     C_3   0.449243 0.926955 0.727549 -0.413968
C16   C     C_3   0.460747 0.068724 0.732639 -0.438403
H5    H     H_    0.351093 0.892557 0.681076 0.206050
H6    H     H_    0.496614 0.879141 0.827140 0.242551
H7    H     H_    0.369870 0.115782 0.684517 0.216139
H8    H     H_    0.512659 0.103635 0.835688 0.237390
C17   C     C_R   0.417520 0.424916 0.051603 -0.035200
N1    N     N_R   0.499160 0.499140 0.142600 -0.132480
C18   C     C_R   0.592867 0.562252 0.092336 0.351477
C19   C     C_R   0.590687 0.563177 0.948228 -0.122379
H9    H     H_    0.661483 0.616746 0.909404 0.186595
N2    N     N_R   0.499160 0.499180 0.856960 -0.116287
C20   C     C_R   0.420133 0.421132 0.910824 0.059635
C21   C     C_3   0.278264 0.411336 0.866463 -0.329090
C22   C     C_3   0.275158 0.417843 0.020755 0.149983
H10   H     H_    0.237126 0.495084 0.804141 0.208209
N3    N     N_R   0.695930 0.626772 0.182691 0.205947
O9    O     O_R   0.810447 0.613601 0.166010 -0.390194
O10   O     O_R   0.673466 0.722776 0.250621 -0.346954
C23   C     C_2   0.233810 0.288786 0.797761 0.448204
H11   H     H_    0.270598 0.200440 0.846807 0.054806
O11   O     O_2   0.155377 0.287668 0.686738 -0.546088
N4    N     N_R   0.213127 0.533573 0.046652 0.249672
O12   O     O_R   0.089810 0.539895 0.010223 -0.336456
O13   O     O_R   0.278400 0.636641 0.080898 -0.404321
C24   C     C_2   0.231061 0.301060 0.088157 0.426152
H12   H     H_    0.283448 0.214298 0.094676 0.056151
O14   O     O_2   0.137337 0.302317 0.136192 -0.518657
C25   C     C_2   0.651029 0.132539 0.310490 0.530623
H13   H     H_    0.680386 0.230299 0.323741 0.056025
O15   O     O_2   0.693092 0.072157 0.228872 -0.484384
C26   C     C_2   0.461638 0.908443 0.233367 0.548944
H14   H     H_    0.401978 0.825195 0.215718 0.126932
O16   O     O_2   0.465981 0.974135 0.131505 -0.562951

loop_
_geom_bond_atom_site_label_1
_geom_bond_atom_site_label_2
_geom_bond_distance
_ccdc_geom_bond_type
O4    Zn2   1.964812 S    
C19   N2    1.358369 A    
Zn1   N2    2.021074 S    
C18   C19   1.421900 A    
C6    C8    1.426350 S    
C17   C22   1.500610 S    
C20   C21   1.497517 S    
C22   C24   1.516135 S    
C3    C13   1.436637 S    
C5    H4    1.087065 S    
Zn2   O8    1.946996 S    
C14   C15   1.498999 S    
C23   O11   1.219722 D    
C5    C6    1.323814 D    
C25   H13   1.083814 S    
C15   H5    1.112580 S    
C21   C23   1.504614 S    
C9    C14   1.365626 A    
C10   C11   1.409972 A    
C26   O16   1.220803 D    
Zn1   O7    1.964810 S    
C22   N4    1.472607 S    
C1    C10   1.432927 S    
C15   C16   1.512344 S    
C21   H10   1.108334 S    
N1    C18   1.387030 A    
O3    Zn1   1.946996 S    
O3    C2    1.293381 A    
N2    C20   1.367825 A    
O8    C4    1.291940 A    
O2    C1    1.286541 A    
C15   H6    1.112261 S    
O1    C1    1.293540 A    
N3    O10   1.297251 A    
C12   C13   1.424675 A    
O4    C2    1.288230 A    
C17   C20   1.403337 A    
O7    C4    1.292037 A    
C24   O14   1.220426 D    
C25   O15   1.221204 D    
C21   C22   1.540359 S    
C16   H8    1.111786 S    
C9    C10   1.387837 A    
C18   N3    1.430849 S    
N4    O12   1.301504 A    
C11   C25   1.493329 S    
C9    C16   1.490351 S    
C4    C7    1.437894 S    
H1    C8    1.087353 S    
C19   H9    1.082339 S    
C7    C8    1.326790 D    
H2    C6    1.084978 S    
Zn2   N1    2.021604 S    
C13   C14   1.396628 A    
Zn1   O5    1.975885 S    
C2    C5    1.432953 S    
O5    C3    1.296755 A    
C24   H12   1.086179 S    
C23   H11   1.084545 S    
C16   H7    1.109776 S    
O1    Zn1   1.997074 S    
C11   C12   1.405321 A    
N3    O9    1.301380 A    
C12   C26   1.497854 S    
O6    C3    1.289027 A    
Zn2   O6    1.997073 S    
O2    Zn2   1.975887 S    
H3    C7    1.087656 S    
C26   H14   1.079122 S    
N4    O13   1.301139 A    
C17   N1    1.360499 A    
