data_mof_unit_1088.cif
_audit_creation_date              2012-12-10T17:24:46-0500
_audit_creation_method            fapswitch 2.2
_symmetry_space_group_name_H-M    P1
_symmetry_Int_Tables_number       1
_space_group_crystal_system       triclinic
_cell_length_a                    18.649099
_cell_length_b                    18.550831
_cell_length_c                    19.045336
_cell_angle_alpha                 109.266587
_cell_angle_beta                  110.529684
_cell_angle_gamma                 108.380868
_cell_volume                      5085.49481136

loop_
_atom_site_label
_atom_site_type_symbol
_atom_type_description
_atom_site_fract_x
_atom_site_fract_y
_atom_site_fract_z
_atom_type_partial_charge
C1    C     C_R   0.621297 0.619937 0.501579 0.856000
C2    C     C_R   0.669327 0.753250 0.491098 0.019640
C3    C     C_3   0.762422 0.778973 0.248310 -0.696898
C4    C     C_3   0.727457 0.476598 0.966141 -0.741562
C5    C     C_3   0.004807 0.524864 0.654612 -0.798574
C6    C     C_3   0.959443 0.244802 0.993149 -0.657945
C7    C     C_3   0.089063 0.339280 0.260725 -0.817653
C8    C     C_3   0.498741 0.872438 0.549508 -0.801140
C9    C     C_R   0.810730 0.817959 0.501358 -0.222693
C10   C     C_R   0.379827 0.500973 0.379932 0.852950
C11   C     C_R   0.819166 0.742974 0.496406 0.058553
C12   C     C_R   0.760264 0.681022 0.503617 0.069835
C13   C     C_R   0.685220 0.686167 0.499456 -0.172960
C14   C     C_R   0.884624 0.727226 0.483148 -0.155494
C15   C     C_R   0.897437 0.658726 0.488141 -0.143638
C16   C     C_R   0.845254 0.603654 0.505386 -0.143633
C17   C     C_R   0.777054 0.614003 0.512638 -0.158189
C18   C     C_3   0.175896 0.450289 0.239147 0.271474
C19   C     C_R   0.785146 0.635325 0.712959 -0.144684
C20   C     C_R   0.864025 0.712465 0.766570 -0.204204
C21   C     C_R   0.921694 0.728064 0.846121 -0.165935
C22   C     C_R   0.379458 0.379968 0.498843 0.877212
C23   C     C_R   0.903012 0.664428 0.871712 0.265044
C24   C     C_R   0.829322 0.577566 0.808554 -0.019394
C25   C     C_R   0.765728 0.567744 0.733900 0.043784
C26   C     C_R   0.815983 0.499877 0.814648 -0.219367
C27   C     C_R   0.737825 0.418382 0.752272 0.037392
C28   C     C_R   0.666681 0.415785 0.690912 0.002476
C29   C     C_3   0.247820 0.531356 0.326596 -0.218233
C30   C     C_R   0.682877 0.491478 0.682028 -0.164509
C31   C     C_R   0.727830 0.338420 0.750175 -0.211413
C32   C     C_R   0.645354 0.270035 0.715399 -0.197946
C33   C     C_R   0.571666 0.272476 0.666756 0.248663
C34   C     C_R   0.614598 0.493228 0.619209 0.907158
C35   C     C_R   0.583052 0.337172 0.641876 0.084757
C36   C     C_R   0.404670 0.386445 0.655609 -0.240936
C37   C     C_R   0.408555 0.414004 0.733882 -0.189677
C38   C     C_R   0.335834 0.371149 0.738605 0.245848
C39   C     C_R   0.265266 0.289651 0.665514 0.106802
C40   C     C_3   0.312947 0.502165 0.314073 -0.004418
C41   C     C_R   0.257245 0.263572 0.580786 0.001885
C42   C     C_R   0.325267 0.320613 0.577959 0.025485
C43   C     C_R   0.186265 0.186187 0.499303 -0.200316
C44   C     C_R   0.179292 0.173752 0.417110 0.021385
C45   C     C_R   0.240643 0.243314 0.419031 0.017867
C46   C     C_3   0.331377 0.555477 0.269702 -0.138003
C47   C     C_R   0.313744 0.313048 0.498471 -0.157537
C48   C     C_R   0.115436 0.096974 0.332139 0.149594
C49   C     C_R   0.119967 0.092840 0.258864 -0.203925
C50   C     C_R   0.173729 0.166270 0.261544 0.250084
C51   C     C_R   0.587254 0.749026 0.473874 -0.234064
C52   C     C_R   0.229225 0.242229 0.340843 -0.250832
C53   C     C_R   0.001400 0.619980 0.121653 0.885092
C54   C     C_R   0.124520 0.501057 0.125416 0.857589
C55   C     C_R   0.007751 0.378940 0.888714 0.905926
C56   C     C_R   0.882847 0.500963 0.883397 0.872787
C57   C     C_R   0.997473 0.876601 0.381358 0.926826
C58   C     C_3   0.264540 0.584198 0.280317 -0.211980
C59   C     C_R   0.879341 0.884969 0.504104 0.909938
C60   C     C_R   0.999044 0.120771 0.618619 0.880268
C61   C     C_R   0.120273 0.120063 0.499807 0.946481
C62   C     C_R   0.575927 0.821372 0.484182 0.242077
C63   C     C_R   0.161403 0.772980 0.266993 -0.242117
C64   C     C_R   0.237646 0.853970 0.324163 0.282627
C65   C     C_R   0.231293 0.924236 0.373491 -0.164356
C66   C     C_R   0.152111 0.910905 0.370320 -0.238441
C67   C     C_R   0.075165 0.827957 0.313582 0.062135
C68   C     C_R   0.078142 0.761456 0.254957 0.054693
C69   C     C_R   0.996440 0.809705 0.315440 -0.187309
C70   C     C_3   0.191575 0.502110 0.193528 -0.036770
C71   C     C_R   0.918580 0.727113 0.255995 0.005562
C72   C     C_R   0.917795 0.666899 0.186676 -0.044085
C73   C     C_R   0.644389 0.896925 0.504357 -0.207378
C74   C     C_R   0.998540 0.684863 0.187084 -0.203165
C75   C     C_R   0.841089 0.700270 0.262658 0.184559
C76   C     C_R   0.777132 0.612237 0.214681 -0.249368
C77   C     C_R   0.773409 0.556771 0.142975 -0.204857
C78   C     C_R   0.835807 0.588870 0.120730 0.276502
C79   C     C_R   0.962789 0.377111 0.728956 -0.224936
C80   C     C_R   0.959702 0.389943 0.659813 0.280930
C81   C     C_R   0.977897 0.339343 0.603254 -0.158929
C82   C     C_3   0.257217 0.473443 0.181841 -0.193703
C83   C     C_R   0.993682 0.273646 0.612879 -0.242353
C84   C     C_R   0.721245 0.898818 0.506629 0.155396
C85   C     C_R   0.991059 0.256464 0.679455 0.070347
C86   C     C_R   0.984852 0.314538 0.743129 0.047169
C87   C     C_R   0.993412 0.182694 0.683674 -0.207284
C88   C     C_R   0.992010 0.167832 0.751564 0.039121
C89   C     C_R   0.004024 0.234641 0.824881 0.025650
C90   C     C_R   0.000565 0.308963 0.819216 -0.198780
C91   C     C_R   0.979441 0.086659 0.747305 -0.147817
C92   C     C_R   0.996589 0.077162 0.819334 -0.189953
C93   C     C_R   0.020119 0.145695 0.895436 -0.189724
C94   C     C_3   0.240207 0.419858 0.227309 -0.182190
C95   C     C_R   0.735561 0.825116 0.500047 0.023329
C96   C     C_R   0.018118 0.221786 0.898558 0.200191
C97   C     C_3   0.745571 0.992523 0.445183 -0.678885
C98   C     C_3   0.454306 0.120965 0.583040 -0.834209
C99   C     C_3   0.017099 0.779729 0.025471 -0.778734
C100  C     C_3   0.527978 0.265522 0.489637 -0.667782
C101  C     C_3   0.135472 0.085404 0.109013 -0.829002
C102  C     C_3   0.406728 0.485592 0.892762 -0.820853
C103  C     C_3   0.252211 0.203155 0.735369 -0.644926
C104  C     C_3   0.958810 0.016077 0.264439 -0.676337
C105  C     C_3   0.400172 0.940174 0.395229 -0.802792
H1    H     H_    0.272857 0.651012 0.299969 0.132221
H2    H     H_    0.244529 0.553783 0.386553 0.149050
H3    H     H_    0.635704 0.953670 0.513394 0.147836
H4    H     H_    0.809804 0.029634 0.575058 0.211653
H5    H     H_    0.796884 0.049189 0.452170 0.248150
H6    H     H_    0.693113 0.008755 0.444921 0.192136
H7    H     H_    0.718748 0.934665 0.382103 0.227189
H8    H     H_    0.925547 0.765728 0.466618 0.156821
H9    H     H_    0.948319 0.648683 0.478958 0.137002
H10   H     H_    0.737774 0.568061 0.524497 0.150422
H11   H     H_    0.440582 0.230769 0.633205 0.225603
H12   H     H_    0.739913 0.629021 0.654318 0.135469
H13   H     H_    0.436368 0.113269 0.518128 0.235692
H14   H     H_    0.394701 0.078445 0.579984 0.245377
H15   H     H_    0.503568 0.099457 0.602769 0.245800
H16   H     H_    0.878203 0.762539 0.748432 0.153715
H17   H     H_    0.914450 0.659402 0.982115 0.198961
H18   H     H_    0.045757 0.785579 0.090264 0.253027
H19   H     H_    0.987116 0.822938 0.026974 0.219180
H20   H     H_    0.071262 0.801053 0.012238 0.237354
H21   H     H_    0.397619 0.598932 0.284535 0.125817
H22   H     H_    0.782745 0.329056 0.779479 0.179050
H23   H     H_    0.979081 0.792065 0.888654 0.144568
H24   H     H_    0.639187 0.215791 0.727263 0.151998
H25   H     H_    0.454593 0.282032 0.546472 0.216522
H26   H     H_    0.478230 0.253261 0.427529 0.237805
H27   H     H_    0.519267 0.201620 0.484358 0.204510
H28   H     H_    0.594222 0.303053 0.500628 0.242830
H29   H     H_    0.225267 0.217892 0.197059 0.218490
H30   H     H_    0.144775 0.098922 0.059296 0.234868
H31   H     H_    0.063890 0.045655 0.081237 0.240757
H32   H     H_    0.169537 0.048446 0.124271 0.246813
H33   H     H_    0.463942 0.421437 0.656598 0.168415
H34   H     H_    0.265247 0.300298 0.340290 0.150501
H35   H     H_    0.468307 0.470490 0.789781 0.157540
H36   H     H_    0.273332 0.395976 0.808637 0.224206
H37   H     H_    0.393196 0.499268 0.946698 0.242210
H38   H     H_    0.415959 0.540656 0.879193 0.242256
H39   H     H_    0.467459 0.480160 0.913638 0.243314
H40   H     H_    0.172973 0.258491 0.702016 0.200324
H41   H     H_    0.204263 0.154130 0.739696 0.243026
H42   H     H_    0.301640 0.257185 0.802268 0.217444
H43   H     H_    0.285055 0.172136 0.707538 0.229706
H44   H     H_    0.043716 0.966233 0.286683 0.212741
H45   H     H_    0.152151 0.966815 0.412383 0.160020
H46   H     H_    0.905104 0.962742 0.258867 0.238757
H47   H     H_    0.944439 0.000311 0.197845 0.189228
H48   H     H_    0.958115 0.077947 0.295697 0.236297
H49   H     H_    0.075240 0.032557 0.197979 0.149529
H50   H     H_    0.259524 0.450251 0.121373 0.135193
H51   H     H_    0.715429 0.493177 0.099968 0.152917
H52   H     H_    0.169274 0.719200 0.233358 0.149824
H53   H     H_    0.321525 0.805286 0.307742 0.220455
H54   H     H_    0.455188 0.932749 0.389959 0.251231
H55   H     H_    0.409722 0.950534 0.459326 0.251182
H56   H     H_    0.722025 0.590313 0.224372 0.155450
H57   H     H_    0.401433 0.997533 0.388206 0.236576
H58   H     H_    0.287381 0.988948 0.416569 0.148262
H59   H     H_    0.790672 0.739177 0.338200 0.215474
H60   H     H_    0.751183 0.829910 0.285667 0.236987
H61   H     H_    0.697724 0.719357 0.199512 0.207303
H62   H     H_    0.793219 0.803361 0.214537 0.233237
H63   H     H_    0.824128 0.602026 0.015434 0.186334
H64   H     H_    0.719901 0.458983 0.901495 0.250638
H65   H     H_    0.673159 0.489543 0.966011 0.211785
H66   H     H_    0.722973 0.420413 0.976907 0.238618
H67   H     H_    0.034872 0.137313 0.951546 0.146225
H68   H     H_    0.946814 0.416150 0.770691 0.143119
H69   H     H_    0.906756 0.472821 0.679520 0.229605
H70   H     H_    0.980361 0.569601 0.643117 0.239076
H71   H     H_    0.023903 0.501120 0.606200 0.239362
H72   H     H_    0.063131 0.562058 0.720651 0.246115
H73   H     H_    0.007505 0.236899 0.567183 0.167610
H74   H     H_    0.957521 0.029573 0.688437 0.154390
H75   H     H_    0.991514 0.016228 0.816070 0.145654
H76   H     H_    0.089842 0.310776 0.028046 0.208256
H77   H     H_    0.965057 0.295966 0.048365 0.261022
H78   H     H_    0.231393 0.352909 0.206952 0.131463
H79   H     H_    0.964629 0.194321 0.010404 0.200922
H80   H     H_    0.893658 0.215519 0.936116 0.227242
H81   H     H_    0.056958 0.427935 0.232999 0.231454
H82   H     H_    0.020971 0.299656 0.244366 0.240963
H83   H     H_    0.131660 0.379636 0.332099 0.237931
H84   H     H_    0.111698 0.293704 0.234968 0.260868
H85   H     H_    0.856023 0.551233 0.510826 0.143689
H86   H     H_    0.531173 0.689944 0.454277 0.150644
H87   H     H_    0.442409 0.754757 0.438401 0.225226
H88   H     H_    0.432487 0.864250 0.534016 0.238978
H89   H     H_    0.977100 0.348720 0.549870 0.142038
H90   H     H_    0.543775 0.942369 0.575267 0.238118
H91   H     H_    0.521282 0.853664 0.599517 0.245227
N1    N     N_2   0.781435 0.975665 0.515558 -0.278575
N2    N     N_2   0.818713 0.759930 0.305764 -0.281649
N3    N     N_2   0.811736 0.553843 0.031754 -0.276503
N4    N     N_2   0.936587 0.452551 0.646577 -0.313360
N5    N     N_2   0.028052 0.281584 0.975479 -0.289374
N6    N     N_2   0.090333 0.394555 0.222094 -0.304876
N7    N     N_2   0.494667 0.817340 0.472304 -0.307285
N8    N     N_2   0.487245 0.210893 0.643954 -0.306467
N9    N     N_2   0.951256 0.689621 0.961009 -0.265295
N10   N     N_2   0.517679 0.313845 0.559405 -0.293444
N11   N     N_2   0.171241 0.167168 0.185795 -0.311098
N12   N     N_2   0.333679 0.404458 0.817033 -0.310819
N13   N     N_2   0.208927 0.234123 0.681733 -0.279767
N14   N     N_2   0.043107 0.023773 0.314913 -0.271921
N15   N     N_2   0.317918 0.862303 0.327453 -0.304925
O1    O     O_R   0.592010 0.539900 0.448660 -0.624732
O2    O     O_R   0.948620 0.908400 0.356980 -0.599783
O3    O     O_R   0.960510 0.908410 0.552140 -0.639434
O4    O     O_R   0.591210 0.643320 0.551330 -0.618027
O5    O     O_R   0.856270 0.908390 0.447890 -0.586481
O6    O     O_R   0.051380 0.091620 0.643040 -0.626479
O7    O     O_R   0.947140 0.091600 0.538800 -0.631184
O8    O     O_R   0.143730 0.091640 0.552130 -0.602686
O9    O     O_R   0.039490 0.091610 0.447890 -0.605034
O10   O     O_R   0.408080 0.448290 0.356360 -0.630855
O11   O     O_R   0.407280 0.551710 0.459030 -0.629683
O12   O     O_R   0.054870 0.643310 0.094700 -0.621233
O13   O     O_R   0.408790 0.356680 0.448670 -0.626217
O14   O     O_R   0.407990 0.460100 0.551340 -0.619550
O15   O     O_R   0.592720 0.448290 0.540970 -0.609144
O16   O     O_R   0.591920 0.551710 0.643640 -0.631508
O17   O     O_R   0.951440 0.539900 0.094740 -0.597030
O18   O     O_R   0.044440 0.448270 0.096110 -0.630590
O19   O     O_R   0.147870 0.551680 0.096080 -0.626493
O20   O     O_R   0.952810 0.356650 0.912880 -0.605108
O21   O     O_R   0.056240 0.460060 0.912840 -0.624566
O22   O     O_R   0.859800 0.448280 0.911500 -0.614415
O23   O     O_R   0.963240 0.551690 0.911470 -0.600955
O24   O     O_R   0.052860 0.908430 0.461230 -0.634184
Zn1   Zn    Zn3+2 0.500540 0.430950 0.431450 0.923295
Zn2   Zn    Zn3+2 0.499460 0.569050 0.568550 0.944127
Zn3   Zn    Zn3+2 0.934770 0.430930 0.003810 0.930686
Zn4   Zn    Zn3+2 0.072900 0.569020 0.003770 0.958543
Zn5   Zn    Zn3+2 0.069600 0.000030 0.569620 0.926655
Zn6   Zn    Zn3+2 0.930400 0.000000 0.430410 0.904261

loop_
_geom_bond_atom_site_label_1
_geom_bond_atom_site_label_2
_ccdc_geom_bond_type
C18   C70   S    
C87   C88   A    
C93   H67   S    
C82   C94   S    
H63   N3    S    
O14   Zn2   S    
O24   Zn5   S    
C79   H68   S    
H4    N1    S    
C19   C20   A    
C61   O9    A    
C104  N14   S    
O22   Zn3   S    
C52   H34   S    
C76   H56   S    
C59   O3    A    
C3    H62   S    
C98   H14   S    
C99   H20   S    
C22   O14   A    
C77   C78   A    
C100  H28   S    
C40   C46   S    
C6    H80   S    
C39   N13   S    
C26   C27   A    
C38   N12   S    
C99   N9    S    
O20   Zn3   S    
C104  H46   S    
C7    H82   S    
C36   C37   A    
C4    H66   S    
C24   C26   A    
C66   H45   S    
C55   C90   S    
C60   O7    A    
C53   O17   A    
C38   C39   A    
C97   H6    S    
C11   C14   A    
C101  H31   S    
C105  H55   S    
O18   Zn3   S    
C68   C74   A    
C15   C16   A    
O16   Zn2   S    
O5    Zn6   S    
C3    N2    S    
O15   Zn1   S    
H81   N6    S    
C8    H90   S    
C10   C40   S    
C41   C42   A    
O7    Zn6   S    
C69   C71   A    
C2    C13   A    
C17   H10   S    
C72   C78   A    
C92   H75   S    
C10   O10   A    
H11   N8    S    
C81   H89   S    
C46   C82   S    
C36   C42   A    
C4    N3    S    
C53   C74   S    
C28   C35   A    
C16   C17   A    
C37   H35   S    
C91   H74   S    
C12   C17   A    
C1    O4    A    
O21   Zn4   S    
C50   C52   A    
C23   C24   A    
C18   N6    S    
C64   N15   S    
C8    H91   S    
O4    Zn2   S    
C31   H22   S    
C104  H48   S    
C101  N11   S    
C9    C95   A    
C73   C84   A    
O23   Zn4   S    
C50   N11   S    
C45   C47   A    
C22   C47   S    
C3    H61   S    
C94   H78   S    
C46   C58   S    
C1    O1    A    
C41   C43   A    
H17   N9    S    
C56   O23   A    
O19   Zn4   S    
C51   C62   A    
C102  H39   S    
C70   C82   S    
C32   H24   S    
O1    Zn1   S    
C60   C87   S    
H59   N2    S    
C103  H43   S    
C98   H13   S    
C5    N4    S    
H40   N13   S    
C76   C77   A    
C101  H30   S    
H53   N15   S    
C100  H26   S    
C4    H64   S    
C30   C34   S    
C85   C87   A    
C103  H42   S    
C67   C68   A    
C55   O20   A    
C7    H83   S    
C96   N5    S    
C24   C25   A    
C6    N5    S    
C72   C74   A    
C86   C90   A    
C91   C92   A    
C29   H2    S    
C97   H7    S    
C101  H32   S    
C59   O5    A    
C58   C70   S    
C73   H3    S    
C45   C52   A    
C85   C86   A    
C27   C31   A    
C63   C64   A    
C6    H79   S    
C77   H51   S    
C9    C59   S    
C84   C95   A    
O8    Zn5   S    
O3    Zn5   S    
C75   C76   A    
O17   Zn3   S    
C37   C38   A    
H25   N10   S    
C97   N1    S    
C49   H49   S    
C35   N10   S    
C31   C32   A    
C54   C70   S    
C88   C91   A    
C65   H58   S    
C14   C15   A    
C15   H9    S    
C8    H88   S    
C62   C73   A    
C18   C29   S    
C29   C58   S    
C21   H23   S    
C9    C11   A    
O6    Zn5   S    
C5    H72   S    
C20   H16   S    
C5    H70   S    
C16   H85   S    
C82   H50   S    
C48   C49   A    
C83   C85   A    
C57   O2    A    
C49   C50   A    
C93   C96   A    
C21   C23   A    
C43   C44   A    
C18   C94   S    
C5    H71   S    
C103  N13   S    
C33   N8    S    
C1    C13   S    
C78   N3    S    
C63   H52   S    
C19   H12   S    
C51   H86   S    
C44   C45   A    
C43   C61   S    
C99   H18   S    
C75   N2    S    
C98   N8    S    
C25   C30   A    
C63   C68   A    
C2    C95   A    
C100  N10   S    
C54   O18   A    
C83   H73   S    
C34   O15   A    
C20   C21   A    
C105  H57   S    
C55   O21   A    
C46   H21   S    
C8    N7    S    
H76   N5    S    
C61   O8    A    
C40   C94   S    
C80   C81   A    
C26   C56   S    
C81   C83   A    
C11   C12   A    
C100  H27   S    
C98   H15   S    
C57   O24   A    
C84   N1    S    
C7    N6    S    
C14   H8    S    
O9    Zn6   S    
C4    H65   S    
O11   Zn2   S    
H69   N4    S    
H44   N14   S    
C105  N15   S    
C53   O12   A    
C57   C69   S    
C32   C33   A    
C104  H47   S    
C89   C96   A    
O2    Zn6   S    
C34   O16   A    
C48   N14   S    
H36   N12   S    
C71   C72   A    
O10   Zn1   S    
O12   Zn4   S    
C60   O6    A    
C64   C65   A    
C71   C75   A    
C97   H5    S    
H29   N11   S    
C105  H54   S    
C22   O13   A    
C29   C40   S    
C28   C30   A    
C92   C93   A    
C33   C35   A    
H87   N7    S    
C66   C67   A    
C42   C47   A    
O13   Zn1   S    
C19   C25   A    
C3    H60   S    
C62   N7    S    
C6    H77   S    
C102  N12   S    
C2    C51   A    
C10   O11   A    
C79   C80   A    
C44   C48   A    
C12   C13   A    
C39   C41   A    
C65   C66   A    
C102  H38   S    
C58   H1    S    
C27   C28   A    
C56   O22   A    
C7    H84   S    
C102  H37   S    
C67   C69   A    
C89   C90   A    
C36   H33   S    
C54   O19   A    
C79   C86   A    
C23   N9    S    
C88   C89   A    
C103  H41   S    
C99   H19   S    
C80   N4    S    
