data_mof_unit_3137.cif
_audit_creation_date              2012-12-10T20:28:42-0500
_audit_creation_method            fapswitch 2.2
_symmetry_space_group_name_H-M    P1
_symmetry_Int_Tables_number       1
_space_group_crystal_system       triclinic
_cell_length_a                    10.746611
_cell_length_b                    10.68761
_cell_length_c                    9.927644
_cell_angle_alpha                 89.174461
_cell_angle_beta                  86.589301
_cell_angle_gamma                 92.265008
_cell_volume                      1137.17588038

loop_
_atom_site_label
_atom_site_type_symbol
_atom_type_description
_atom_site_fract_x
_atom_site_fract_y
_atom_site_fract_z
_atom_type_partial_charge
C1    C     C_R   0.507549 0.260447 0.499967 0.919106
C2    C     C_R   0.051611 0.487403 0.624066 -0.018527
C3    C     C_R   0.127854 0.532338 0.512159 -0.169639
C4    C     C_R   0.075155 0.575485 0.395105 0.409843
C5    C     C_R   0.946591 0.557777 0.383709 -0.138626
C6    C     C_R   0.874857 0.489947 0.487294 -0.204174
C7    C     C_R   0.522406 0.062367 0.620218 0.032222
C8    C     C_R   0.533324 0.130044 0.499173 -0.129736
C9    C     C_R   0.570628 0.068870 0.378683 0.471521
C10   C     C_R   0.565853 0.937779 0.379263 -0.277732
C11   C     C_R   0.526868 0.871887 0.498250 -0.115107
C12   C     C_R   0.260666 0.511850 0.504059 0.956770
C13   C     C_R   0.517533 0.934899 0.619547 0.089210
C14   C     C_3   0.423355 0.924635 0.737239 -0.192649
C15   C     C_3   0.429380 0.066778 0.737685 -0.523591
C16   C     C_R   0.461462 0.395438 0.075363 0.090074
C17   C     C_R   0.554547 0.596629 0.066270 0.476407
C18   C     C_R   0.555494 0.596326 0.923633 0.454651
C19   C     C_R   0.459247 0.396221 0.933376 -0.048843
C20   C     C_3   0.332351 0.333519 0.938864 -0.545775
C21   C     C_3   0.337444 0.327400 0.091703 0.819915
C22   C     C_R   0.505103 0.739893 0.498970 0.907261
C23   C     C_R   0.740299 0.495295 0.495742 0.868619
C24   C     C_R   0.087274 0.491118 0.758421 -0.260387
C25   C     C_R   0.011621 0.431695 0.863121 0.500960
C26   C     C_R   0.907352 0.359365 0.830923 -0.101018
C27   C     C_R   0.867411 0.363985 0.700243 -0.218509
C28   C     C_R   0.931418 0.443248 0.601326 0.088654
H1    H     H_    0.461641 0.882625 0.828387 0.206179
H2    H     H_    0.342086 0.111200 0.710727 0.224491
H3    H     H_    0.473601 0.104372 0.827867 0.199879
H4    H     H_    0.263013 0.397031 0.903100 0.212251
H5    H     H_    0.328749 0.240830 0.892328 0.184455
H6    H     H_    0.167998 0.547037 0.784112 0.202938
H7    H     H_    0.852089 0.307008 0.908980 0.172873
H8    H     H_    0.782160 0.312246 0.679488 0.170049
H9    H     H_    0.585764 0.888620 0.286454 0.207376
N1    N     N_R   0.499160 0.499140 0.142800 -0.182486
N2    N     N_R   0.499160 0.499180 0.857150 -0.171515
O1    O     O_R   0.500020 0.316790 0.614690 -0.630490
O2    O     O_R   0.500000 0.316760 0.385350 -0.532847
O3    O     O_R   0.316770 0.500020 0.614690 -0.639527
O4    O     O_R   0.316760 0.499980 0.385350 -0.507396
O5    O     O_R   0.500000 0.683240 0.614650 -0.629456
O6    O     O_R   0.499980 0.683210 0.385310 -0.616706
O7    O     O_R   0.683240 0.500020 0.614650 -0.649209
O8    O     O_R   0.683230 0.499980 0.385310 -0.619594
Zn1   Zn    Zn3+2 0.500010 0.500020 0.653130 0.957613
Zn2   Zn    Zn3+2 0.499990 0.499980 0.346870 1.067188
O9    O     O_3   0.151935 0.639338 0.297537 -0.694932
H10   H     H_    0.112350 0.641063 0.210241 0.359620
O10   O     O_3   0.615032 0.695319 0.124581 -0.737109
H11   H     H_    0.645201 0.663439 0.209651 0.370480
O11   O     O_3   0.617798 0.694717 0.855125 -0.732070
H12   H     H_    0.654568 0.662111 0.770239 0.374207
O12   O     O_3   0.246331 0.397125 0.159218 -0.716492
H13   H     H_    0.171124 0.340593 0.173824 0.380576
O13   O     O_3   0.343535 0.205539 0.146768 -0.725729
H14   H     H_    0.409265 0.161157 0.094132 0.326150
O14   O     O_3   0.036106 0.444102 0.996779 -0.739235
H15   H     H_    0.100177 0.512637 0.003753 0.346853
C29   C     C_2   0.890103 0.615758 0.267009 0.915690
O15   O     O_2   0.851161 0.549806 0.177837 -0.566588
O16   O     O_R   0.889193 0.746224 0.255521 -0.792791
H16   H     H_    0.854752 0.775543 0.168149 0.368658
O17   O     O_3   0.605234 0.137031 0.262147 -0.737839
H17   H     H_    0.627679 0.078701 0.188622 0.334780
C30   C     C_2   0.297640 0.869005 0.704661 0.960962
O18   O     O_2   0.245377 0.790020 0.780787 -0.636024
O19   O     O_R   0.241392 0.907073 0.588172 -0.782553
H18   H     H_    0.158216 0.861348 0.577263 0.356419

loop_
_geom_bond_atom_site_label_1
_geom_bond_atom_site_label_2
_ccdc_geom_bond_type
C21   O12   S    
C12   O3    A    
C18   N2    A    
C24   C25   A    
C15   H3    S    
C16   C21   S    
C25   O14   S    
C27   H8    S    
C1    C8    S    
C2    C28   A    
C9    C10   A    
O11   H12   S    
C11   C22   S    
C19   C20   S    
C14   C15   S    
O6    Zn2   S    
C7    C13   A    
O16   H16   S    
C22   O6    A    
C7    C15   S    
O17   H17   S    
C25   C26   A    
C7    C8    A    
O8    Zn2   S    
C23   O7    A    
O3    Zn1   S    
C13   C14   S    
O10   H11   S    
C4    C5    A    
C11   C13   A    
C26   C27   A    
C29   O15   D    
C19   N2    A    
C10   H9    S    
C6    C23   S    
C17   O10   S    
C1    O2    A    
C20   H4    S    
C5    C29   S    
C17   C18   A    
C12   O4    A    
C2    C3    A    
C17   N1    A    
C16   C19   A    
C2    C24   A    
C5    C6    A    
C22   O5    A    
C23   O8    A    
O12   H13   S    
C20   H5    S    
C14   H1    S    
O4    Zn2   S    
C3    C4    A    
O7    Zn1   S    
O5    Zn1   S    
C26   H7    S    
C21   O13   S    
O19   H18   S    
C16   N1    A    
C20   C21   S    
C15   H2    S    
C30   O19   S    
C10   C11   A    
O2    Zn2   S    
C27   C28   A    
N1    Zn2   S    
C18   O11   S    
C9    O17   S    
O14   H15   S    
C29   O16   S    
C3    C12   S    
C1    O1    A    
O9    H10   S    
O13   H14   S    
C30   O18   D    
O1    Zn1   S    
C6    C28   A    
C14   C30   S    
C4    O9    S    
C8    C9    A    
N2    Zn1   S    
C24   H6    S    
