data_mof_unit_2.cif
_audit_creation_date              2013-03-05T15:53:01-0500
_audit_creation_method            fapswitch 2.2
_symmetry_space_group_name_H-M    P1
_symmetry_Int_Tables_number       1
_space_group_crystal_system       triclinic
_cell_length_a                    8.463295
_cell_length_b                    17.684225
_cell_length_c                    18.960098
_cell_angle_alpha                 100.063446
_cell_angle_beta                  91.815775
_cell_angle_gamma                 96.94221
_cell_volume                      2769.50384235

loop_
_atom_site_label
_atom_site_type_symbol
_atom_site_description
_atom_site_fract_x
_atom_site_fract_y
_atom_site_fract_z
_atom_type_partial_charge
P1    P     P_3+3 0.048060 0.426210 0.336320 0.459247
O1    O     O_2   0.878040 0.448040 0.325130 -0.404090
O2    O     O_3   0.126800 0.453980 0.414370 -0.397880
O3    O     O_3   0.651020 0.589120 0.368830 -0.404448
O4    O     O_2   0.761305 0.526216 0.246555 -0.396413
O5    O     O_3   0.016984 0.325115 0.334224 -0.580449
O6    O     O_3   0.691251 0.663030 0.249334 -0.539293
H1    H     H_    0.546512 0.714742 0.326091 -0.181215
C1    C     C_3   0.656152 0.796797 0.267128 -0.906795
H2    H     H_    0.761169 0.813632 0.305595 0.230033
H3    H     H_    0.693950 0.800549 0.212143 0.258056
P2    P     P_3+3 0.655920 0.678120 0.556130 0.657994
P3    P     P_3+3 0.113194 0.732623 0.415100 0.501448
O7    O     O_2   0.830300 0.688050 0.534560 -0.310766
O8    O     O_3   0.068750 0.630380 0.404830 -0.332233
O9    O     O_2   0.018555 0.766064 0.478275 -0.319923
O10   O     O_3   0.677554 0.706210 0.649464 -0.573906
O11   O     O_3   0.026041 0.767606 0.344130 -0.614868
C2    C     C_3   0.116710 0.757824 0.282809 0.945238
H4    H     H_    0.221854 0.726792 0.290017 -0.060880
C3    C     C_3   0.182399 0.837654 0.268054 0.165609
H5    H     H_    0.080895 0.871663 0.263874 0.083889
H6    H     H_    0.265294 0.867775 0.313450 -0.011516
C4    C     C_3   0.265291 0.724310 0.667172 1.726927
C5    C     C_3   0.381383 0.760384 0.732204 -1.024468
H7    H     H_    0.448403 0.715696 0.747782 0.320409
H8    H     H_    0.474193 0.805576 0.720481 0.218206
H9    H     H_    0.314864 0.785587 0.778257 0.226411
Ba1   Ba    Ba6+2 0.849550 0.533890 0.465080 1.263757
C6    C     C_3   0.906864 0.284647 0.279535 0.999731
H10   H     H_    0.816186 0.319594 0.265464 -0.085062
C7    C     C_3   0.993133 0.252599 0.213709 0.318006
H11   H     H_    0.077916 0.298534 0.197695 0.011011
H12   H     H_    0.060722 0.206061 0.225995 0.145796
C8    C     C_3   0.743966 0.650005 0.680120 1.272016
H13   H     H_    0.843000 0.628202 0.649283 -0.034080
C9    C     C_3   0.807876 0.686379 0.755938 -0.991050
H14   H     H_    0.854224 0.642779 0.783626 0.230558
H15   H     H_    0.711523 0.710222 0.787184 0.273201
H16   H     H_    0.904662 0.734300 0.754442 0.238346
P4    P     P_3+3 0.141640 0.573850 0.663690 0.626485
O12   O     O_2   0.311660 0.551990 0.674910 -0.192069
O13   O     O_3   0.062910 0.546080 0.585630 -0.381505
O14   O     O_3   0.538690 0.410940 0.631180 -0.277611
O15   O     O_3   0.144973 0.674791 0.691281 -0.644811
P5    P     P_3+3 0.086113 0.267015 0.589657 0.626107
O16   O     O_3   0.620260 0.406250 0.463620 -0.371044
O17   O     O_3   0.120960 0.369680 0.595180 -0.380848
O18   O     O_2   0.214149 0.232617 0.542229 -0.275562
O19   O     O_3   0.135882 0.242711 0.672743 -0.567905
Ba2   Ba    Ba6+2 0.340280 0.466170 0.534930 1.144426
P6    P     P_3+3 0.628679 0.573805 0.274535 0.448748
C10   C     C_3   0.581034 0.714920 0.270189 1.316582
H17   H     H_    0.568600 0.838005 0.282071 0.209286
O20   O     O_3   0.569440 0.593820 0.536390 -0.311823
C11   C     C_3   0.471456 0.326477 0.312775 1.178343
H18   H     H_    0.552499 0.382018 0.323219 -0.167776
C12   C     C_3   0.459776 0.294682 0.232148 0.070573
H19   H     H_    0.397819 0.334466 0.204697 0.034238
H20   H     H_    0.581038 0.293743 0.211914 0.062022
P7    P     P_3+3 0.536168 0.307586 0.442947 0.608304
O21   O     O_2   0.359400 0.311980 0.465480 -0.257600
O22   O     O_3   0.529402 0.273103 0.350003 -0.585819
C13   C     C_3   0.011918 0.253267 0.720411 1.881220
H21   H     H_    0.901816 0.268601 0.695601 -1.114805
C14   C     C_3   0.073641 0.318881 0.781783 0.122266
H22   H     H_    0.124612 0.370570 0.760143 0.068196
H23   H     H_    0.970327 0.333262 0.814114 0.017573
P8    P     P_3+3 0.563651 0.421974 0.724593 0.571288
C15   C     C_3   0.583630 0.281842 0.740696 0.047609
H24   H     H_    0.695189 0.304941 0.773741 0.065484
O23   O     O_2   0.452498 0.481014 0.755574 -0.304576
O24   O     O_3   0.475130 0.336338 0.748886 -0.533036
H25   H     H_    0.610438 0.265912 0.683279 0.170620
C16   C     C_3   0.510654 0.209636 0.767453 1.227306
H26   H     H_    0.466751 0.226164 0.821884 0.005801
C17   C     C_R   0.996640 0.466049 0.047162 -0.026586
C18   C     C_R   0.896238 0.433611 0.094818 0.056956
C19   C     C_R   0.736536 0.406955 0.073024 -0.307934
C20   C     C_R   0.677560 0.410927 0.004271 0.709012
C21   C     C_R   0.777660 0.440565 0.954967 -0.069793
C22   C     C_R   0.937263 0.469638 0.976851 -0.040958
C23   C     C_R   0.721289 0.440600 0.884293 -0.189099
C24   C     C_R   0.822678 0.467459 0.833585 -0.021424
C25   C     C_R   0.980809 0.501363 0.856621 -0.049656
C26   C     C_R   0.036952 0.502465 0.928770 0.069675
C27   C     C_R   0.771633 0.460153 0.760324 0.224567
C28   C     C_R   0.877951 0.485888 0.711530 -0.382550
C29   C     C_R   0.029464 0.526093 0.733399 0.224058
C30   C     C_R   0.081941 0.534989 0.808287 -0.275762
C31   C     C_R   0.155680 0.494898 0.069847 0.011007
C32   C     C_R   0.214939 0.491220 0.140449 -0.012500
C33   C     C_R   0.112179 0.459190 0.189283 -0.104241
C34   C     C_R   0.954829 0.429298 0.164027 -0.092302
H27   H     H_    0.656366 0.383355 0.109512 0.156412
H28   H     H_    0.837141 0.479579 0.655909 0.204040
H29   H     H_    0.598648 0.417561 0.868839 0.190718
H30   H     H_    0.874449 0.402961 0.197724 0.138997
C35   C     C_R   0.230212 0.576576 0.837603 0.819059
C36   C     C_R   0.290042 0.573949 0.907600 -0.269668
C37   C     C_R   0.193747 0.535123 0.952835 -0.153785
C38   C     C_R   0.253540 0.530292 0.022798 0.089610
C39   C     C_R   0.444816 0.610038 0.933967 0.694099
C40   C     C_R   0.506041 0.600074 0.000861 -0.375243
C41   C     C_R   0.411305 0.561449 0.045827 0.104529
C42   C     C_R   0.374728 0.522961 0.162869 0.011639
C43   C     C_R   0.471733 0.555960 0.114271 -0.099217
C44   C     C_R   0.431859 0.521658 0.233569 0.169984
C45   C     C_R   0.333453 0.483737 0.277806 -0.495990
C46   C     C_R   0.171314 0.458535 0.261122 0.238113
H31   H     H_    0.627039 0.625306 0.018559 0.161303
H32   H     H_    0.594893 0.578579 0.129345 0.161777
H33   H     H_    0.384525 0.475209 0.327750 0.168913
H34   H     H_    0.311997 0.887197 0.431646 0.191107
C47   C     C_R   0.409644 0.720506 0.475434 0.312022
C48   C     C_R   0.559596 0.746592 0.509701 0.091568
C49   C     C_R   0.625443 0.825237 0.515427 0.377062
C50   C     C_R   0.536210 0.876384 0.484034 -0.091110
C51   C     C_R   0.385251 0.847665 0.449946 -0.454890
C52   C     C_R   0.322584 0.769894 0.445295 0.077086
C53   C     C_R   0.585842 0.160487 0.477211 0.415860
C54   C     C_R   0.635293 0.241018 0.490252 0.056393
C55   C     C_R   0.885783 0.221551 0.547571 0.047093
C56   C     C_R   0.841711 0.140998 0.530224 0.487225
C57   C     C_R   0.687087 0.110268 0.500553 -0.303811
C58   C     C_1   0.633127 0.027818 0.494516 0.177736
C59   C     C_1   0.588357 0.959085 0.490079 0.006788
C60   C     C_R   0.780185 0.270355 0.528057 0.147266
F1    F     F_    0.825781 0.222835 0.304576 -0.714941
F2    F     F_    0.883622 0.222203 0.157169 -0.689053
F3    F     F_    0.627831 0.589172 0.683276 -0.647090
F4    F     F_    0.448368 0.696960 0.223266 -0.762922
F5    F     F_    0.321040 0.337788 0.333510 -0.697531
O25   O     O_3   0.374582 0.219439 0.218740 -0.579454
C61   C     C_3   0.364718 0.190443 0.144365 -0.115855
H35   H     H_    0.300466 0.227279 0.114369 0.138161
H36   H     H_    0.296003 0.131732 0.134577 0.152836
H37   H     H_    0.485113 0.184982 0.123604 0.175221
O26   O     O_3   0.263433 0.828923 0.203715 -0.557058
C62   C     C_3   0.322105 0.902601 0.189676 -0.120073
H38   H     H_    0.407026 0.935395 0.233594 0.107414
H39   H     H_    0.222989 0.936503 0.180940 0.124164
H40   H     H_    0.387886 0.894790 0.139776 0.164578
O27   O     O_3   0.974407 0.186644 0.751906 -0.657073
C63   C     C_3   0.918638 0.121180 0.699959 0.016451
H41   H     H_    0.017103 0.102273 0.666702 0.182129
H42   H     H_    0.815158 0.131652 0.667220 0.161631
H43   H     H_    0.876718 0.072958 0.727889 0.171324
O28   O     O_3   0.192341 0.292846 0.822216 -0.604511
C64   C     C_3   0.218056 0.339218 0.890628 -0.028497
H44   H     H_    0.282650 0.396712 0.886824 0.160847
H45   H     H_    0.292713 0.309884 0.923450 0.214921
H46   H     H_    0.105685 0.344660 0.918818 0.110440
F6    F     F_    0.623616 0.160244 0.771541 -0.731667
F7    F     F_    0.385196 0.171389 0.721310 -0.653136
O29   O     O_3   0.012465 0.721039 0.223595 -0.606316
C65   C     C_3   0.044972 0.645047 0.199298 -0.020737
H47   H     H_    0.046388 0.611773 0.243941 0.139687
H48   H     H_    0.159875 0.646181 0.172648 0.156137
H49   H     H_    0.949849 0.615189 0.158903 0.157674
F8    F     F_    0.521796 0.385966 0.986399 -0.762788
F9    F     F_    0.317129 0.621610 0.799443 -0.667586
O30   O     O_3   0.539514 0.654125 0.894240 -0.569839
C66   C     C_3   0.529042 0.732924 0.921252 -0.153090
H50   H     H_    0.579906 0.750260 0.977423 0.122723
H51   H     H_    0.403713 0.745867 0.917858 0.141057
H52   H     H_    0.599355 0.769254 0.888371 0.163105
O31   O     O_3   0.437527 0.132341 0.443484 -0.554533
C67   C     C_3   0.456093 0.095286 0.372455 -0.031797
H53   H     H_    0.554840 0.125196 0.345989 0.174074
H54   H     H_    0.344442 0.095169 0.340140 0.168527
H55   H     H_    0.474500 0.033982 0.371019 0.080501
F10   F     F_    0.949691 0.092820 0.540589 -0.710308
O32   O     O_3   0.757023 0.850585 0.563412 -0.603747
C68   C     C_3   0.871366 0.903771 0.539521 0.049578
H56   H     H_    0.872365 0.897041 0.479972 0.111363
H57   H     H_    0.990436 0.894887 0.559418 0.162762
H58   H     H_    0.855031 0.963272 0.565075 0.149210
O33   O     O_3   0.336696 0.647860 0.479687 -0.545292
C69   C     C_3   0.365406 0.597798 0.417213 0.198573
H59   H     H_    0.439797 0.554628 0.429325 0.163631
H60   H     H_    0.395360 0.626043 0.370643 -0.040867
H61   H     H_    0.259517 0.561186 0.397206 0.152652
O34   O     O_3   0.825477 0.348400 0.540565 -0.627906
C70   C     C_3   0.921992 0.365060 0.484955 0.224096
H62   H     H_    0.853146 0.362583 0.434384 0.122586
H63   H     H_    0.014981 0.326263 0.471679 0.118963
H64   H     H_    0.982354 0.423406 0.504587 0.213417
F11   F     F_    0.346294 0.684725 0.614513 -0.677717
O35   O     O_3   0.186393 0.780165 0.639042 -0.647654
C71   C     C_3   0.290022 0.845239 0.627747 -0.261666
H65   H     H_    0.409575 0.831246 0.612842 0.133926
H66   H     H_    0.300648 0.890864 0.676591 0.175262
H67   H     H_    0.239126 0.869208 0.583331 0.193688

loop_
_geom_bond_atom_site_label_1
_geom_bond_atom_site_label_2
_geom_bond_distance
_ccdc_geom_bond_type
C49   O32   1.393334 S    
C61   H37   1.112839 S    
C14   H23   1.112750 S    
C27   C28   1.404820 A    
C28   H28   1.081841 S    
O35   C71   1.411875 S    
O8    Ba1   2.776412 S    
P2    Ba1   3.438328 S    
O19   C13   1.414523 S    
P4    O12   1.552103 D    
P4    C29   1.907161 S    
C2    H4    1.117251 S    
C60   O34   1.363828 S    
C24   C27   1.420754 A    
C63   H43   1.109094 S    
C7    F2    1.382885 S    
C21   C22   1.408234 A    
C55   C60   1.399140 A    
C55   C56   1.405903 A    
C68   H57   1.103350 S    
C17   C18   1.406952 A    
C12   O25   1.411838 S    
C5    H9    1.110763 S    
C53   C57   1.419877 A    
C41   C43   1.403201 A    
P5    O18   1.543636 D    
C58   C59   1.216128 T    
P3    O11   1.753768 S    
O3    P6    1.761371 S    
C23   C24   1.414071 A    
C4    O15   1.402334 S    
O10   C8    1.399265 S    
C66   H50   1.112878 S    
C8    C9    1.521916 S    
C62   H39   1.112654 S    
O6    P6    1.753845 S    
O11   C2    1.410281 S    
C9    H16   1.109958 S    
C63   H41   1.109422 S    
C6    H10   1.096068 S    
C70   H63   1.111838 S    
C42   C43   1.408420 A    
C34   H30   1.069038 S    
C12   H20   1.107943 S    
C47   C48   1.395353 A    
C44   C45   1.397368 A    
C38   C41   1.406472 A    
O2    Ba1   2.982772 S    
P1    O1    1.551811 D    
C43   H32   1.080993 S    
P7    O22   1.757894 S    
C50   C51   1.408561 A    
C36   C37   1.409259 A    
C21   C23   1.408199 A    
O32   C68   1.408164 S    
O17   Ba2   2.777029 S    
O30   C66   1.412555 S    
C64   H46   1.111650 S    
P2    O10   1.749889 S    
C15   H25   1.113490 S    
C62   H40   1.109257 S    
O4    P6    1.536117 D    
P8    O24   1.748770 S    
C15   H24   1.109361 S    
C1    H2    1.108860 S    
P4    O13   1.574805 S    
O3    Ba1   2.816499 S    
P8    C27   1.868271 S    
C69   H61   1.057630 S    
C45   H33   1.070505 S    
O12   Ba2   2.850930 S    
C14   H22   1.112173 S    
C65   H48   1.109657 S    
C3    H5    1.115009 S    
Ba1   O13   2.829035 S    
C65   H47   1.112637 S    
C2    O29   1.416070 S    
C67   H54   1.109376 S    
Ba2   O21   2.839106 S    
C40   C41   1.396676 A    
C63   H42   1.109748 S    
C69   H60   1.109553 S    
C11   F5    1.371473 S    
C68   H58   1.105565 S    
C62   H38   1.113008 S    
O1    Ba1   2.850455 S    
P5    O17   1.787837 S    
P1    O5    1.768549 S    
C37   C38   1.424951 A    
C61   H35   1.113097 S    
C24   C25   1.420839 A    
C14   O28   1.412540 S    
C31   C32   1.429471 A    
C10   F4    1.380139 S    
O2    Ba2   2.829795 S    
C18   C19   1.400823 A    
C20   C21   1.407252 A    
C70   H64   1.091080 S    
O16   Ba2   2.979086 S    
C56   F10   1.354627 S    
C13   O27   1.418783 S    
C12   H19   1.113861 S    
C25   C26   1.429933 A    
C36   C39   1.420558 A    
C71   H65   1.104109 S    
P7    C54   1.858525 S    
P1    O2    1.574670 S    
C8    H13   1.106074 S    
C7    H12   1.109568 S    
P8    O23   1.542151 D    
C16   H26   1.110712 S    
C71   H66   1.110315 S    
C19   H27   1.084126 S    
C9    H14   1.107005 S    
P1    C46   1.919021 S    
C35   F9    1.338776 S    
C19   C20   1.397353 A    
C68   H56   1.114851 S    
O26   C62   1.410059 S    
C15   O24   1.402416 S    
P1    Ba1   3.437623 S    
C11   O22   1.397282 S    
O14   P8    1.750742 S    
C67   H53   1.114680 S    
C4    C5    1.545789 S    
C51   C52   1.399617 A    
C1    H3    1.110764 S    
C53   C54   1.410941 A    
C4    F11   1.368207 S    
O14   Ba2   2.815869 S    
C32   C42   1.421722 A    
O31   C67   1.413373 S    
O5    C6    1.405042 S    
Ba1   O16   2.788800 S    
C65   H49   1.109208 S    
C3    H6    1.108113 S    
C23   H29   1.079796 S    
C57   C58   1.457740 S    
C67   H55   1.109544 S    
C64   H45   1.105775 S    
P5    C55   1.875694 S    
C1    C10   1.520923 S    
C11   H18   1.111286 S    
O6    C10   1.404291 S    
C31   C38   1.410727 A    
C8    F3    1.377519 S    
C30   C35   1.419275 A    
C39   C40   1.402397 A    
P3    C52   1.850428 S    
C69   H59   1.095552 S    
Ba1   Ba2   4.673883 S    
C61   H36   1.109277 S    
C53   O31   1.385326 S    
P5    O19   1.755579 S    
C17   C31   1.406277 A    
P4    O15   1.766761 S    
C2    C3    1.529194 S    
C66   H52   1.107529 S    
H34   C51   1.081388 S    
P2    O7    1.541708 D    
O27   C63   1.404638 S    
H1    C10   1.108757 S    
O16   P7    1.774142 S    
C40   H31   1.084342 S    
C4    O35   1.423729 S    
C25   C30   1.429383 A    
O25   C61   1.409943 S    
C5    H8    1.107476 S    
C6    F1    1.382703 S    
Ba1   O20   2.980091 S    
C33   C34   1.408234 A    
C33   C46   1.438595 A    
C39   O30   1.382010 S    
C35   C36   1.415810 A    
C7    H11   1.107255 S    
P3    O8    1.776660 S    
C5    H7    1.101268 S    
C71   H67   1.104673 S    
C9    H15   1.104619 S    
C22   C26   1.412502 A    
C49   C50   1.437873 A    
C13   H21   1.114005 S    
C6    C7    1.523978 S    
C16   F6    1.379774 S    
O13   Ba2   2.983588 S    
C70   H62   1.097516 S    
C42   C44   1.415494 A    
C17   C22   1.424272 A    
C18   C34   1.405884 A    
C66   H51   1.114049 S    
C32   C33   1.431690 A    
C11   C12   1.529522 S    
C48   C49   1.418679 A    
Ba2   O20   2.788271 S    
C54   C60   1.395418 A    
P7    O21   1.575978 D    
C20   F8    1.351393 S    
P2    O20   1.556304 S    
O33   C69   1.396293 S    
C16   F7    1.382403 S    
O29   C65   1.405321 S    
C28   C29   1.401644 A    
P6    C44   1.877433 S    
C47   C52   1.391238 A    
C50   C59   1.459126 S    
P3    O9    1.534200 D    
C45   C46   1.398958 A    
C15   C16   1.524766 S    
C3    O26   1.412467 S    
C64   H44   1.109775 S    
O34   C70   1.403808 S    
C1    H17   1.109976 S    
O7    Ba1   2.839014 S    
C29   C30   1.450208 A    
O28   C64   1.403398 S    
C26   C37   1.409594 A    
P4    Ba2   3.438262 S    
C47   O33   1.373203 S    
C13   C14   1.521947 S    
C56   C57   1.413828 A    
P2    C48   1.863167 S    
