data_mof_unit_742.cif
_audit_creation_date              2012-12-11T15:18:41-0500
_audit_creation_method            fapswitch 2.2
_symmetry_space_group_name_H-M    P1
_symmetry_Int_Tables_number       1
_space_group_crystal_system       triclinic
_cell_length_a                    6.944224
_cell_length_b                    19.923616
_cell_length_c                    23.775632
_cell_angle_alpha                 93.584455
_cell_angle_beta                  91.317062
_cell_angle_gamma                 88.528071
_cell_volume                      3281.18310985

loop_
_atom_site_label
_atom_site_type_symbol
_atom_type_description
_atom_site_fract_x
_atom_site_fract_y
_atom_site_fract_z
_atom_type_partial_charge
O1    O     O_R   0.620100 0.812200 0.810870 -0.540460
O2    O     O_R   0.379900 0.187800 0.189130 -0.540460
O3    O     O_R   0.296960 0.671650 0.794750 -0.538454
O4    O     O_R   0.703040 0.328350 0.205250 -0.538454
O5    O     O_R   0.120160 0.687800 0.689130 -0.540310
O6    O     O_R   0.879840 0.312200 0.310870 -0.540310
C1    C     C_R   0.468856 0.647061 0.804647 0.722240
C2    C     C_R   0.531144 0.352939 0.195353 0.722239
O7    O     O_R   0.290810 0.810670 0.817290 -0.544045
O8    O     O_R   0.709190 0.189330 0.182710 -0.544045
O9    O     O_R   0.113980 0.827820 0.711840 -0.535968
O10   O     O_R   0.886020 0.172180 0.288160 -0.535968
C3    C     C_R   0.459489 0.832018 0.834163 0.707965
C4    C     C_R   0.540511 0.167982 0.165837 0.707965
O11   O     O_R   0.626290 0.672180 0.788160 -0.535254
O12   O     O_R   0.373710 0.327820 0.211840 -0.535254
O13   O     O_3   0.451520 0.755460 0.715370 -0.369780
O14   O     O_3   0.548480 0.244540 0.284630 -0.369780
V1    V     V_3+5 0.179200 0.748980 0.756420 1.411761
V2    V     V_3+5 0.820800 0.251020 0.243580 1.411761
O15   O     O_R   0.783880 0.828350 0.705250 -0.538453
O16   O     O_R   0.216120 0.171650 0.294750 -0.538453
C5    C     C_R   0.949700 0.852685 0.694864 0.693613
C6    C     C_R   0.050300 0.147315 0.305136 0.693613
O17   O     O_R   0.790030 0.689320 0.682700 -0.543764
O18   O     O_R   0.209970 0.310680 0.317300 -0.543764
C7    C     C_R   0.958987 0.668184 0.665671 0.708826
C8    C     C_R   0.041013 0.331816 0.334328 0.708826
V3    V     V_3+5 0.678400 0.751010 0.743570 1.413581
V4    V     V_3+5 0.321600 0.248990 0.256430 1.413581
O19   O     O_3   0.955950 0.744540 0.784620 -0.367262
O20   O     O_3   0.044050 0.255460 0.215380 -0.367261
C9    C     C_R   0.181091 0.425940 0.396285 -0.219092
C10   C     C_R   0.818909 0.574060 0.603715 -0.219092
C11   C     C_R   0.030824 0.380863 0.383930 -0.082961
C12   C     C_R   0.969176 0.619137 0.616070 -0.082961
C13   C     C_R   0.868553 0.383720 0.418565 -0.224431
C14   C     C_R   0.131447 0.616280 0.581435 -0.224431
C15   C     C_R   0.856400 0.430418 0.465225 0.089841
C16   C     C_R   0.143600 0.569582 0.534775 0.089841
C17   C     C_R   0.006323 0.476078 0.476801 0.052313
C18   C     C_R   0.993677 0.523922 0.523199 0.052313
C19   C     C_R   0.168720 0.474044 0.442011 0.090915
C20   C     C_R   0.831280 0.525956 0.557989 0.090915
C21   C     C_R   0.696856 0.432316 0.500552 -0.192614
C22   C     C_R   0.303144 0.567684 0.499448 -0.192614
C23   C     C_R   0.684599 0.479554 0.546556 -0.183127
C24   C     C_R   0.315401 0.520446 0.453444 -0.183127
H1    H     H_    0.305881 0.424500 0.369604 0.121314
H2    H     H_    0.694119 0.575500 0.630396 0.121314
H3    H     H_    0.752450 0.349031 0.409553 0.126210
H4    H     H_    0.247550 0.650969 0.590447 0.126210
H5    H     H_    0.559461 0.480076 0.572998 0.134124
H6    H     H_    0.440539 0.519923 0.427002 0.134124
C25   C     C_R   0.947617 0.914140 0.663243 -0.043261
C26   C     C_R   0.052383 0.085860 0.336757 -0.043261
C27   C     C_R   0.863380 0.032296 0.659634 -0.161018
C28   C     C_R   0.136619 0.967704 0.340366 -0.161018
C29   C     C_R   0.881377 0.974614 0.689623 -0.166513
C30   C     C_R   0.118623 0.025386 0.310377 -0.166514
C31   C     C_R   0.995205 0.911624 0.605892 -0.215227
C32   C     C_R   0.004795 0.088376 0.394107 -0.215227
C33   C     C_R   0.974194 0.969687 0.573798 0.086278
C34   C     C_R   0.025806 0.030313 0.426202 0.086278
C35   C     C_R   0.907504 0.030340 0.602223 0.138939
C36   C     C_R   0.092496 0.969660 0.397776 0.138939
C37   C     C_R   0.013872 0.969680 0.514659 0.058038
C38   C     C_R   0.986128 0.030320 0.485341 0.058038
C39   C     C_R   0.920363 0.088925 0.516186 -0.187457
C40   C     C_R   0.079637 0.911075 0.483814 -0.187457
C41   C     C_R   0.882503 0.088750 0.573246 -0.201437
C42   C     C_R   0.117497 0.911250 0.426754 -0.201437
H7    H     H_    0.831536 0.135088 0.594951 0.123517
H8    H     H_    0.168464 0.864912 0.405049 0.123517
H9    H     H_    0.957338 0.136605 0.412450 0.094226
H10   H     H_    0.042662 0.863395 0.587550 0.094226
H11   H     H_    0.157947 0.022992 0.266436 0.104344
H12   H     H_    0.842053 0.977008 0.733564 0.104344
H13   H     H_    0.811633 0.078546 0.681269 0.114160
H14   H     H_    0.188367 0.921454 0.318731 0.114160
H15   H     H_    0.895739 0.136253 0.497423 0.123098
H16   H     H_    0.104261 0.863747 0.502576 0.123098
C43   C     C_R   0.490422 0.585460 0.835686 -0.101007
C44   C     C_R   0.509578 0.414540 0.164314 -0.101007
C45   C     C_R   0.609823 0.470115 0.837635 0.414572
C46   C     C_R   0.390177 0.529885 0.162364 0.414572
C47   C     C_R   0.570896 0.527818 0.808424 -0.248943
C48   C     C_R   0.429104 0.472181 0.191576 -0.248943
C49   C     C_R   0.451812 0.586158 0.893406 -0.220428
C50   C     C_R   0.548188 0.413842 0.106594 -0.220428
C51   C     C_R   0.498650 0.529538 0.925356 0.034811
C52   C     C_R   0.501350 0.470461 0.074644 0.034811
C53   C     C_R   0.579077 0.471282 0.896224 0.044950
C54   C     C_R   0.420923 0.528718 0.103775 0.044950
C55   C     C_R   0.472539 0.529208 0.985201 0.089020
C56   C     C_R   0.527461 0.470792 0.014799 0.089020
C57   C     C_R   0.605709 0.414508 0.983515 -0.204541
C58   C     C_R   0.394291 0.585492 0.016485 -0.204541
C59   C     C_R   0.630016 0.414820 0.925811 -0.174124
C60   C     C_R   0.369984 0.585180 0.074189 -0.174124
H17   H     H_    0.691202 0.369958 0.904303 0.166206
H18   H     H_    0.308798 0.630042 0.095697 0.166206
H19   H     H_    0.606927 0.367421 0.087789 0.108700
H20   H     H_    0.393073 0.632579 0.912211 0.108700
H21   H     H_    0.394343 0.472229 0.235800 0.119199
H22   H     H_    0.605657 0.527771 0.764200 0.119199
H23   H     H_    0.650991 0.368820 0.002326 0.123569
H24   H     H_    0.349009 0.631180 0.997674 0.123569
C61   C     C_R   0.367872 0.077196 0.108503 -0.216303
C62   C     C_R   0.632128 0.922804 0.891497 -0.216303
C63   C     C_R   0.529398 0.118388 0.116592 -0.083627
C64   C     C_R   0.470602 0.881612 0.883408 -0.083627
C65   C     C_R   0.679294 0.111680 0.077590 -0.227662
C66   C     C_R   0.320706 0.888320 0.922410 -0.227663
C67   C     C_R   0.667610 0.065158 0.030754 0.091198
C68   C     C_R   0.332390 0.934842 0.969246 0.091198
C69   C     C_R   0.505922 0.023706 0.023343 0.053308
C70   C     C_R   0.494078 0.976294 0.976657 0.053308
C71   C     C_R   0.356030 0.029582 0.062533 0.088171
C72   C     C_R   0.643970 0.970418 0.937467 0.088171
C73   C     C_R   0.814596 0.059398 0.991071 -0.182881
C74   C     C_R   0.185404 0.940602 0.008929 -0.182881
C75   C     C_R   0.802996 0.012417 0.944888 -0.192126
C76   C     C_R   0.197004 0.987583 0.055112 -0.192126
H25   H     H_    0.252161 0.081510 0.138471 0.123075
H26   H     H_    0.747839 0.918489 0.861529 0.123076
H27   H     H_    0.803941 0.143268 0.083252 0.127402
H28   H     H_    0.196059 0.856732 0.916748 0.127402
H29   H     H_    0.939396 0.090964 0.995935 0.135139
H30   H     H_    0.060604 0.909036 0.004065 0.135139
H31   H     H_    0.919213 0.008670 0.915119 0.132148
H32   H     H_    0.080787 0.991329 0.084881 0.132148
O21   O     O_3   0.695120 0.414366 0.809804 -0.558143
C77   C     C_3   0.552774 0.379713 0.777035 0.085270
H33   H     H_    0.495052 0.410820 0.742854 0.121427
H34   H     H_    0.432002 0.365600 0.803722 0.123121
C78   C     C_3   0.641957 0.315483 0.749862 -0.708418
H35   H     H_    0.699041 0.282863 0.782926 0.219760
H36   H     H_    0.531285 0.287719 0.723964 0.175127
H37   H     H_    0.761435 0.327840 0.722308 0.224517
O22   O     O_3   0.304879 0.585634 0.190196 -0.558143
C79   C     C_3   0.447225 0.620287 0.222965 0.085270
H38   H     H_    0.567998 0.634400 0.196278 0.123121
H39   H     H_    0.504947 0.589180 0.257146 0.121426
C80   C     C_3   0.358043 0.684517 0.250138 -0.708419
H40   H     H_    0.238564 0.672160 0.277692 0.224517
H41   H     H_    0.468715 0.712281 0.276036 0.175127
H42   H     H_    0.300959 0.717137 0.217074 0.219760
H43   H     H_    0.580686 0.397498 0.492400 0.133100
H44   H     H_    0.419314 0.602502 0.507600 0.133100

loop_
_geom_bond_atom_site_label_1
_geom_bond_atom_site_label_2
_ccdc_geom_bond_type
C1    C43   S    
C33   C35   A    
C67   C73   A    
C25   C29   A    
O13   V3    S    
C17   C18   A    
C27   H13   S    
C43   C47   A    
C55   C56   A    
O4    C2    A    
V1    O19   S    
C77   C78   S    
C64   C66   A    
C80   H40   S    
C55   C58   A    
C15   C17   A    
C71   C76   A    
C16   C22   A    
C78   H36   S    
O9    V1    S    
C18   C20   A    
C34   C38   A    
C11   C13   A    
C3    C64   S    
O3    C1    A    
C69   C71   A    
C13   H3    S    
C46   C48   A    
C27   C29   A    
C14   H4    S    
C28   C30   A    
C52   C56   A    
C58   H24   S    
C76   H32   S    
C31   C33   A    
C39   C41   A    
O7    C3    A    
C32   C34   A    
C46   C54   A    
C57   C59   A    
O5    C7    A    
C45   C53   A    
C28   C36   A    
C36   C42   A    
C8    C11   S    
O8    V2    S    
C38   C39   A    
C67   C69   A    
O3    V1    S    
O14   V4    S    
C49   C51   A    
C19   C24   A    
C53   C59   A    
C10   C12   A    
C20   C23   A    
C28   H14   S    
C15   C21   A    
C26   C32   A    
C75   H31   S    
C21   C23   A    
C2    O12   A    
C17   C19   A    
C79   C80   S    
C44   C50   A    
C40   H16   S    
C29   H12   S    
O1    V3    S    
C80   H41   S    
O7    V1    S    
O11   V3    S    
C22   C24   A    
C45   C47   A    
C31   H10   S    
O17   V3    S    
C4    C63   S    
C43   C49   A    
C78   H37   S    
C33   C37   A    
C30   H11   S    
C10   H2    S    
C37   C38   A    
C9    C19   A    
C10   C20   A    
C21   H43   S    
C42   H8    S    
O8    C4    A    
C62   C72   A    
C41   H7    S    
O13   V1    S    
C77   H34   S    
C1    O11   A    
C35   C41   A    
O15   V3    S    
C26   C30   A    
C34   C36   A    
C24   H6    S    
V4    O20   S    
C51   C53   A    
C66   H28   S    
C50   C52   A    
C54   C60   A    
C56   C57   A    
O10   V2    S    
C60   H18   S    
C63   C65   A    
C68   C74   A    
C62   H26   S    
C65   H27   S    
C70   C72   A    
C61   H25   S    
C59   H17   S    
O18   V4    S    
C58   C60   A    
O15   C5    A    
C49   H20   S    
O21   C77   S    
O16   C6    A    
C32   H9    S    
O1    C3    A    
O12   V4    S    
C74   C76   A    
C12   C14   A    
C80   H42   S    
C61   C71   A    
V2    O20   S    
C73   H29   S    
O16   V4    S    
C22   H44   S    
C2    C44   S    
C44   C48   A    
C27   C35   A    
C16   C18   A    
C66   C68   A    
C72   C75   A    
C5    C25   S    
C77   H33   S    
O5    V1    S    
O4    V2    S    
C7    C12   S    
C6    C26   S    
O6    V2    S    
C78   H35   S    
O10   C6    A    
O18   C8    A    
C23   H5    S    
O2    V4    S    
C37   C40   A    
C61   C63   A    
V3    O19   S    
C69   C70   A    
C14   C16   A    
C48   H21   S    
C52   C54   A    
C47   H22   S    
C25   C31   A    
O9    C5    A    
C9    C11   A    
C68   C70   A    
O14   V2    S    
O2    C4    A    
C62   C64   A    
C50   H19   S    
C73   C75   A    
C39   H15   S    
C51   C55   A    
C57   H23   S    
O6    C8    A    
C13   C15   A    
C79   H38   S    
C40   C42   A    
O22   C79   S    
C9    H1    S    
C74   H30   S    
C79   H39   S    
C46   O22   S    
C45   O21   S    
C65   C67   A    
O17   C7    A    
