data_mof_unit_325.cif
_audit_creation_date              2012-12-11T14:56:48-0500
_audit_creation_method            fapswitch 2.2
_symmetry_space_group_name_H-M    P1
_symmetry_Int_Tables_number       1
_space_group_crystal_system       triclinic
_cell_length_a                    10.546859
_cell_length_b                    10.724053
_cell_length_c                    17.117458
_cell_angle_alpha                 80.577258
_cell_angle_beta                  89.953143
_cell_angle_gamma                 119.810395
_cell_volume                      1649.55457378

loop_
_atom_site_label
_atom_site_type_symbol
_atom_type_description
_atom_site_fract_x
_atom_site_fract_y
_atom_site_fract_z
_atom_type_partial_charge
C1    C     C_R   0.223124 0.854654 0.128717 0.546947
C2    C     C_1   0.651093 0.345346 0.707551 -0.053294
C3    C     C_R   0.630114 0.717769 0.803207 -0.135702
C4    C     C_R   0.612825 0.216342 0.101725 0.575708
C5    C     C_R   0.618147 0.702602 0.725033 -0.156363
C6    C     C_R   0.667353 0.826086 0.664121 0.049481
C7    C     C_R   0.735271 0.967813 0.681934 -0.026945
C8    C     C_R   0.748069 0.981645 0.761319 -0.169966
C9    C     C_R   0.688921 0.856451 0.821712 0.020097
C10   C     C_R   0.100811 0.901475 0.788908 -0.104791
C11   C     C_R   0.108195 0.917345 0.707447 -0.005421
C12   C     C_R   0.676488 0.220053 0.313880 -0.117661
C13   C     C_R   0.121968 0.812296 0.671757 0.041510
C14   C     C_R   0.140391 0.703926 0.719349 -0.146383
C15   C     C_R   0.155562 0.705536 0.799743 -0.129349
C16   C     C_R   0.643768 0.856282 0.124359 0.554910
C17   C     C_R   0.142207 0.809548 0.833441 0.016502
C18   C     C_R   0.710942 0.772644 0.353325 0.556288
C19   C     C_R   0.681108 0.384298 0.399691 0.562310
C20   C     C_R   0.103540 0.810334 0.359177 0.548273
C21   C     C_R   0.676955 0.801357 0.584826 0.607786
C22   C     C_R   0.678428 0.382405 0.624474 0.564331
C23   C     C_R   0.668291 0.188684 0.238227 -0.164620
C24   C     C_R   0.090183 0.800380 0.589682 0.552580
C25   C     C_R   0.213809 0.856523 0.903572 0.553861
C26   C     C_R   0.637611 0.284767 0.860927 0.568889
C27   C     C_R   0.647555 0.867315 0.899327 0.568012
C28   C     C_R   0.579267 0.358109 0.194752 0.004338
C29   C     C_R   0.579806 0.381571 0.272037 -0.161924
C30   C     C_R   0.635134 0.318860 0.330235 0.021552
C31   C     C_2   0.544973 0.449273 0.133589 0.249544
C32   C     C_3   0.110496 0.053043 0.662693 -0.360353
C33   C     C_2   0.791663 0.102828 0.620628 0.216566
C34   C     C_R   0.622729 0.258823 0.178229 0.044886
C35   C     C_1   0.685253 0.832787 0.201821 -0.049605
C36   C     C_1   0.702891 0.807864 0.270453 -0.052660
C37   C     C_1   0.180811 0.826114 0.211215 -0.031245
C38   C     C_1   0.151293 0.819992 0.279779 -0.031341
C39   C     C_1   0.644065 0.323535 0.778120 -0.051323
Cr1   Cr    Cr6+3 0.402240 0.783890 0.019450 1.040130
Cr2   Cr    Cr6+3 0.382360 0.097900 0.991800 1.047239
Cr3   Cr    Cr6+3 0.715380 0.118170 0.988700 1.031686
Cr4   Cr    Cr6+3 0.936650 0.882420 0.465510 1.042303
Cr5   Cr    Cr6+3 0.605770 0.565620 0.493360 1.021516
Cr6   Cr    Cr6+3 0.921340 0.550490 0.496380 1.044256
H1    H     H_    0.148648 0.621888 0.693858 0.132010
H2    H     H_    0.466043 0.480071 0.149363 0.114778
H3    H     H_    0.208630 0.116835 0.618648 0.158652
H4    H     H_    0.009058 0.022964 0.633005 0.174925
H5    H     H_    0.117314 0.128099 0.702344 0.095525
H6    H     H_    0.872918 0.206824 0.634854 0.116026
H7    H     H_    0.185723 0.631678 0.834139 0.141271
H8    H     H_    0.552244 0.461718 0.284532 0.119625
H9    H     H_    0.720369 0.172041 0.358640 0.170859
H10   H     H_    0.700357 0.111719 0.225932 0.124925
H11   H     H_    0.584831 0.620534 0.849432 0.152675
H12   H     H_    0.572504 0.593403 0.712210 0.139064
H13   H     H_    0.792273 0.089423 0.776028 0.127978
H14   H     H_    0.084048 0.977115 0.816356 0.140771
O1    O     O_R   0.521780 0.757110 0.108900 -0.508969
O2    O     O_R   0.805020 0.410040 0.421340 -0.486600
O3    O     O_R   0.049240 0.685450 0.403290 -0.493534
O4    O     O_R   0.275160 0.783810 0.101120 -0.495359
O5    O     O_R   0.077520 0.903010 0.551800 -0.529893
O6    O     O_R   0.802980 0.872780 0.546830 -0.480539
O7    O     O_R   0.578090 0.681300 0.569920 -0.525423
O8    O     O_R   0.608530 0.436370 0.586530 -0.507789
O9    O     O_R   0.798770 0.401880 0.597100 -0.506834
O10   O     O_R   0.043450 0.677890 0.566230 -0.504664
O11   O     O_3   0.821250 0.666180 0.485090 -0.286988
O12   O     O_R   0.513330 0.228330 0.898660 -0.486510
O13   O     O_R   0.237900 0.972600 0.090980 -0.518347
O14   O     O_R   0.511190 0.220540 0.061620 -0.461779
O15   O     O_R   0.736920 0.257720 0.063840 -0.491630
O16   O     O_R   0.710450 0.984050 0.081720 -0.515581
O17   O     O_R   0.524090 0.765520 0.933110 -0.499337
O18   O     O_R   0.277300 0.791600 0.938160 -0.499759
O19   O     O_R   0.240210 0.981010 0.915190 -0.523162
O20   O     O_2   0.610307 0.498110 0.067045 -0.473540
O21   O     O_2   0.746470 0.100488 0.554926 -0.491245
O22   O     O_R   0.739230 0.266130 0.888050 -0.511248
O23   O     O_R   0.712580 0.991850 0.918770 -0.510526
O24   O     O_3   0.499990 0.999980 0.999980 -0.284573
O25   O     O_R   0.083770 0.911170 0.376030 -0.510063
O26   O     O_R   0.808770 0.880340 0.383890 -0.482219
O27   O     O_R   0.584340 0.689460 0.394160 -0.502216
O28   O     O_R   0.614320 0.443940 0.423590 -0.523311

loop_
_geom_bond_atom_site_label_1
_geom_bond_atom_site_label_2
_ccdc_geom_bond_type
Cr1   O1    S    
C21   O7    A    
C16   O16   A    
C7    C33   S    
Cr5   O7    S    
C35   C36   T    
Cr3   O23   S    
C7    C8    A    
C14   H1    S    
C12   C23   A    
Cr3   O16   S    
C37   C38   T    
Cr1   O4    S    
C25   O18   A    
C28   C29   A    
C19   O28   A    
C16   C35   S    
C5    C6    A    
C26   C39   S    
C10   C17   A    
Cr2   O24   S    
Cr6   O3    S    
C16   O1    A    
Cr4   O5    S    
C8    H13   S    
C2    C39   T    
C8    C9    A    
C2    C22   S    
Cr5   O11   S    
Cr5   O28   S    
C4    O15   A    
C1    C37   S    
Cr2   O12   S    
C21   O6    A    
C28   C34   A    
C24   O5    A    
C31   H2    S    
C13   C14   A    
C26   O12   A    
C32   H3    S    
Cr1   O24   S    
Cr3   O22   S    
Cr5   O27   S    
C1    O4    A    
C24   O10   A    
C28   C31   S    
C22   O8    A    
C4    C34   S    
Cr3   O15   S    
C1    O13   A    
Cr6   O10   S    
C25   O19   A    
C18   O26   A    
Cr4   O25   S    
Cr2   O19   S    
C6    C21   S    
Cr1   O17   S    
C13   C24   S    
Cr4   O26   S    
C29   C30   A    
C3    C9    A    
C20   C38   S    
C3    H11   S    
Cr4   O6    S    
C23   C34   A    
C22   O9    A    
Cr6   O9    S    
C18   O27   A    
C15   H7    S    
C23   H10   S    
C32   H5    S    
C4    O14   A    
Cr2   O13   S    
C11   C32   S    
C26   O22   A    
C20   O25   A    
C33   H6    S    
C27   O17   A    
C9    C27   S    
C15   C17   A    
C12   C30   A    
Cr6   O11   S    
C14   C15   A    
C27   O23   A    
Cr3   O24   S    
C3    C5    A    
C33   O21   D    
C31   O20   D    
C6    C7    A    
Cr4   O11   S    
C5    H12   S    
C17   C25   S    
C10   H14   S    
C11   C13   A    
C29   H8    S    
C19   O2    A    
Cr6   O2    S    
C20   O3    A    
C32   H4    S    
C10   C11   A    
Cr2   O14   S    
Cr1   O18   S    
Cr5   O8    S    
C19   C30   S    
C18   C36   S    
C12   H9    S    
