data_mof_unit_4502.cif
_audit_creation_date              2012-12-11T14:36:02-0500
_audit_creation_method            fapswitch 2.2
_symmetry_space_group_name_H-M    P1
_symmetry_Int_Tables_number       1
_space_group_crystal_system       triclinic
_cell_length_a                    14.471913
_cell_length_b                    16.124002
_cell_length_c                    7.023778
_cell_angle_alpha                 90.0
_cell_angle_beta                  81.178881
_cell_angle_gamma                 90.000034
_cell_volume                      1619.57876334

loop_
_atom_site_label
_atom_site_type_symbol
_atom_type_description
_atom_site_fract_x
_atom_site_fract_y
_atom_site_fract_z
_atom_type_partial_charge
O1    O     O_R   0.337460 0.413110 0.524760 -0.555371
O2    O     O_R   0.662540 0.913110 0.475240 -0.555370
O3    O     O_R   0.348690 0.587910 0.191230 -0.516377
O4    O     O_R   0.651310 0.087910 0.808770 -0.516376
O5    O     O_R   0.166530 0.586890 0.082470 -0.556505
O6    O     O_R   0.833470 0.086890 0.917530 -0.556506
C1    C     C_R   0.372426 0.614617 0.353361 0.652493
C2    C     C_R   0.627574 0.114617 0.646640 0.652493
O7    O     O_R   0.348700 0.413830 0.191250 -0.500339
O8    O     O_R   0.651300 0.913830 0.808750 -0.500339
O9    O     O_R   0.166530 0.411570 0.082490 -0.530005
O10   O     O_R   0.833470 0.911570 0.917510 -0.530006
C3    C     C_R   0.372236 0.386844 0.353388 0.743013
C4    C     C_R   0.627763 0.886844 0.646612 0.743015
O11   O     O_R   0.337460 0.588430 0.524740 -0.565425
O12   O     O_R   0.662540 0.088430 0.475260 -0.565425
O13   O     O_3   0.192230 0.499460 0.407330 -0.357100
O14   O     O_3   0.807770 0.999460 0.592670 -0.357100
V1    V     V_3+5 0.263080 0.500100 0.108540 1.649030
V2    V     V_3+5 0.736920 0.000100 0.891460 1.649031
O15   O     O_R   0.155290 0.412090 0.756570 -0.517154
O16   O     O_R   0.844710 0.912090 0.243430 -0.517154
C5    C     C_R   0.129455 0.385984 0.934656 0.747610
C6    C     C_R   0.870544 0.885984 0.065344 0.747610
O17   O     O_R   0.155290 0.586170 0.756550 -0.516650
O18   O     O_R   0.844710 0.086170 0.243450 -0.516650
C7    C     C_R   0.133258 0.615108 0.931931 0.661105
C8    C     C_R   0.866743 0.115108 0.068069 0.661106
V3    V     V_3+5 0.240910 0.499900 0.616030 1.602905
V4    V     V_3+5 0.759090 0.999900 0.383970 1.602906
O19   O     O_3   0.311760 0.500540 0.867100 -0.367484
O20   O     O_3   0.688240 0.000540 0.132900 -0.367484
C9    C     C_3   0.084304 0.743473 0.133542 -0.249191
C10   C     C_3   0.915696 0.243473 0.866459 -0.249191
H1    H     H_    0.090252 0.703983 0.256983 0.218506
H2    H     H_    0.909748 0.203983 0.743018 0.218506
C11   C     C_3   0.003874 0.807813 0.188285 -0.401332
C12   C     C_3   0.996125 0.307814 0.811716 -0.401334
H3    H     H_    0.033137 0.870084 0.212583 0.185658
H4    H     H_    0.966861 0.370085 0.787425 0.185655
H5    H     H_    0.960766 0.787575 0.323907 0.264720
H6    H     H_    0.039232 0.287579 0.676091 0.264719
C13   C     C_3   0.959402 0.653331 0.017004 -0.264471
C14   C     C_3   0.040598 0.153331 0.982995 -0.264470
C15   C     C_3   0.067139 0.742339 0.781962 0.228718
C16   C     C_3   0.932861 0.242338 0.218037 0.228718
C17   C     C_3   0.062803 0.686535 0.964967 -0.119672
C18   C     C_3   0.937197 0.186535 0.035033 -0.119674
H7    H     H_    0.141189 0.757034 0.723104 0.092490
H8    H     H_    0.858811 0.257034 0.276895 0.092491
C19   C     C_3   0.940717 0.813675 0.028255 -0.138337
C20   C     C_3   0.059283 0.313676 0.971744 -0.138335
C21   C     C_3   0.887013 0.728041 0.031014 0.655216
C22   C     C_3   0.112986 0.228042 0.968983 0.655221
C23   C     C_3   0.014232 0.825071 0.837937 -0.242724
C24   C     C_3   0.985768 0.325071 0.162063 -0.242723
H9    H     H_    0.067906 0.869873 0.872312 0.100306
H10   H     H_    0.932093 0.369872 0.127686 0.100305
H11   H     H_    0.944491 0.609931 0.902956 0.195480
H12   H     H_    0.055510 0.109932 0.097043 0.195480
H13   H     H_    0.591307 0.785263 0.372886 0.204540
H14   H     H_    0.408689 0.285261 0.627118 0.204542
H15   H     H_    0.405079 0.720631 0.621137 0.167179
H16   H     H_    0.594919 0.220631 0.378866 0.167178
C25   C     C_2   0.450307 0.674564 0.342787 0.269317
C26   C     C_2   0.549692 0.174563 0.657214 0.269318
C27   C     C_2   0.459232 0.723177 0.495871 -0.137159
C28   C     C_2   0.540766 0.223176 0.504130 -0.137159
C29   C     C_2   0.550567 0.826200 0.657205 0.251855
C30   C     C_2   0.449432 0.326199 0.342795 0.251852
C31   C     C_2   0.539402 0.780123 0.501356 -0.077687
C32   C     C_2   0.460595 0.280122 0.498646 -0.077687
C33   C     C_1   0.982757 0.867213 0.675132 0.454935
N1    N     N_1   0.959279 0.903820 0.549957 -0.302623
C34   C     C_1   0.017242 0.367214 0.324867 0.454936
N2    N     N_1   0.040718 0.403821 0.450041 -0.302626
Cl1   Cl    Cl    0.820320 0.723010 0.835395 -0.471989
Cl2   Cl    Cl    0.179681 0.223011 0.164598 -0.471992
Cl3   Cl    Cl    0.468905 0.823451 0.871105 -0.537168
Cl4   Cl    Cl    0.531095 0.323450 0.128889 -0.537163
Cl5   Cl    Cl    0.536910 0.671444 0.136160 -0.466306
Cl6   Cl    Cl    0.463089 0.171441 0.863843 -0.466304
C35   C     C_1   0.176195 0.785054 0.090791 0.294447
N3    N     N_1   0.247995 0.817759 0.057820 -0.231833
C36   C     C_1   0.823804 0.285053 0.909210 0.294447
N4    N     N_1   0.752004 0.317756 0.942182 -0.231834
C37   C     C_1   0.948364 0.600187 0.190559 0.410999
N5    N     N_1   0.938961 0.558073 0.325470 -0.229111
C38   C     C_1   0.051637 0.100187 0.809441 0.411003
N6    N     N_1   0.061041 0.058074 0.674530 -0.229112
Cl7   Cl    Cl    0.798602 0.720881 0.242942 -0.535946
Cl8   Cl    Cl    0.201395 0.220882 0.757056 -0.535951
Cl9   Cl    Cl    0.021210 0.687400 0.596426 -0.662566
Cl10  Cl    Cl    0.978790 0.187399 0.403574 -0.662565

loop_
_geom_bond_atom_site_label_1
_geom_bond_atom_site_label_2
_ccdc_geom_bond_type
C26   C28   D    
C37   N5    T    
C2    C26   S    
O13   V3    S    
C33   N1    T    
O4    C2    A    
V1    O19   S    
C36   N4    T    
O9    V1    S    
H16   C28   S    
O7    V1    S    
C12   H6    S    
O3    C1    A    
C11   C19   S    
C12   C20   S    
C3    C30   S    
O12   V4    S    
C29   C31   D    
O7    C3    A    
O13   V1    S    
O5    C7    A    
C13   C21   S    
O6    C8    A    
O8    V2    S    
C25   C27   D    
C21   Cl7   S    
O3    V1    S    
O14   V4    S    
V4    O20   S    
C27   C31   S    
C13   H11   S    
H13   C31   S    
C6    C19   S    
C1    O11   A    
C15   Cl9   S    
C2    O12   A    
C24   C34   S    
C20   C22   S    
O11   V3    S    
C16   C18   S    
C15   C17   S    
O17   V3    S    
H15   C27   S    
C30   Cl4   S    
O8    C4    A    
C19   C23   S    
O15   V3    S    
C9    C11   S    
C19   C21   S    
C10   C36   S    
O4    V2    S    
C21   Cl1   S    
C34   N2    T    
C22   Cl8   S    
C26   Cl6   S    
C25   Cl5   S    
C35   N3    T    
C16   Cl10  S    
C15   H7    S    
C28   C32   S    
O10   V2    S    
O1    V3    S    
H14   C32   S    
C9    C35   S    
O18   V4    S    
O15   C5    A    
C9    C17   S    
C4    C29   S    
O16   C6    A    
C29   Cl3   S    
C10   C18   S    
V2    O20   S    
C7    C17   S    
O10   C6    A    
C8    C18   S    
O16   V4    S    
C10   C12   S    
C1    C25   S    
O5    V1    S    
O17   C7    A    
O6    V2    S    
C16   H8    S    
O18   C8    A    
O2    V4    S    
C13   C37   S    
C23   H9    S    
V3    O19   S    
C14   C18   S    
C12   H4    S    
C5    C20   S    
C14   H12   S    
O9    C5    A    
C9    H1    S    
C10   H2    S    
C24   H10   S    
O14   V2    S    
C11   H5    S    
O2    C4    A    
C23   C33   S    
C14   C22   S    
O1    C3    A    
C15   C23   S    
C11   H3    S    
C16   C24   S    
C30   C32   D    
C38   N6    T    
C13   C17   S    
C14   C38   S    
C20   C24   S    
C22   Cl2   S    
