data_mof_unit_4935.cif
_audit_creation_date              2012-10-26T21:33:02-0400
_audit_creation_method            fapswitch 2.2
_symmetry_space_group_name_H-M    P1
_symmetry_Int_Tables_number       1
_space_group_crystal_system       triclinic
_cell_length_a                    28.30914
_cell_length_b                    18.605128
_cell_length_c                    17.09634
_cell_angle_alpha                 89.981878
_cell_angle_beta                  61.636651
_cell_angle_gamma                 90.028962
_cell_volume                      7923.58353939

loop_
_atom_site_label
_atom_site_type_symbol
_atom_type_description
_atom_site_fract_x
_atom_site_fract_y
_atom_site_fract_z
_atom_type_partial_charge
C1    C     C_R   0.703985 0.272498 0.674334 0.879248
C2    C     C_R   0.926017 0.627340 0.572024 -0.300269
C3    C     C_R   0.076983 0.905017 0.931087 0.878759
C4    C     C_R   0.576003 0.596416 0.932143 0.898976
C5    C     C_R   0.423533 0.404295 0.068304 0.897667
C6    C     C_R   0.423686 0.595915 0.068173 0.890888
C7    C     C_R   0.576983 0.405017 0.931087 0.878760
C8    C     C_R   0.541809 0.005186 0.529581 0.025514
C9    C     C_R   0.443673 0.003387 0.525436 0.031287
C10   C     C_R   0.041809 0.505186 0.529581 0.025514
C11   C     C_R   0.943673 0.503387 0.525436 0.031287
C12   C     C_R   0.508115 0.066504 0.558505 0.018166
C13   C     C_R   0.947987 0.374054 0.516773 -0.198542
C14   C     C_R   0.473779 0.939981 0.509902 0.009140
C15   C     C_R   0.460465 0.067428 0.549559 0.068922
C16   C     C_R   0.525795 0.943403 0.500494 0.012523
C17   C     C_R   0.008115 0.566504 0.558505 0.018166
C18   C     C_R   0.973779 0.439981 0.509902 0.009140
C19   C     C_R   0.960465 0.567428 0.549559 0.068922
C20   C     C_R   0.025795 0.443402 0.500494 0.012523
C21   C     C_R   0.625441 0.943839 0.499999 -0.028671
C22   C     C_R   0.366616 0.064515 0.527855 0.076157
C23   C     C_R   0.373085 0.935169 0.513854 -0.041320
C24   C     C_R   0.022112 0.622829 0.598887 -0.196006
C25   C     C_R   0.606577 0.064207 0.565352 -0.014346
C26   C     C_R   0.125441 0.443839 0.499999 -0.028671
C27   C     C_R   0.866616 0.564515 0.527855 0.076157
C28   C     C_R   0.873085 0.435169 0.513854 -0.041320
C29   C     C_R   0.106577 0.564207 0.565352 -0.014347
C30   C     C_R   0.669171 0.939421 0.519261 -0.133873
C31   C     C_R   0.326359 0.063700 0.499556 -0.091652
C32   C     C_R   0.329566 0.935792 0.492551 -0.094802
C33   C     C_R   0.659404 0.064547 0.554988 -0.145112
C34   C     C_R   0.169171 0.439421 0.519261 -0.133873
C35   C     C_R   0.563208 0.888404 0.457796 -0.193733
C36   C     C_R   0.826359 0.563700 0.499556 -0.091652
C37   C     C_R   0.829566 0.435792 0.492551 -0.094802
C38   C     C_R   0.159404 0.564547 0.554988 -0.145112
C39   C     C_R   0.686493 0.000641 0.543469 -0.260131
C40   C     C_R   0.309765 0.999847 0.480510 -0.254108
C41   C     C_R   0.186493 0.500641 0.543469 -0.260131
C42   C     C_R   0.809765 0.499847 0.480510 -0.254109
C43   C     C_R   0.591036 0.004353 0.532092 0.080553
C44   C     C_R   0.395458 0.001357 0.519389 0.038229
C45   C     C_R   0.091036 0.504353 0.532092 0.080553
C46   C     C_R   0.426017 0.127340 0.572024 -0.300269
C47   C     C_R   0.895458 0.501357 0.519389 0.038229
C48   C     C_R   0.114612 0.391614 0.450065 -0.013411
C49   C     C_R   0.877486 0.623593 0.569255 0.002222
C50   C     C_R   0.894348 0.373018 0.534533 0.000574
C51   C     C_R   0.069307 0.620790 0.606504 -0.017408
C52   C     C_R   0.614612 0.891614 0.450065 -0.013411
C53   C     C_R   0.377486 0.123593 0.569255 0.002222
C54   C     C_R   0.394348 0.873017 0.534533 0.000574
C55   C     C_R   0.569307 0.120790 0.606504 -0.017408
C56   C     C_2   0.158203 0.349255 0.378372 0.487034
C57   C     C_R   0.447987 0.874054 0.516773 -0.198542
C58   C     C_2   0.833802 0.668571 0.634529 0.466005
C59   C     C_2   0.858556 0.319538 0.600823 0.494897
C60   C     C_2   0.075485 0.673046 0.667042 0.472093
C61   C     C_2   0.658203 0.849255 0.378372 0.487033
C62   C     C_2   0.333802 0.168571 0.634529 0.466006
C63   C     C_2   0.358555 0.819538 0.600823 0.494897
C64   C     C_2   0.575485 0.173046 0.667042 0.472093
C65   C     C_2   0.650320 0.408336 0.738302 0.398346
C66   C     C_2   0.357556 0.598980 0.259347 0.490278
C67   C     C_2   0.357186 0.401530 0.259677 0.487786
C68   C     C_R   0.522112 0.122829 0.598887 -0.196007
C69   C     C_2   0.642582 0.600431 0.742012 0.451919
C70   C     C_2   0.150320 0.908336 0.738302 0.398345
C71   C     C_2   0.857555 0.098980 0.259347 0.490278
C72   C     C_2   0.857186 0.901530 0.259677 0.487786
C73   C     C_2   0.142582 0.100431 0.742012 0.451920
C74   C     C_R   0.719527 0.265230 0.955337 0.118515
C75   C     C_R   0.279769 0.733684 0.045542 0.117166
C76   C     C_R   0.278243 0.268898 0.046544 0.123553
C77   C     C_R   0.296073 0.727518 0.325709 0.882862
C78   C     C_R   0.717652 0.738302 0.956492 0.121050
C79   C     C_R   0.219527 0.765230 0.955337 0.118515
C80   C     C_R   0.779770 0.233684 0.045542 0.117166
C81   C     C_R   0.778244 0.768897 0.046544 0.123552
C82   C     C_R   0.217652 0.238302 0.956492 0.121051
C83   C     C_R   0.744755 0.198206 0.944792 -0.162657
C84   C     C_R   0.254511 0.800682 0.056116 -0.173164
C85   C     C_R   0.252973 0.201945 0.056632 -0.156174
C86   C     C_R   0.742973 0.805268 0.946333 -0.180178
C87   C     C_R   0.244755 0.698206 0.944792 -0.162657
C88   C     C_R   0.296011 0.272592 0.325724 0.863045
C89   C     C_R   0.754511 0.300682 0.056116 -0.173164
C90   C     C_R   0.752973 0.701945 0.056632 -0.156173
C91   C     C_R   0.242973 0.305268 0.946333 -0.180180
C92   C     C_R   0.774300 0.182643 0.989350 -0.166976
C93   C     C_R   0.224951 0.816228 0.011602 -0.167775
C94   C     C_R   0.223323 0.186836 0.012135 -0.153877
C95   C     C_R   0.772701 0.820349 0.990783 -0.168041
C96   C     C_R   0.274300 0.682643 0.989350 -0.166975
C97   C     C_R   0.724951 0.316228 0.011602 -0.167775
C98   C     C_R   0.723323 0.686836 0.012135 -0.153877
C99   C     C_R   0.702810 0.729698 0.675022 0.913115
C100  C     C_R   0.272701 0.320349 0.990783 -0.168041
C101  C     C_R   0.644162 0.328017 0.943827 -0.207203
C102  C     C_R   0.355726 0.671736 0.056039 -0.218645
C103  C     C_R   0.354735 0.329820 0.056646 -0.222081
C104  C     C_R   0.642270 0.675051 0.945566 -0.222347
C105  C     C_R   0.144162 0.828017 0.943827 -0.207203
C106  C     C_R   0.855726 0.171736 0.056039 -0.218645
C107  C     C_R   0.854735 0.829820 0.056646 -0.222081
C108  C     C_R   0.142270 0.175051 0.945566 -0.222347
C109  C     C_R   0.623506 0.359210 0.891011 -0.138175
C110  C     C_R   0.203985 0.772498 0.674334 0.879249
C111  C     C_R   0.377584 0.642240 0.107947 -0.127072
C112  C     C_R   0.377071 0.358533 0.108284 -0.127262
C113  C     C_R   0.621170 0.644437 0.893206 -0.130323
C114  C     C_R   0.123506 0.859210 0.891011 -0.138175
C115  C     C_R   0.877584 0.142240 0.107947 -0.127072
C116  C     C_R   0.877071 0.858533 0.108284 -0.127262
C117  C     C_R   0.121170 0.144437 0.893206 -0.130323
C118  C     C_R   0.650680 0.351043 0.799372 -0.055364
C119  C     C_R   0.352589 0.652768 0.198984 -0.091931
C120  C     C_R   0.352184 0.347853 0.199273 -0.090420
C121  C     C_R   0.796073 0.227518 0.325709 0.882862
C122  C     C_R   0.646012 0.655548 0.802378 -0.072137
C123  C     C_R   0.150680 0.851044 0.799372 -0.055363
C124  C     C_R   0.852589 0.152768 0.198984 -0.091931
C125  C     C_R   0.852184 0.847852 0.199273 -0.090419
C126  C     C_R   0.146012 0.155548 0.802378 -0.072137
C127  C     C_R   0.686021 0.293890 0.765652 -0.062368
C128  C     C_R   0.314978 0.707202 0.233904 -0.118229
C129  C     C_R   0.314496 0.293486 0.234175 -0.129019
C130  C     C_R   0.682617 0.711299 0.767866 -0.064947
C131  C     C_R   0.186021 0.793890 0.765652 -0.062368
C132  C     C_R   0.796011 0.772592 0.325724 0.863045
C133  C     C_R   0.814978 0.207202 0.233904 -0.118229
C134  C     C_R   0.814496 0.793487 0.234175 -0.129020
C135  C     C_R   0.182617 0.211299 0.767866 -0.064947
C136  C     C_R   0.707755 0.262290 0.817021 -0.234625
C137  C     C_R   0.292115 0.737121 0.183259 -0.208958
C138  C     C_R   0.291115 0.264314 0.183864 -0.187829
C139  C     C_R   0.704541 0.742738 0.819219 -0.160190
C140  C     C_R   0.207755 0.762290 0.817022 -0.234625
C141  C     C_R   0.792115 0.237121 0.183259 -0.208958
C142  C     C_R   0.791115 0.764314 0.183864 -0.187830
C143  C     C_R   0.202810 0.229698 0.675022 0.913115
C144  C     C_R   0.204540 0.242738 0.819219 -0.160190
C145  C     C_R   0.689775 0.284119 0.905299 0.078121
C146  C     C_R   0.309930 0.715210 0.095049 0.075621
C147  C     C_R   0.308683 0.286740 0.095843 0.068582
C148  C     C_R   0.687287 0.720064 0.907119 0.078315
C149  C     C_R   0.189775 0.784119 0.905299 0.078121
C150  C     C_R   0.809930 0.215210 0.095049 0.075621
C151  C     C_R   0.808683 0.786740 0.095843 0.068582
C152  C     C_R   0.187287 0.220064 0.907119 0.078315
C153  C     C_R   0.691598 0.129741 0.535899 0.846516
C154  C     C_R   0.063208 0.388404 0.457796 -0.193732
C155  C     C_R   0.304315 0.871644 0.480910 0.903673
C156  C     C_R   0.302467 0.128326 0.485820 0.916650
C157  C     C_R   0.696286 0.872483 0.518522 0.848771
C158  C     C_R   0.191598 0.629741 0.535899 0.846516
C159  C     C_R   0.804315 0.371644 0.480910 0.903672
C160  C     C_R   0.802467 0.628325 0.485820 0.916650
C161  C     C_R   0.196285 0.372483 0.518522 0.848771
C162  C     C_R   0.076003 0.096416 0.932143 0.898976
C163  C     C_R   0.923533 0.904295 0.068304 0.897667
C164  C     C_R   0.923686 0.095915 0.068173 0.890887
H1    H     H_    0.723503 0.999697 0.547715 0.200162
H2    H     H_    0.433582 0.175951 0.598510 0.135373
H3    H     H_    0.466008 0.824955 0.524299 0.193018
H4    H     H_    0.495199 0.167044 0.630350 0.184033
H5    H     H_    0.707215 0.369084 0.019883 0.136271
H6    H     H_    0.292083 0.629814 0.981009 0.132243
H7    H     H_    0.290571 0.373125 0.982718 0.131904
H8    H     H_    0.705663 0.633938 0.020056 0.135350
H9    H     H_    0.207215 0.869084 0.019883 0.136271
H10   H     H_    0.792083 0.129814 0.981009 0.132243
H11   H     H_    0.790571 0.873125 0.982718 0.131904
H12   H     H_    0.279470 0.999927 0.458746 0.194004
H13   H     H_    0.205663 0.133938 0.020056 0.135350
H14   H     H_    0.741103 0.157253 0.903026 0.131890
H15   H     H_    0.258232 0.841682 0.097768 0.132681
H16   H     H_    0.256777 0.160618 0.097867 0.131666
H17   H     H_    0.739224 0.846560 0.905013 0.128430
H18   H     H_    0.241103 0.657253 0.903026 0.131891
H19   H     H_    0.758232 0.341682 0.097768 0.132681
H20   H     H_    0.756778 0.660618 0.097867 0.131666
H21   H     H_    0.239224 0.346560 0.905013 0.128431
H22   H     H_    0.740446 0.224227 0.786776 0.169702
H23   H     H_    0.223503 0.499697 0.547715 0.200162
H24   H     H_    0.258632 0.773938 0.214066 0.159005
H25   H     H_    0.257485 0.227667 0.214776 0.182172
H26   H     H_    0.737486 0.780465 0.788667 0.145435
H27   H     H_    0.240446 0.724227 0.786776 0.169702
H28   H     H_    0.758632 0.273938 0.214066 0.159005
H29   H     H_    0.757485 0.727667 0.214776 0.182173
H30   H     H_    0.237486 0.280465 0.788667 0.145435
H31   H     H_    0.199840 0.363948 0.355229 0.013946
H32   H     H_    0.841442 0.723466 0.646941 0.047327
H33   H     H_    0.816025 0.330955 0.640010 0.072826
H34   H     H_    0.779470 0.499927 0.458746 0.194004
H35   H     H_    0.104116 0.662923 0.691047 0.029598
H36   H     H_    0.699840 0.863948 0.355229 0.013946
H37   H     H_    0.341442 0.223466 0.646941 0.047327
H38   H     H_    0.316025 0.830955 0.640010 0.072827
H39   H     H_    0.604116 0.162923 0.691047 0.029598
H40   H     H_    0.625940 0.339855 0.014236 0.159487
H41   H     H_    0.373240 0.658918 0.985966 0.165375
H42   H     H_    0.372108 0.342898 0.986644 0.164225
H43   H     H_    0.624930 0.661670 0.015476 0.164506
H44   H     H_    0.125940 0.839855 0.014236 0.159487
H45   H     H_    0.054014 0.346308 0.423347 0.191265
H46   H     H_    0.873240 0.158918 0.985966 0.165375
H47   H     H_    0.872108 0.842898 0.986644 0.164225
H48   H     H_    0.124930 0.161670 0.015476 0.164506
H49   H     H_    0.613640 0.429469 0.742498 0.124879
H50   H     H_    0.325444 0.560637 0.293357 0.001796
H51   H     H_    0.324891 0.439457 0.294243 -0.007107
H52   H     H_    0.674928 0.562168 0.710397 0.113627
H53   H     H_    0.113640 0.929469 0.742499 0.124878
H54   H     H_    0.825444 0.060637 0.293357 0.001796
H55   H     H_    0.824891 0.939457 0.294243 -0.007106
H56   H     H_    0.933582 0.675951 0.598510 0.135373
H57   H     H_    0.174928 0.062168 0.710398 0.113626
H58   H     H_    0.966008 0.324955 0.524299 0.193018
H59   H     H_    0.995199 0.667044 0.630350 0.184032
H60   H     H_    0.554014 0.846308 0.423347 0.191265
O1    O     O_R   0.746490 0.236330 0.638080 -0.651532
O2    O     O_R   0.325830 0.813840 0.483730 -0.645462
O3    O     O_R   0.325830 0.186160 0.483730 -0.643591
O4    O     O_R   0.674170 0.813840 0.516270 -0.619055
O5    O     O_R   0.174170 0.686160 0.516270 -0.626498
O6    O     O_R   0.825830 0.313840 0.483730 -0.645462
O7    O     O_R   0.825830 0.686160 0.483730 -0.643591
O8    O     O_R   0.174170 0.313840 0.516270 -0.619055
O9    O     O_R   0.739960 0.127620 0.525000 -0.629120
O10   O     O_R   0.260040 0.872380 0.475000 -0.604969
O11   O     O_R   0.260040 0.127620 0.475000 -0.628215
O12   O     O_R   0.253510 0.763670 0.361920 -0.640744
O13   O     O_R   0.739960 0.872380 0.525000 -0.636137
O14   O     O_R   0.239960 0.627620 0.525000 -0.629120
O15   O     O_R   0.760040 0.372380 0.475000 -0.604969
O16   O     O_R   0.760040 0.627620 0.475000 -0.628215
O17   O     O_R   0.239960 0.372380 0.525000 -0.636137
O18   O     O_R   0.680700 0.294870 0.629350 -0.597459
O19   O     O_R   0.319300 0.705130 0.370650 -0.584642
O20   O     O_R   0.319300 0.294870 0.370650 -0.592141
O21   O     O_R   0.680700 0.705130 0.629350 -0.594414
O22   O     O_R   0.180700 0.794870 0.629350 -0.597459
O23   O     O_R   0.253510 0.236330 0.361920 -0.627463
O24   O     O_R   0.819300 0.205130 0.370650 -0.584642
O25   O     O_R   0.819300 0.794870 0.370650 -0.592141
O26   O     O_R   0.180700 0.205130 0.629350 -0.594414
O27   O     O_R   0.062020 0.072840 0.007170 -0.632778
O28   O     O_R   0.937980 0.927160 0.992830 -0.635452
O29   O     O_R   0.937980 0.072840 0.992830 -0.634596
O30   O     O_R   0.062020 0.927160 0.007170 -0.620280
O31   O     O_R   0.562020 0.572840 0.007170 -0.632778
O32   O     O_R   0.437980 0.427160 0.992830 -0.635452
O33   O     O_R   0.437980 0.572840 0.992830 -0.634596
O34   O     O_R   0.746490 0.763670 0.638080 -0.644225
O35   O     O_R   0.562020 0.427160 0.007170 -0.620280
O36   O     O_R   0.947860 0.073950 0.109290 -0.571829
O37   O     O_R   0.052140 0.926050 0.890710 -0.644071
O38   O     O_R   0.052140 0.073950 0.890710 -0.579247
O39   O     O_R   0.947860 0.926050 0.109290 -0.570164
O40   O     O_R   0.447860 0.573950 0.109290 -0.571829
O41   O     O_R   0.552140 0.426050 0.890710 -0.644072
O42   O     O_R   0.552140 0.573950 0.890710 -0.579247
O43   O     O_R   0.447860 0.426050 0.109290 -0.570164
O44   O     O_2   0.148214 0.298422 0.343427 -0.581165
O45   O     O_R   0.246490 0.736330 0.638080 -0.651532
O46   O     O_2   0.789547 0.642214 0.679787 -0.610578
O47   O     O_2   0.876065 0.263099 0.613127 -0.582415
O48   O     O_2   0.048358 0.727628 0.691579 -0.582862
O49   O     O_2   0.648214 0.798422 0.343427 -0.581165
O50   O     O_2   0.289547 0.142214 0.679787 -0.610578
O51   O     O_2   0.376065 0.763099 0.613127 -0.582415
O52   O     O_2   0.548358 0.227628 0.691579 -0.582863
O53   O     O_2   0.692819 0.431639 0.679762 -0.597528
O54   O     O_2   0.394660 0.601504 0.276818 -0.507767
O55   O     O_2   0.394438 0.399220 0.276788 -0.511220
O56   O     O_R   0.753510 0.263670 0.361920 -0.640744
O57   O     O_2   0.606272 0.601387 0.722537 -0.532944
O58   O     O_2   0.192820 0.931639 0.679762 -0.597527
O59   O     O_2   0.894660 0.101504 0.276818 -0.507768
O60   O     O_2   0.894438 0.899220 0.276788 -0.511220
O61   O     O_2   0.106272 0.101388 0.722537 -0.532944
O62   O     O_R   0.753510 0.736330 0.361920 -0.627463
O63   O     O_R   0.246490 0.263670 0.638080 -0.644225
O64   O     O_R   0.674170 0.186160 0.516270 -0.626498
Zn1   Zn    Zn3+2 0.792340 0.208750 0.507670 1.044940
Zn2   Zn    Zn3+2 0.494040 0.500000 0.919480 1.005386
Zn3   Zn    Zn3+2 0.005960 0.000000 0.080520 1.054876
Zn4   Zn    Zn3+2 0.994040 0.000000 0.919480 1.005386
Zn5   Zn    Zn3+2 0.207660 0.791250 0.492330 1.019449
Zn6   Zn    Zn3+2 0.207660 0.208750 0.492330 1.049499
Zn7   Zn    Zn3+2 0.792340 0.791250 0.507670 0.989934
Zn8   Zn    Zn3+2 0.292340 0.708750 0.507670 1.044940
Zn9   Zn    Zn3+2 0.707660 0.291250 0.492330 1.019449
Zn10  Zn    Zn3+2 0.707660 0.708750 0.492330 1.049499
Zn11  Zn    Zn3+2 0.292340 0.291250 0.507670 0.989934
Zn12  Zn    Zn3+2 0.505960 0.500000 0.080520 1.054876

loop_
_geom_bond_atom_site_label_1
_geom_bond_atom_site_label_2
_ccdc_geom_bond_type
C28   C47   A    
C82   C94   A    
C63   H38   S    
O18   Zn9   S    
O27   Zn3   S    
C7    O35   A    
C164  O29   A    
C103  H42   S    
C13   H58   S    
C34   C161  S    
C87   H18   S    
C79   C87   A    
C155  O2    A    
C141  H28   S    
C124  C133  A    
C50   C59   S    
C5    O32   A    
C52   C61   S    
C16   C35   A    
C81   C95   A    
C54   C63   S    
C156  O11   A    
C73   C126  S    
C106  H46   S    
C41   H23   S    
C37   C42   A    
C95   H11   S    
C131  C140  A    
O13   Zn7   S    
C36   C42   A    
C113  C122  A    
C10   C20   A    
C3    O37   A    
C132  O25   A    
C65   C118  S    
C72   O60   D    
C91   C100  A    
C22   C53   A    
C117  C126  A    
C74   C83   A    
C161  O17   A    
C78   C148  S    
C79   C149  S    
C119  C128  A    
C24   C51   A    
C8    C16   A    
C2    H56   S    
C102  C111  A    
C109  C118  A    
C4    C113  S    
C42   H34   S    
C127  C136  A    
C112  C120  A    
C99   O34   A    
C70   O58   D    
O2    Zn8   S    
C82   C91   A    
C29   C45   A    
C103  C112  A    
C142  C151  A    
C39   H1    S    
C62   H37   S    
C65   H49   S    
C56   H31   S    
C105  C114  A    
C110  C131  S    
C158  O14   A    
C81   C90   A    
C13   C18   A    
C63   O51   D    
C5    O43   A    
C14   C57   A    
C83   H14   S    
C136  H22   S    
C2    C19   A    
O39   Zn3   S    
C25   C55   A    
C76   C100  A    
C58   O46   D    
C73   H57   S    
C72   C125  S    
C9    C15   A    
C46   C53   A    
C93   H9    S    
C84   C93   A    
C3    O30   A    
C86   C95   A    
C132  C134  S    
C6    O40   A    
C101  C109  A    
C76   C85   A    
O15   Zn9   S    
C11   C18   A    
C106  C150  A    
C6    C111  S    
C74   C145  S    
C139  H26   S    
C25   C43   A    
C31   C156  S    
C106  C115  A    
C103  C147  A    
C67   C120  S    
C12   C68   A    
C101  C145  A    
C71   H54   S    
C6    O33   A    
C89   H19   S    
C163  O28   A    
C33   C153  S    
C75   C84   A    
C144  H30   S    
C32   C155  S    
O37   Zn4   S    
C111  C119  A    
C62   O50   D    
C104  H43   S    
C157  O4    A    
O21   Zn10  S    
C121  O24   A    
C29   C38   A    
C86   H17   S    
C137  H24   S    
C98   H8    S    
C135  C143  S    
C55   C64   S    
C69   H52   S    
O14   Zn8   S    
C88   C129  S    
C158  O5    A    
C108  H48   S    
C141  C150  A    
C75   C146  S    
C139  C148  A    
O4    Zn10  S    
C120  C129  A    
C38   C41   A    
C40   H12   S    
C92   H10   S    
O19   Zn8   S    
C81   C151  S    
C162  O27   A    
C8    C12   A    
C10   C45   A    
O42   Zn2   S    
C114  C123  A    
C68   H4    S    
O1    Zn1   S    
C66   C119  S    
O9    Zn1   S    
C138  H25   S    
C118  C127  A    
C67   O55   D    
C105  H44   S    
C29   C51   A    
C24   H59   S    
C27   C47   A    
C48   C154  A    
C61   O49   D    
C77   O19   A    
C108  C117  A    
O40   Zn12  S    
C3    C114  S    
C5    C112  S    
C117  C162  S    
C116  C125  A    
C71   O59   D    
C37   C159  S    
C144  C152  A    
C35   H60   S    
C28   C37   A    
C85   H16   S    
C58   H32   S    
C30   C39   A    
C56   O44   D    
C107  C116  A    
C1    O18   A    
C13   C50   A    
C140  H27   S    
C51   C60   S    
C15   C46   A    
O31   Zn12  S    
C140  C149  A    
C27   C49   A    
C25   C33   A    
C54   C57   A    
C125  C134  A    
C30   C157  S    
C143  O63   A    
C104  C148  A    
C116  C163  S    
C11   C47   A    
C8    C43   A    
C55   C68   A    
O23   Zn6   S    
C11   C19   A    
O63   Zn11  S    
O24   Zn1   S    
C107  H47   S    
C162  O38   A    
C4    O42   A    
C31   C40   A    
C80   C89   A    
C7    O41   A    
C108  C152  A    
O16   Zn10  S    
O64   Zn9   S    
C99   O21   A    
C26   C48   A    
C91   H21   S    
O56   Zn9   S    
C34   C41   A    
C130  C139  A    
C75   C96   A    
O25   Zn7   S    
C70   H53   S    
O10   Zn5   S    
C38   C158  S    
C155  O10   A    
C77   O12   A    
C23   C44   A    
O28   Zn4   S    
C94   H13   S    
C66   H50   S    
C84   H15   S    
O12   Zn5   S    
C134  C142  A    
C137  C146  A    
C12   C15   A    
C153  O9    A    
C156  O3    A    
C157  O13   A    
C64   H39   S    
C90   H20   S    
C126  C135  A    
C65   O53   D    
O41   Zn2   S    
O29   Zn4   S    
O3    Zn11  S    
O30   Zn3   S    
C1    O1    A    
C22   C44   A    
C115  C124  A    
C46   H2    S    
C99   C130  S    
C123  C131  A    
C88   O20   A    
C57   H3    S    
C27   C36   A    
C21   C30   A    
O22   Zn5   S    
C133  C141  A    
C23   C32   A    
O11   Zn6   S    
C104  C113  A    
C142  H29   S    
O38   Zn4   S    
O8    Zn6   S    
C73   O61   D    
C35   C52   A    
C159  O15   A    
C82   C152  S    
C80   C92   A    
O26   Zn6   S    
C143  O26   A    
C67   H51   S    
C121  O56   A    
C9    C14   A    
O32   Zn2   S    
O17   Zn11  S    
C64   O52   D    
C80   C150  S    
C83   C92   A    
C33   C39   A    
C20   C154  A    
C69   C122  S    
C79   C93   A    
C154  H45   S    
C10   C17   A    
C97   H5    S    
C115  C164  S    
O45   Zn8   S    
C60   H35   S    
C21   C43   A    
C28   C50   A    
C70   C123  S    
C26   C34   A    
C69   O57   D    
C129  C138  A    
C76   C147  S    
C78   C98   A    
C136  C145  A    
C26   C45   A    
C110  O22   A    
O36   Zn3   S    
C96   H6    S    
C100  H7    S    
O6    Zn1   S    
O34   Zn7   S    
C61   H36   S    
O33   Zn2   S    
C74   C97   A    
C132  O62   A    
O35   Zn12  S    
C17   C24   A    
C22   C31   A    
C159  O6    A    
C71   C124  S    
C49   C58   S    
C7    C109  S    
C89   C97   A    
C128  C137  A    
O7    Zn7   S    
C2    C49   A    
C161  O8    A    
C85   C94   A    
C138  C147  A    
C87   C96   A    
C153  O64   A    
C160  O7    A    
C59   O47   D    
O43   Zn12  S    
C60   O48   D    
O5    Zn5   S    
C77   C128  S    
C135  C144  A    
C164  O36   A    
C14   C16   A    
C23   C54   A    
C48   C56   S    
C72   H55   S    
C9    C44   A    
C160  O16   A    
C1    C127  S    
C101  H40   S    
C110  O45   A    
C105  C149  A    
C107  C151  A    
C102  C146  A    
C88   O23   A    
C78   C86   A    
C59   H33   S    
C17   C19   A    
C90   C98   A    
C66   O54   D    
C18   C20   A    
C32   C40   A    
C102  H41   S    
C36   C160  S    
C53   C62   S    
C163  O39   A    
O62   Zn10  S    
C4    O31   A    
C121  C133  S    
C122  C130  A    
C21   C52   A    
O20   Zn11  S    
