data_mof_unit_2841.cif
_audit_creation_date              2012-12-11T16:07:21-0500
_audit_creation_method            fapswitch 2.2
_symmetry_space_group_name_H-M    P1
_symmetry_Int_Tables_number       1
_space_group_crystal_system       triclinic
_cell_length_a                    17.205172
_cell_length_b                    17.205172
_cell_length_c                    17.593454
_cell_angle_alpha                 90.005162
_cell_angle_beta                  90.005162
_cell_angle_gamma                 89.998725
_cell_volume                      5207.97802945

loop_
_atom_site_label
_atom_site_type_symbol
_atom_type_description
_atom_site_fract_x
_atom_site_fract_y
_atom_site_fract_z
_atom_type_partial_charge
C1    C     C_R   0.393303 0.697692 0.604979 0.632946
C2    C     C_R   0.606285 0.697337 0.606205 0.630912
C3    C     C_3   0.781937 0.218099 0.683972 -0.488106
C4    C     C_3   0.782042 0.782042 0.316427 -0.487687
C5    C     C_3   0.219318 0.219318 0.686744 -0.489897
C6    C     C_3   0.780874 0.219101 0.313581 -0.489934
C7    C     C_3   0.218099 0.781937 0.683972 -0.488106
C8    C     C_3   0.718114 0.718114 0.815927 -0.487270
C9    C     C_3   0.280931 0.280931 0.186342 -0.489064
C10   C     C_3   0.719101 0.280874 0.813581 -0.489934
C11   C     C_3   0.281937 0.718099 0.183972 -0.488106
C12   C     C_3   0.282042 0.282042 0.816427 -0.487687
C13   C     C_R   0.697316 0.393742 0.393735 0.630694
C14   C     C_3   0.719318 0.719318 0.186744 -0.489897
C15   C     C_3   0.280874 0.719101 0.813581 -0.489934
C16   C     C_3   0.718099 0.281937 0.183972 -0.488106
C17   C     C_R   0.302306 0.606710 0.604956 0.633149
C18   C     C_R   0.606733 0.697719 0.395162 0.633112
C19   C     C_R   0.393851 0.302779 0.606513 0.630379
C20   C     C_R   0.302684 0.606264 0.393729 0.630787
C21   C     C_R   0.697692 0.393303 0.604979 0.632946
C22   C     C_R   0.893303 0.197692 0.104979 0.632946
C23   C     C_R   0.106264 0.802684 0.893729 0.630787
C24   C     C_R   0.197337 0.106285 0.106204 0.630912
C25   C     C_R   0.606264 0.302684 0.393729 0.630787
C26   C     C_R   0.802314 0.893305 0.895004 0.632985
C27   C     C_R   0.106710 0.802306 0.104956 0.633149
C28   C     C_R   0.893742 0.197316 0.893735 0.630694
C29   C     C_R   0.802779 0.893851 0.106513 0.630379
C30   C     C_R   0.197719 0.106733 0.895162 0.633112
C31   C     C_R   0.893305 0.802314 0.895004 0.632985
C32   C     C_R   0.106285 0.197337 0.106204 0.630912
C33   C     C_R   0.197316 0.893742 0.893735 0.630694
C34   C     C_R   0.802306 0.106710 0.104956 0.633149
C35   C     C_R   0.106733 0.197719 0.895162 0.633112
C36   C     C_R   0.697337 0.606285 0.606205 0.630912
C37   C     C_R   0.893850 0.802779 0.106513 0.630379
C38   C     C_R   0.802684 0.106264 0.893729 0.630787
C39   C     C_R   0.197692 0.893303 0.104979 0.632946
C40   C     C_3   0.281303 0.281303 0.311305 -0.052565
C41   C     C_3   0.717753 0.717753 0.690947 -0.051749
C42   C     C_3   0.282294 0.717711 0.308954 -0.051712
C43   C     C_3   0.718733 0.281274 0.688617 -0.052512
C44   C     C_3   0.718856 0.718856 0.311695 -0.052534
C45   C     C_3   0.282490 0.282490 0.691452 -0.051657
C46   C     C_3   0.717711 0.282294 0.308954 -0.051711
C47   C     C_R   0.302314 0.393306 0.395004 0.632985
C48   C     C_3   0.281274 0.718733 0.688617 -0.052512
C49   C     C_3   0.781303 0.781303 0.811305 -0.052565
C50   C     C_3   0.217753 0.217753 0.190947 -0.051749
C51   C     C_3   0.782294 0.217711 0.808954 -0.051711
C52   C     C_3   0.218733 0.781274 0.188617 -0.052512
C53   C     C_3   0.218856 0.218856 0.811694 -0.052534
C54   C     C_3   0.782489 0.782490 0.191452 -0.051657
C55   C     C_3   0.217711 0.782294 0.808954 -0.051711
C56   C     C_3   0.781274 0.218733 0.188617 -0.052512
C57   C     C_R   0.317587 0.682422 0.624262 -0.390694
C58   C     C_R   0.606710 0.302306 0.604956 0.633149
C59   C     C_R   0.681687 0.318318 0.373584 -0.388028
C60   C     C_R   0.681724 0.681724 0.626314 -0.388287
C61   C     C_R   0.317597 0.317597 0.375684 -0.390549
C62   C     C_R   0.682422 0.317587 0.624262 -0.390694
C63   C     C_R   0.318318 0.681687 0.373584 -0.388028
C64   C     C_R   0.318503 0.318503 0.626834 -0.387359
C65   C     C_R   0.682471 0.682471 0.375958 -0.390904
C66   C     C_R   0.817587 0.182422 0.124262 -0.390694
C67   C     C_R   0.181687 0.818318 0.873584 -0.388028
C68   C     C_R   0.181724 0.181724 0.126314 -0.388287
C69   C     C_R   0.393742 0.697316 0.393735 0.630694
C70   C     C_R   0.817597 0.817597 0.875684 -0.390549
C71   C     C_R   0.182422 0.817587 0.124262 -0.390695
C72   C     C_R   0.818318 0.181687 0.873584 -0.388028
C73   C     C_R   0.818503 0.818503 0.126834 -0.387359
C74   C     C_R   0.182471 0.182471 0.875958 -0.390904
C75   C     C_3   0.762617 0.673914 0.753210 0.444467
C76   C     C_3   0.236402 0.325117 0.249029 0.443631
C77   C     C_3   0.674928 0.236348 0.750876 0.443889
C78   C     C_3   0.326125 0.762597 0.246709 0.444810
C79   C     C_3   0.237587 0.326289 0.753707 0.444871
C80   C     C_R   0.302779 0.393851 0.606513 0.630379
C81   C     C_3   0.763808 0.675090 0.249421 0.443717
C82   C     C_3   0.325083 0.763622 0.750912 0.444012
C83   C     C_3   0.673875 0.237444 0.246674 0.444885
C84   C     C_3   0.762597 0.326124 0.246709 0.444810
C85   C     C_3   0.236348 0.674928 0.750876 0.443889
C86   C     C_3   0.675090 0.763808 0.249421 0.443717
C87   C     C_3   0.326289 0.237587 0.753707 0.444871
C88   C     C_3   0.237444 0.673875 0.246674 0.444885
C89   C     C_3   0.763622 0.325083 0.750912 0.444012
C90   C     C_3   0.325117 0.236402 0.249029 0.443631
C91   C     C_R   0.697719 0.606733 0.395162 0.633112
C92   C     C_3   0.673914 0.762617 0.753210 0.444467
C93   C     C_3   0.262617 0.173914 0.253210 0.444467
C94   C     C_3   0.736402 0.825117 0.749028 0.443631
C95   C     C_3   0.174928 0.736348 0.250876 0.443889
C96   C     C_3   0.826125 0.262597 0.746709 0.444810
C97   C     C_3   0.737587 0.826289 0.253707 0.444871
C98   C     C_3   0.263808 0.175090 0.749421 0.443717
C99   C     C_3   0.825083 0.263622 0.250912 0.444012
C100  C     C_3   0.173875 0.737444 0.746674 0.444885
C101  C     C_3   0.262597 0.826125 0.746709 0.444810
C102  C     C_R   0.393306 0.302314 0.395004 0.632985
C103  C     C_3   0.736348 0.174928 0.250876 0.443889
C104  C     C_3   0.175090 0.263808 0.749421 0.443717
C105  C     C_3   0.826289 0.737587 0.253707 0.444871
C106  C     C_3   0.737444 0.173875 0.746674 0.444885
C107  C     C_3   0.263622 0.825083 0.250912 0.444012
C108  C     C_3   0.825117 0.736402 0.749028 0.443631
C109  C     C_3   0.173914 0.262617 0.253210 0.444467
C110  C     C_3   0.218114 0.218114 0.315927 -0.487270
C111  C     C_3   0.780931 0.780931 0.686342 -0.489064
C112  C     C_3   0.219101 0.780874 0.313581 -0.489934
H1    H     H_    0.193176 0.193176 0.368748 0.192142
H2    H     H_    0.305870 0.305870 0.133520 0.192391
H3    H     H_    0.694152 0.305797 0.866410 0.192468
H4    H     H_    0.306883 0.693176 0.131142 0.192142
H5    H     H_    0.306942 0.306942 0.869289 0.192068
H6    H     H_    0.694416 0.694416 0.133882 0.192508
H7    H     H_    0.305797 0.694152 0.866410 0.192468
H8    H     H_    0.693176 0.306883 0.131142 0.192142
H9    H     H_    0.383859 0.809360 0.603923 0.324255
H10   H     H_    0.615540 0.191015 0.393006 0.324279
H11   H     H_    0.809009 0.615565 0.606826 0.324225
H12   H     H_    0.805870 0.805870 0.633520 0.192391
H13   H     H_    0.190647 0.383851 0.396054 0.324223
H14   H     H_    0.616204 0.190643 0.603809 0.324249
H15   H     H_    0.384471 0.808987 0.393051 0.324303
H16   H     H_    0.191125 0.384614 0.607526 0.324308
H17   H     H_    0.809381 0.616181 0.396427 0.324246
H18   H     H_    0.383851 0.190647 0.396054 0.324223
H19   H     H_    0.615565 0.809009 0.606826 0.324225
H20   H     H_    0.808987 0.384471 0.393051 0.324303
H21   H     H_    0.190643 0.616204 0.603809 0.324249
H22   H     H_    0.616181 0.809381 0.396427 0.324246
H23   H     H_    0.194152 0.805797 0.366410 0.192468
H24   H     H_    0.384614 0.191125 0.607526 0.324308
H25   H     H_    0.191015 0.615540 0.393006 0.324279
H26   H     H_    0.809360 0.383859 0.603923 0.324255
H27   H     H_    0.883859 0.309360 0.103923 0.324255
H28   H     H_    0.115540 0.691015 0.893006 0.324279
H29   H     H_    0.309009 0.115565 0.106826 0.324225
H30   H     H_    0.690647 0.883851 0.896054 0.324223
H31   H     H_    0.116204 0.690643 0.103809 0.324249
H32   H     H_    0.884471 0.308987 0.893050 0.324303
H33   H     H_    0.691125 0.884614 0.107526 0.324308
H34   H     H_    0.806883 0.193176 0.631143 0.192142
H35   H     H_    0.309381 0.116181 0.896427 0.324246
H36   H     H_    0.883851 0.690647 0.896054 0.324223
H37   H     H_    0.115565 0.309009 0.106826 0.324225
H38   H     H_    0.308987 0.884471 0.893050 0.324303
H39   H     H_    0.690643 0.116204 0.103809 0.324249
H40   H     H_    0.116181 0.309381 0.896427 0.324246
H41   H     H_    0.884614 0.691125 0.107526 0.324308
H42   H     H_    0.691015 0.115540 0.893006 0.324279
H43   H     H_    0.309360 0.883859 0.103923 0.324255
H44   H     H_    0.808814 0.585065 0.801030 0.331888
H45   H     H_    0.806942 0.806942 0.369289 0.192068
H46   H     H_    0.190289 0.413923 0.201045 0.332179
H47   H     H_    0.586101 0.190395 0.798953 0.332220
H48   H     H_    0.414995 0.808643 0.198802 0.331856
H49   H     H_    0.191460 0.415133 0.801602 0.331779
H50   H     H_    0.809859 0.586310 0.201323 0.332184
H51   H     H_    0.413908 0.809566 0.799026 0.332167
H52   H     H_    0.584998 0.191430 0.198729 0.331853
H53   H     H_    0.808643 0.414995 0.198802 0.331856
H54   H     H_    0.190395 0.586101 0.798953 0.332220
H55   H     H_    0.586310 0.809859 0.201323 0.332184
H56   H     H_    0.194416 0.194416 0.633882 0.192508
H57   H     H_    0.415133 0.191460 0.801602 0.331779
H58   H     H_    0.191430 0.584998 0.198729 0.331853
H59   H     H_    0.809566 0.413908 0.799026 0.332167
H60   H     H_    0.413924 0.190289 0.201045 0.332179
H61   H     H_    0.585065 0.808814 0.801030 0.331888
H62   H     H_    0.308814 0.085065 0.301030 0.331888
H63   H     H_    0.690289 0.913924 0.701045 0.332179
H64   H     H_    0.086101 0.690395 0.298953 0.332220
H65   H     H_    0.914995 0.308644 0.698802 0.331856
H66   H     H_    0.691460 0.915133 0.301602 0.331779
H67   H     H_    0.805797 0.194152 0.366410 0.192468
H68   H     H_    0.309859 0.086310 0.701323 0.332184
H69   H     H_    0.913908 0.309566 0.299026 0.332167
H70   H     H_    0.084998 0.691430 0.698729 0.331853
H71   H     H_    0.308644 0.914995 0.698802 0.331856
H72   H     H_    0.690395 0.086101 0.298953 0.332220
H73   H     H_    0.086310 0.309859 0.701323 0.332184
H74   H     H_    0.915133 0.691460 0.301602 0.331779
H75   H     H_    0.691430 0.084998 0.698729 0.331853
H76   H     H_    0.309566 0.913908 0.299026 0.332167
H77   H     H_    0.913923 0.690289 0.701045 0.332179
H78   H     H_    0.193176 0.806883 0.631143 0.192142
H79   H     H_    0.085065 0.308814 0.301030 0.331888
H80   H     H_    0.693176 0.693176 0.868748 0.192142
N1    N     N_R   0.424590 0.632770 0.578330 -0.139251
N2    N     N_R   0.575410 0.632770 0.578330 -0.139436
N3    N     N_R   0.632770 0.424590 0.421670 -0.139414
N4    N     N_R   0.367230 0.575410 0.578330 -0.139274
N5    N     N_R   0.575410 0.632770 0.421670 -0.139248
N6    N     N_R   0.424590 0.367230 0.578330 -0.139440
N7    N     N_R   0.367230 0.575410 0.421670 -0.139417
N8    N     N_R   0.632770 0.424590 0.578330 -0.139251
N9    N     N_R   0.924590 0.132770 0.078330 -0.139251
N10   N     N_R   0.075410 0.867230 0.921670 -0.139417
N11   N     N_R   0.132770 0.075410 0.078330 -0.139436
N12   N     N_R   0.575410 0.367230 0.421670 -0.139417
N13   N     N_R   0.867230 0.924590 0.921670 -0.139206
N14   N     N_R   0.075410 0.867230 0.078330 -0.139274
N15   N     N_R   0.924590 0.132770 0.921670 -0.139414
N16   N     N_R   0.867230 0.924590 0.078330 -0.139440
N17   N     N_R   0.132770 0.075410 0.921670 -0.139248
N18   N     N_R   0.924590 0.867230 0.921670 -0.139206
N19   N     N_R   0.075410 0.132770 0.078330 -0.139436
N20   N     N_R   0.132770 0.924590 0.921670 -0.139414
N21   N     N_R   0.867230 0.075410 0.078330 -0.139274
N22   N     N_R   0.075410 0.132770 0.921670 -0.139248
N23   N     N_R   0.632770 0.575410 0.578330 -0.139436
N24   N     N_R   0.924590 0.867230 0.078330 -0.139440
N25   N     N_R   0.867230 0.075410 0.921670 -0.139417
N26   N     N_R   0.132770 0.924590 0.078330 -0.139251
N27   N     N_R   0.367230 0.424590 0.421670 -0.139206
N28   N     N_R   0.575410 0.367230 0.578330 -0.139274
N29   N     N_R   0.424590 0.632770 0.421670 -0.139414
N30   N     N_R   0.367230 0.424590 0.578330 -0.139440
N31   N     N_R   0.632770 0.575410 0.421670 -0.139248
N32   N     N_R   0.424590 0.367230 0.421670 -0.139206
Ni1   Ni    Ni4+2 0.500000 0.631570 0.500000 0.303973
Ni2   Ni    Ni4+2 0.500000 0.368430 0.500000 0.303938
Ni3   Ni    Ni4+2 0.631570 0.500000 0.500000 0.303973
Ni4   Ni    Ni4+2 0.368430 0.500000 0.500000 0.303938
Ni5   Ni    Ni4+2 0.000000 0.131570 0.000000 0.303973
Ni6   Ni    Ni4+2 0.000000 0.868430 0.000000 0.303938
Ni7   Ni    Ni4+2 0.131570 0.000000 0.000000 0.303973
Ni8   Ni    Ni4+2 0.868430 0.000000 0.000000 0.303938
O1    O     O_3   0.424257 0.770118 0.591960 -0.620601
O2    O     O_3   0.575262 0.769906 0.594160 -0.620135
O3    O     O_3   0.769890 0.424772 0.405738 -0.620092
O4    O     O_3   0.229876 0.575800 0.591841 -0.620691
O5    O     O_3   0.575768 0.770124 0.408278 -0.620558
O6    O     O_3   0.424881 0.230188 0.594666 -0.620205
O7    O     O_3   0.230107 0.575245 0.405719 -0.620174
O8    O     O_3   0.770118 0.424257 0.591960 -0.620601
O9    O     O_3   0.924257 0.270118 0.091960 -0.620601
O10   O     O_3   0.075245 0.730107 0.905719 -0.620174
O11   O     O_3   0.269906 0.075261 0.094160 -0.620135
O12   O     O_3   0.575244 0.230107 0.405719 -0.620174
O13   O     O_3   0.729884 0.924248 0.908040 -0.620756
O14   O     O_3   0.075800 0.729876 0.091841 -0.620691
O15   O     O_3   0.924772 0.269890 0.905738 -0.620092
O16   O     O_3   0.730188 0.924881 0.094666 -0.620205
O17   O     O_3   0.270124 0.075768 0.908278 -0.620558
O18   O     O_3   0.924248 0.729884 0.908040 -0.620756
O19   O     O_3   0.075262 0.269906 0.094160 -0.620135
O20   O     O_3   0.269890 0.924771 0.905738 -0.620092
O21   O     O_3   0.729876 0.075800 0.091841 -0.620691
O22   O     O_3   0.075768 0.270124 0.908278 -0.620558
O23   O     O_3   0.769906 0.575262 0.594160 -0.620135
O24   O     O_3   0.924881 0.730188 0.094666 -0.620205
O25   O     O_3   0.730107 0.075245 0.905719 -0.620174
O26   O     O_3   0.270118 0.924257 0.091960 -0.620601
O27   O     O_3   0.777383 0.593998 0.754637 -0.680180
O28   O     O_3   0.221549 0.405019 0.247553 -0.679323
O29   O     O_3   0.595034 0.221468 0.752336 -0.679121
O30   O     O_3   0.406035 0.777382 0.245295 -0.680222
O31   O     O_3   0.222832 0.406205 0.755174 -0.680255
O32   O     O_3   0.778674 0.595192 0.247878 -0.679323
O33   O     O_3   0.404985 0.778463 0.752419 -0.679321
O34   O     O_3   0.229884 0.424248 0.408040 -0.620756
O35   O     O_3   0.593958 0.222694 0.245226 -0.680143
O36   O     O_3   0.777382 0.406035 0.245295 -0.680222
O37   O     O_3   0.221468 0.595033 0.752336 -0.679121
O38   O     O_3   0.595192 0.778674 0.247878 -0.679323
O39   O     O_3   0.406205 0.222832 0.755174 -0.680255
O40   O     O_3   0.222694 0.593958 0.245226 -0.680143
O41   O     O_3   0.778463 0.404985 0.752419 -0.679321
O42   O     O_3   0.405019 0.221549 0.247553 -0.679323
O43   O     O_3   0.593998 0.777383 0.754637 -0.680180
O44   O     O_3   0.277383 0.093998 0.254637 -0.680180
O45   O     O_3   0.575800 0.229876 0.591841 -0.620691
O46   O     O_3   0.721549 0.905019 0.747553 -0.679323
O47   O     O_3   0.095034 0.721468 0.252336 -0.679121
O48   O     O_3   0.906035 0.277382 0.745295 -0.680222
O49   O     O_3   0.722832 0.906205 0.255174 -0.680255
O50   O     O_3   0.278674 0.095192 0.747878 -0.679323
O51   O     O_3   0.904985 0.278464 0.252419 -0.679321
O52   O     O_3   0.093958 0.722694 0.745226 -0.680143
O53   O     O_3   0.277382 0.906035 0.745295 -0.680222
O54   O     O_3   0.721468 0.095034 0.252336 -0.679121
O55   O     O_3   0.095192 0.278674 0.747878 -0.679323
O56   O     O_3   0.424772 0.769890 0.405738 -0.620092
O57   O     O_3   0.906205 0.722832 0.255174 -0.680255
O58   O     O_3   0.722694 0.093958 0.745226 -0.680143
O59   O     O_3   0.278464 0.904985 0.252419 -0.679321
O60   O     O_3   0.905019 0.721549 0.747553 -0.679323
O61   O     O_3   0.093998 0.277383 0.254637 -0.680180
O62   O     O_3   0.230188 0.424881 0.594666 -0.620205
O63   O     O_3   0.770124 0.575768 0.408278 -0.620558
O64   O     O_3   0.424248 0.229884 0.408040 -0.620756

loop_
_geom_bond_atom_site_label_1
_geom_bond_atom_site_label_2
_ccdc_geom_bond_type
N4    Ni4   S    
H24   O6    S    
C6    H67   S    
C107  C112  S    
C39   N26   A    
C25   N12   A    
C102  N32   A    
C35   C74   A    
C18   C65   A    
H16   O62   S    
C76   O28   S    
C43   C89   S    
C29   N16   A    
C77   O29   S    
C34   O21   S    
C9    H2    S    
C45   C87   S    
H69   O51   S    
C36   N23   A    
H70   O52   S    
H18   O64   S    
C94   C111  S    
C16   C84   S    
N17   Ni7   S    
H61   O43   S    
C31   C70   A    
H62   O44   S    
C1    O1    S    
C55   C100  S    
C35   O22   S    
C8    C92   S    
C15   C82   S    
C22   N9    A    
C18   O5    S    
C93   C110  S    
H39   O21   S    
C88   C95   S    
C89   O41   S    
C10   C51   S    
C81   C105  S    
H52   O35   S    
N15   N25   A    
C36   O23   S    
C96   O48   S    
C93   O44   S    
C44   C81   S    
H64   O47   S    
N2    N23   A    
H43   O26   S    
N15   Ni5   S    
C40   C110  S    
C40   C76   S    
C28   O15   S    
C1    N1    A    
H77   O60   S    
C100  O52   S    
C18   N5    A    
C92   C94   S    
C101  O53   S    
C21   C62   A    
N16   Ni8   S    
C46   C84   S    
N8    N28   A    
C27   C71   A    
C90   C93   S    
C25   O12   S    
C65   C91   A    
C19   N6    A    
C54   C105  S    
C111  H12   S    
C56   C103  S    
C34   N21   A    
C9    C90   S    
H38   O20   S    
C108  C111  S    
N3    Ni3   S    
C7    C48   S    
C89   C96   S    
N1    Ni1   S    
C109  O61   S    
C8    H80   S    
C56   C66   S    
C82   O33   S    
C69   N29   A    
C35   N22   A    
C105  O57   S    
C12   H5    S    
C69   O56   S    
C39   C71   A    
C14   C81   S    
N22   Ni5   S    
C22   O9    S    
N6    Ni2   S    
C7    C101  S    
N29   Ni1   S    
H63   O46   S    
C34   C66   A    
C48   C57   S    
C103  O54   S    
C83   C103  S    
N2    Ni1   S    
C77   C106  S    
C97   O49   S    
C16   H8    S    
C30   C74   A    
N31   Ni3   S    
H17   O63   S    
C53   C104  S    
C23   C67   A    
C86   C97   S    
C42   C112  S    
N27   N32   A    
C58   N28   A    
C63   C69   A    
C10   C89   S    
C76   C109  S    
C7    H78   S    
N27   Ni4   S    
N7    Ni4   S    
C37   N24   A    
C12   C53   S    
N1    N4    A    
N9    Ni5   S    
C4    C97   S    
H48   O30   S    
C78   O30   S    
N11   N19   A    
C44   C65   S    
C49   C108  S    
C38   C72   A    
C14   C86   S    
C32   N19   A    
C102  O64   S    
C40   C61   S    
H21   O4    S    
C15   C55   S    
H25   O7    S    
C33   O20   S    
C16   C56   S    
H59   O41   S    
C39   O26   S    
C1    C57   A    
C94   O46   S    
H49   O31   S    
C4    H45   S    
C58   O45   S    
H50   O32   S    
C37   O24   S    
N28   Ni2   S    
C90   O42   S    
N21   Ni8   S    
C75   O27   S    
H54   O37   S    
H68   O50   S    
C17   O4    S    
C41   C60   S    
N5    N31   A    
H60   O42   S    
C42   C78   S    
C13   C59   A    
C53   C98   S    
C45   C64   S    
H31   O14   S    
C15   C85   S    
H44   O27   S    
C20   C63   A    
H75   O58   S    
C108  O60   S    
N13   N18   A    
H46   O28   S    
C8    C49   S    
C29   O16   S    
C15   H7    S    
N23   Ni3   S    
H27   O9    S    
C80   N30   A    
H79   O61   S    
C41   C111  S    
H32   O15   S    
C17   N4    A    
C21   N8    A    
C56   C99   S    
C58   C62   A    
C24   N11   A    
C79   O31   S    
C53   C74   S    
H55   O38   S    
C30   N17   A    
C32   O19   S    
C95   C112  S    
C106  O58   S    
N25   Ni8   S    
C46   C59   S    
C33   N20   A    
C2    C60   A    
C12   C79   S    
C84   O36   S    
C52   C95   S    
C5    H56   S    
C85   O37   S    
C11   C52   S    
H65   O48   S    
C2    O2    S    
C52   C107  S    
H53   O36   S    
C54   C97   S    
C9    C76   S    
H11   O23   S    
H33   O16   S    
C13   O3    S    
C87   C98   S    
C75   C108  S    
C64   C80   A    
C38   N25   A    
C28   C72   A    
C3    C106  S    
H14   O45   S    
C7    C100  S    
C23   N10   A    
N20   Ni7   S    
H10   O12   S    
N3    N12   A    
C4    C44   S    
C5    C45   S    
C16   C83   S    
C78   C107  S    
C2    N2    A    
C41   C75   S    
C54   C73   S    
N30   Ni4   S    
C19   C64   A    
H47   O29   S    
H30   O13   S    
N18   Ni6   S    
C45   C79   S    
C6    C103  S    
C92   O43   S    
C11   H4    S    
N9    N21   A    
H9    O1    S    
C49   C70   S    
C26   C70   A    
H22   O5    S    
C19   O6    S    
C26   N13   A    
C51   C72   S    
C91   N31   A    
H76   O59   S    
H35   O17   S    
H72   O54   S    
N19   Ni5   S    
C84   C99   S    
H15   O56   S    
N10   N20   A    
C47   C61   A    
C98   O50   S    
N17   N22   A    
C27   N14   A    
C52   C71   S    
C109  C110  S    
N11   Ni7   S    
C31   N18   A    
C91   O63   S    
C48   C82   S    
C50   C109  S    
H20   O3    S    
C24   C68   A    
C46   C83   S    
H71   O53   S    
C13   N3    A    
C28   N15   A    
C40   C90   S    
C50   C68   S    
C42   C63   S    
N8    Ni3   S    
C43   C62   S    
C17   C57   A    
N5    Ni1   S    
H37   O19   S    
H13   O34   S    
N14   Ni6   S    
N14   N26   A    
C3    C43   S    
H29   O11   S    
N6    N30   A    
C51   C106  S    
C29   C73   A    
H66   O49   S    
C24   O11   S    
C22   C66   A    
C87   O39   S    
C88   O40   S    
C14   H6    S    
N24   Ni6   S    
H26   O8    S    
C3    C96   S    
N7    N29   A    
C49   C94   S    
C26   O13   S    
C51   C96   S    
N10   Ni6   S    
C5    C104  S    
N16   N24   A    
H51   O33   S    
C44   C86   S    
C10   C77   S    
C107  O59   S    
H19   O2    S    
C95   O47   S    
C86   O38   S    
C27   O14   S    
C47   N27   A    
C8    C75   S    
C31   O18   S    
C20   N7    A    
C11   C78   S    
C11   C88   S    
C21   O8    S    
C23   O10   S    
C110  H1    S    
H42   O25   S    
C3    H34   S    
C47   O34   S    
C80   O62   S    
C14   C54   S    
H41   O24   S    
H57   O39   S    
H58   O40   S    
C79   C104  S    
C42   C88   S    
C112  H23   S    
C38   O25   S    
C33   C67   A    
C37   C73   A    
C6    C46   S    
C12   C87   S    
C9    C50   S    
C36   C60   A    
N32   Ni2   S    
C55   C67   S    
C50   C93   S    
C43   C77   S    
C20   O7    S    
C25   C59   A    
C4    C105  S    
C55   C101  S    
H36   O18   S    
C32   C68   A    
C6    C99   S    
C83   O35   S    
C61   C102  A    
H73   O55   S    
C85   C100  S    
H40   O22   S    
C30   O17   S    
C82   C101  S    
H28   O10   S    
N26   Ni7   S    
C104  O55   S    
C41   C92   S    
C5    C98   S    
C81   O32   S    
C48   C85   S    
N13   Ni8   S    
H74   O57   S    
N12   Ni2   S    
C10   H3    S    
C99   O51   S    
