data_mof_unit_4067.cif
_audit_creation_date              2012-12-10T20:36:37-0500
_audit_creation_method            fapswitch 2.2
_symmetry_space_group_name_H-M    P1
_symmetry_Int_Tables_number       1
_space_group_crystal_system       triclinic
_cell_length_a                    10.499043
_cell_length_b                    10.69002
_cell_length_c                    9.883016
_cell_angle_alpha                 89.276252
_cell_angle_beta                  89.316769
_cell_angle_gamma                 90.325705
_cell_volume                      1109.03386224

loop_
_atom_site_label
_atom_site_type_symbol
_atom_type_description
_atom_site_fract_x
_atom_site_fract_y
_atom_site_fract_z
_atom_type_partial_charge
C1    C     C_R   0.504642 0.259800 0.500380 0.883446
C2    C     C_3   0.961697 0.480726 0.372330 -0.142272
C3    C     C_3   0.043271 0.390918 0.458179 -0.172977
C4    C     C_3   0.122218 0.503567 0.501555 0.019123
C5    C     C_R   0.543475 0.061631 0.619554 0.127407
C6    C     C_R   0.527416 0.128378 0.499123 -0.103884
C7    C     C_R   0.538995 0.066281 0.375033 -0.221552
C8    C     C_R   0.539531 0.936900 0.374073 -0.225879
C9    C     C_R   0.528666 0.871036 0.497204 -0.103008
C10   C     C_R   0.543905 0.933820 0.618431 0.128042
C11   C     C_3   0.470359 0.922621 0.748222 -0.460168
C12   C     C_R   0.257335 0.501973 0.500656 0.886156
C13   C     C_3   0.469679 0.064099 0.749557 -0.489724
C14   C     C_R   0.394220 0.463018 0.073569 0.160548
C15   C     C_R   0.599995 0.547528 0.069924 -0.132621
C16   C     C_R   0.599990 0.547578 0.926134 -0.140963
C17   C     C_R   0.393946 0.462784 0.930894 0.188568
C18   C     C_3   0.334706 0.335376 0.932002 0.181982
C19   C     C_3   0.332431 0.338032 0.085332 -0.525906
C20   C     C_R   0.505220 0.739933 0.499100 0.867481
C21   C     C_R   0.742654 0.499913 0.499179 0.862519
C22   C     C_3   0.038046 0.524146 0.626415 -0.083451
C23   C     C_3   0.956648 0.411141 0.583188 -0.111746
C24   C     C_3   0.877674 0.500868 0.497488 -0.000058
C25   C     C_3   0.956423 0.613713 0.540535 -0.225699
C26   C     C_3   0.043374 0.593501 0.415718 -0.174388
H1    H     H_    0.916780 0.336822 0.651101 0.162853
H2    H     H_    0.527755 0.880417 0.830680 0.204133
H3    H     H_    0.372755 0.103805 0.737250 0.231371
H4    H     H_    0.527366 0.102671 0.833023 0.196719
H5    H     H_    0.681757 0.584012 0.122385 0.150008
H6    H     H_    0.681697 0.584255 0.870684 0.158333
H7    H     H_    0.399710 0.264563 0.890666 0.119258
H8    H     H_    0.235568 0.343807 0.131479 0.234926
H9    H     H_    0.395203 0.266663 0.132251 0.182830
H10   H     H_    0.072348 0.544887 0.729491 0.188811
H11   H     H_    0.916047 0.704216 0.573771 0.140983
H12   H     H_    0.083523 0.667788 0.347965 0.144872
H13   H     H_    0.926449 0.462968 0.268804 0.154290
H14   H     H_    0.083513 0.300377 0.424873 0.141236
H15   H     H_    0.537653 0.116213 0.279020 0.169252
H16   H     H_    0.538139 0.889717 0.277725 0.174131
H17   H     H_    0.374048 0.880817 0.735411 0.211083
N1    N     N_R   0.499140 0.499140 0.142800 -0.104678
N2    N     N_R   0.499140 0.499180 0.857150 -0.130397
O1    O     O_R   0.500020 0.316790 0.614690 -0.611681
O2    O     O_R   0.500000 0.316760 0.385350 -0.625939
O3    O     O_R   0.313960 0.499990 0.614650 -0.587423
O4    O     O_R   0.313940 0.499950 0.385310 -0.621734
O5    O     O_R   0.500000 0.683240 0.614650 -0.620122
O6    O     O_R   0.499980 0.683210 0.385310 -0.622899
O7    O     O_R   0.686060 0.500050 0.614690 -0.629431
O8    O     O_R   0.686040 0.500010 0.385350 -0.630313
Zn1   Zn    Zn3+2 0.500010 0.500020 0.653130 0.960349
Zn2   Zn    Zn3+2 0.499990 0.499980 0.346870 0.942809
Cl1   Cl    Cl    0.179403 0.333145 0.861625 -0.674604

loop_
_geom_bond_atom_site_label_1
_geom_bond_atom_site_label_2
_ccdc_geom_bond_type
C16   N2    A    
C15   N1    A    
C4    C26   S    
C23   C24   S    
C15   H5    S    
C6    C7    A    
C23   H1    S    
C2    C3    S    
C16   H6    S    
C4    C22   S    
C9    C10   A    
C2    H13   S    
C9    C20   S    
C3    C23   S    
C14   C17   A    
C18   Cl1   S    
C12   O3    A    
O1    Zn1   S    
C7    H15   S    
C12   O4    A    
O2    Zn2   S    
O7    Zn1   S    
C7    C8    A    
C2    C26   S    
C19   H9    S    
O3    Zn1   S    
C11   C13   S    
N1    Zn2   S    
O5    Zn1   S    
C11   H2    S    
C21   O8    A    
C13   H3    S    
C8    H16   S    
N2    Zn1   S    
C17   C18   S    
C20   O6    A    
O6    Zn2   S    
O8    Zn2   S    
C2    C24   S    
C5    C6    A    
C18   H7    S    
C1    O1    A    
C4    C12   S    
C10   C11   S    
C15   C16   A    
C13   H4    S    
C5    C10   A    
C22   H10   S    
C24   C25   S    
C14   N1    A    
C18   C19   S    
C21   C24   S    
C22   C23   S    
C26   H12   S    
C20   O5    A    
C11   H17   S    
C3    H14   S    
C25   H11   S    
C25   C26   S    
O4    Zn2   S    
C5    C13   S    
C14   C19   S    
C19   H8    S    
C21   O7    A    
C1    O2    A    
C3    C4    S    
C1    C6    S    
C17   N2    A    
C8    C9    A    
C22   C25   S    
