data_mof_unit_319.cif
_audit_creation_date              2013-03-05T15:44:52-0500
_audit_creation_method            fapswitch 2.2
_symmetry_space_group_name_H-M    P1
_symmetry_Int_Tables_number       1
_space_group_crystal_system       triclinic
_cell_length_a                    15.881125
_cell_length_b                    15.417804
_cell_length_c                    9.92613
_cell_angle_alpha                 90.500482
_cell_angle_beta                  58.817494
_cell_angle_gamma                 90.107078
_cell_volume                      2079.20094547

loop_
_atom_site_label
_atom_site_type_symbol
_atom_site_description
_atom_site_fract_x
_atom_site_fract_y
_atom_site_fract_z
_atom_type_partial_charge
O1    O     O_R   0.422430 0.089640 0.419570 -0.621989
O2    O     O_R   0.577570 0.910360 0.580430 -0.623136
O3    O     O_R   0.577570 0.089640 0.580430 -0.611691
O4    O     O_R   0.422430 0.910360 0.419570 -0.612759
O5    O     O_R   0.922430 0.589640 0.419570 -0.622608
O6    O     O_R   0.077570 0.410360 0.580430 -0.622118
O7    O     O_R   0.077570 0.589640 0.580430 -0.612575
O8    O     O_R   0.922430 0.410360 0.419570 -0.611596
O9    O     O_R   0.384170 0.089650 0.673910 -0.496608
O10   O     O_R   0.615830 0.910350 0.326090 -0.496523
O11   O     O_R   0.615830 0.089650 0.326090 -0.503427
O12   O     O_R   0.384170 0.910350 0.673910 -0.503598
O13   O     O_R   0.884170 0.589650 0.673910 -0.496870
O14   O     O_R   0.115830 0.410350 0.326090 -0.496707
O15   O     O_R   0.115830 0.589650 0.326090 -0.503837
O16   O     O_R   0.884170 0.410350 0.673910 -0.503773
C1    C     C_R   0.371183 0.118156 0.563612 0.760247
C2    C     C_R   0.628737 0.881748 0.436424 0.760381
C3    C     C_R   0.629735 0.116836 0.436520 0.757881
C4    C     C_R   0.370286 0.883144 0.563482 0.758301
C5    C     C_R   0.871341 0.618294 0.563556 0.760824
C6    C     C_R   0.128822 0.381848 0.436385 0.760253
C7    C     C_R   0.129712 0.616861 0.436520 0.757798
C8    C     C_R   0.870243 0.383194 0.563494 0.758303
C9    C     C_2   0.510335 0.997271 0.915990 0.067283
C10   C     C_2   0.489593 0.001768 0.084073 0.066574
C11   C     C_2   0.010383 0.497979 0.915957 0.066366
C12   C     C_2   0.989646 0.502556 0.084031 0.067234
Cu1   Cu    Cu3+1 0.522650 0.000000 0.349410 1.123291
Cu2   Cu    Cu3+1 0.477350 0.000000 0.650590 1.123584
Cu3   Cu    Cu3+1 0.022650 0.500000 0.349410 1.123643
Cu4   Cu    Cu3+1 0.977350 0.500000 0.650590 1.123208
N1    N     N_2   0.443290 0.000000 0.876860 -0.077925
N2    N     N_2   0.556710 0.000000 0.123140 -0.078405
N3    N     N_2   0.943290 0.500000 0.876860 -0.078591
N4    N     N_2   0.056710 0.500000 0.123140 -0.078215
H1    H     H_    0.642326 0.222718 0.627944 0.213102
H2    H     H_    0.357391 0.777667 0.371804 0.212813
H3    H     H_    0.345242 0.204971 0.364526 0.212981
H4    H     H_    0.657759 0.798379 0.635488 0.212497
H5    H     H_    0.142640 0.722260 0.628270 0.212787
H6    H     H_    0.857772 0.276975 0.372409 0.212722
H7    H     H_    0.844731 0.704380 0.364431 0.212426
H8    H     H_    0.154776 0.295046 0.635472 0.212851
C13   C     C_2   0.290133 0.822373 0.604639 0.164952
C14   C     C_2   0.710001 0.177479 0.395394 0.164331
C15   C     C_2   0.703617 0.815016 0.397350 0.166363
C16   C     C_2   0.295791 0.184389 0.603017 0.166273
C17   C     C_2   0.789881 0.322668 0.604700 0.164697
C18   C     C_2   0.209847 0.677652 0.395379 0.164755
C19   C     C_2   0.204227 0.315629 0.396976 0.166209
C20   C     C_2   0.796555 0.685082 0.602818 0.166618
C21   C     C_2   0.291973 0.775656 0.488547 -0.178854
C22   C     C_2   0.707976 0.224411 0.511440 -0.178148
C23   C     C_2   0.711003 0.780484 0.514508 -0.188973
C24   C     C_2   0.290064 0.220742 0.485630 -0.188807
C25   C     C_2   0.792002 0.275514 0.488804 -0.178369
C26   C     C_2   0.208032 0.724320 0.511503 -0.179037
C27   C     C_2   0.209956 0.279278 0.514364 -0.188958
C28   C     C_2   0.790446 0.721085 0.485545 -0.188315
H9    H     H_    0.413707 0.004711 0.179929 0.165586
H10   H     H_    0.586167 0.993121 0.820217 0.165238
H11   H     H_    0.913808 0.506542 0.179819 0.166113
H12   H     H_    0.086257 0.494653 0.820131 0.165690
N5    N     N_R   0.655279 0.005205 0.003944 0.248288
O17   O     O_R   0.720267 0.959380 0.014089 -0.187694
O18   O     O_R   0.685613 0.069762 0.906342 -0.292480
N6    N     N_R   0.344676 0.997189 0.996418 0.247310
O19   O     O_R   0.281510 0.046843 0.988342 -0.188613
O20   O     O_R   0.311908 0.932090 0.092813 -0.289590
N7    N     N_R   0.155320 0.503045 0.003597 0.247473
O21   O     O_R   0.218710 0.453857 0.011979 -0.188361
O22   O     O_R   0.187802 0.568007 0.906879 -0.289797
N8    N     N_R   0.844682 0.495704 0.996174 0.248614
O23   O     O_R   0.780306 0.542674 0.986378 -0.186816
O24   O     O_R   0.813501 0.431113 0.093727 -0.291110
N9    N     N_R   0.790912 0.180954 0.234758 0.149823
O25   O     O_R   0.822846 0.109991 0.151158 -0.240831
O26   O     O_R   0.821404 0.255154 0.164605 -0.265279
N10   N     N_R   0.209558 0.818445 0.765485 0.149576
O27   O     O_R   0.177383 0.889216 0.849608 -0.240568
O28   O     O_R   0.179768 0.744062 0.835219 -0.266318
N11   N     N_R   0.228647 0.207318 0.765262 0.148568
O29   O     O_R   0.182120 0.147000 0.868498 -0.223150
O30   O     O_R   0.222339 0.287286 0.812707 -0.288339
N12   N     N_R   0.767916 0.789030 0.235783 0.147452
O31   O     O_R   0.813779 0.847319 0.127921 -0.222301
O32   O     O_R   0.772047 0.708165 0.194011 -0.290033
N13   N     N_R   0.290374 0.681671 0.234506 0.149811
O33   O     O_R   0.322551 0.610952 0.150228 -0.239586
O34   O     O_R   0.320140 0.756097 0.164931 -0.266389
N14   N     N_R   0.708740 0.319634 0.765192 0.149852
O35   O     O_R   0.676844 0.390840 0.848059 -0.240086
O36   O     O_R   0.678075 0.245646 0.836085 -0.264753
N15   N     N_R   0.730604 0.709175 0.764876 0.147632
O37   O     O_R   0.683478 0.649649 0.869561 -0.222334
O38   O     O_R   0.726566 0.789206 0.810675 -0.289407
N16   N     N_R   0.271381 0.292710 0.234726 0.148587
O39   O     O_R   0.317870 0.353038 0.131487 -0.222734
O40   O     O_R   0.277722 0.212740 0.187274 -0.288182

loop_
_geom_bond_atom_site_label_1
_geom_bond_atom_site_label_2
_geom_bond_distance
_ccdc_geom_bond_type
O6    Cu4   1.942133 S    
N3    N8    1.392773 S    
O2    C2    1.298327 A    
O13   Cu4   1.949675 S    
N15   O37   1.300352 A    
C1    C16   1.463537 S    
O14   Cu3   1.949675 S    
C2    C15   1.463946 S    
C3    C14   1.459133 S    
N9    O25   1.301246 A    
O11   C3    1.291622 A    
N8    O24   1.301172 A    
C10   H9    1.082498 S    
H5    C26   1.084871 S    
N12   O32   1.301446 A    
H8    C27   1.084887 S    
O6    C6    1.298196 A    
C17   C25   1.341072 D    
N2    N5    1.392850 S    
C20   N15   1.438383 S    
C20   C28   1.342025 D    
C10   N2    1.309792 D    
Cu3   Cu4   2.688463 S    
N6    O19   1.298469 A    
N5    O18   1.301200 A    
O3    C3    1.298604 A    
N13   O34   1.300339 A    
C4    C13   1.459038 S    
N4    N7    1.392516 S    
C19   N16   1.438349 S    
O15   C7    1.291514 A    
C13   C21   1.340997 D    
O16   C8    1.291549 A    
C23   C28   1.461926 S    
O12   C4    1.291494 A    
C16   N11   1.438332 S    
H6    C25   1.084921 S    
N14   O36   1.300276 A    
N9    O26   1.300309 A    
N8    O23   1.298490 A    
C18   C26   1.341013 D    
Cu4   N3    2.019651 S    
N10   O28   1.300334 A    
N7    O22   1.301140 A    
N12   O31   1.300489 A    
C7    C18   1.459081 S    
C11   N3    1.309744 D    
C9    C10   1.525085 S    
Cu1   N2    2.019651 S    
O3    Cu2   1.946551 S    
C15   N12   1.438641 S    
Cu1   Cu2   2.688463 S    
C18   N13   1.440825 S    
N11   O29   1.300339 A    
H4    C23   1.084793 S    
C14   C22   1.341133 D    
O1    Cu1   1.942132 S    
O13   C5    1.294718 A    
H3    C24   1.084856 S    
O11   Cu1   1.948619 S    
H7    C28   1.084895 S    
H1    C22   1.084856 S    
O9    Cu2   1.949675 S    
O9    C1    1.294968 A    
N11   O30   1.301315 A    
N5    O17   1.298498 A    
N16   O40   1.301310 A    
C19   C27   1.342191 D    
C17   N14   1.440783 S    
C15   C23   1.342340 D    
C8    C17   1.458954 S    
C16   C24   1.342178 D    
O7    Cu4   1.946551 S    
Cu2   N1    2.019651 S    
O12   Cu2   1.948621 S    
O8    Cu3   1.946552 S    
O4    Cu1   1.946552 S    
N10   O27   1.301260 A    
C14   N9    1.440823 S    
C21   C26   1.462918 S    
N15   O38   1.301391 A    
O15   Cu3   1.948619 S    
O16   Cu4   1.948621 S    
O1    C1    1.298195 A    
C24   C27   1.462317 S    
O2    Cu2   1.942133 S    
O14   C6    1.294964 A    
N7    O21   1.298522 A    
O10   Cu1   1.949675 S    
H2    C21   1.084885 S    
O10   C2    1.295059 A    
O7    C7    1.298702 A    
N14   O35   1.301256 A    
O8    C8    1.298578 A    
C13   N10   1.440814 S    
C9    H10   1.082514 S    
C11   H12   1.082509 S    
O4    C4    1.298697 A    
C12   H11   1.082500 S    
O5    C5    1.298324 A    
C12   N4    1.309635 D    
N6    O20   1.301119 A    
N16   O39   1.300369 A    
C11   C12   1.525068 S    
Cu3   N4    2.019651 S    
N13   O33   1.301256 A    
C5    C20   1.463240 S    
N1    N6    1.392465 S    
C9    N1    1.309595 D    
C6    C19   1.463531 S    
O5    Cu3   1.942132 S    
C22   C25   1.463092 S    
