data_mof_unit_1504.cif
_audit_creation_date              2012-12-11T15:39:18-0500
_audit_creation_method            fapswitch 2.2
_symmetry_space_group_name_H-M    P1
_symmetry_Int_Tables_number       1
_space_group_crystal_system       triclinic
_cell_length_a                    14.286341
_cell_length_b                    14.816912
_cell_length_c                    33.23073
_cell_angle_alpha                 98.024658
_cell_angle_beta                  90.493504
_cell_angle_gamma                 118.742293
_cell_volume                      6083.90429493

loop_
_atom_site_label
_atom_site_type_symbol
_atom_type_description
_atom_site_fract_x
_atom_site_fract_y
_atom_site_fract_z
_atom_type_partial_charge
C1    C     C_R   0.616752 0.910044 0.436946 0.548220
C2    C     C_R   0.740602 0.411018 0.185180 0.016271
C3    C     C_R   0.680353 0.922722 0.662601 -0.084495
C4    C     C_R   0.610661 0.820649 0.668743 0.015463
C5    C     C_R   0.629044 0.871179 0.589731 0.031204
C6    C     C_R   0.052461 0.781453 0.063790 0.549804
C7    C     C_R   0.743624 0.485309 0.065750 0.582248
C8    C     C_R   0.742149 0.790059 0.066419 0.577862
C9    C     C_R   0.023528 0.732894 0.948164 0.580109
C10   C     C_R   0.711193 0.435238 0.949493 0.586903
C11   C     C_R   0.709919 0.739502 0.950368 0.533549
C12   C     C_R   0.837059 0.469868 0.168805 -0.073159
C13   C     C_R   0.836399 0.488093 0.128991 -0.147331
C14   C     C_R   0.694522 0.298912 0.238049 -0.129565
C15   C     C_R   0.683940 0.284205 0.278408 -0.112572
C16   C     C_R   0.718319 0.369881 0.309670 0.017968
C17   C     C_R   0.768867 0.471914 0.300717 0.310123
C18   C     C_R   0.778829 0.487087 0.259821 0.278751
C19   C     C_R   0.739968 0.399606 0.228363 -0.008181
C20   C     C_R   0.594013 0.329618 0.365170 0.285092
C21   C     C_R   0.593700 0.205101 0.456511 0.554804
C22   C     C_R   0.565289 0.289593 0.401499 -0.093614
C23   C     C_R   0.735805 0.293412 0.410644 -0.126916
C24   C     C_R   0.765561 0.334009 0.374664 -0.132327
C25   C     C_R   0.694052 0.349111 0.351185 0.044579
C26   C     C_R   0.633881 0.267319 0.423541 -0.028256
C27   C     C_R   0.243837 0.877497 0.393389 0.021761
C28   C     C_R   0.232477 0.959071 0.380926 -0.111256
C29   C     C_R   0.208107 0.956411 0.339858 -0.083980
C30   C     C_R   0.193903 0.871954 0.310854 0.051087
C31   C     C_R   0.197818 0.787252 0.323247 -0.086989
C32   C     C_R   0.295406 0.892604 0.434373 0.542621
C33   C     C_R   0.222501 0.789811 0.364310 -0.106683
C34   C     C_R   0.195192 0.806630 0.163366 -0.103853
C35   C     C_R   0.167854 0.785725 0.121424 -0.103783
C36   C     C_R   0.092069 0.901943 0.129782 -0.090842
C37   C     C_R   0.119075 0.922373 0.171852 -0.069915
C38   C     C_R   0.166926 0.871546 0.188781 0.034831
C39   C     C_1   0.176828 0.876320 0.232136 0.018537
C40   C     C_1   0.183613 0.875397 0.268174 0.022402
C41   C     C_R   0.111442 0.829314 0.104467 0.021167
C42   C     C_R   0.636462 0.877717 0.395270 0.026371
C43   C     C_R   0.614019 0.905633 0.551787 0.575728
C44   C     C_R   0.551120 0.798153 0.368340 -0.101369
C45   C     C_R   0.561861 0.785363 0.326511 -0.092268
C46   C     C_R   0.658073 0.851191 0.311335 0.049291
C47   C     C_R   0.745859 0.925063 0.338152 -0.073102
C48   C     C_R   0.735320 0.938183 0.379943 -0.111114
C49   C     C_R   0.764774 0.935148 0.173932 0.282913
C50   C     C_R   0.782037 0.919453 0.132168 0.197150
C51   C     C_R   0.614619 0.753863 0.121546 0.194083
C52   C     C_R   0.601385 0.767850 0.162893 -0.129569
C53   C     C_R   0.678499 0.853818 0.189379 -0.058295
C54   C     C_R   0.589243 0.198356 0.571235 0.550256
C55   C     C_1   0.669984 0.852141 0.232331 0.078620
C56   C     C_1   0.664042 0.850016 0.268281 0.054398
C57   C     C_R   0.710727 0.824140 0.106178 -0.018093
C58   C     C_R   0.619396 0.242686 0.614984 0.024657
C59   C     C_R   0.550870 0.268160 0.638136 -0.119740
C60   C     C_R   0.563430 0.284203 0.680669 -0.109003
C61   C     C_R   0.644644 0.275362 0.700499 0.054780
C62   C     C_R   0.717378 0.256668 0.677880 -0.083892
C63   C     C_R   0.705209 0.240855 0.635323 -0.116584
C64   C     C_R   0.751620 0.320730 0.846346 -0.070687
C65   C     C_R   0.290119 0.887609 0.549006 0.571247
C66   C     C_R   0.764833 0.352467 0.888565 0.186156
C67   C     C_R   0.584106 0.330301 0.886299 0.175219
C68   C     C_R   0.572788 0.298229 0.844142 -0.077889
C69   C     C_R   0.658205 0.298972 0.824038 -0.038617
C70   C     C_1   0.653506 0.286864 0.780400 0.032236
C71   C     C_1   0.650163 0.281136 0.743931 0.032912
C72   C     C_R   0.684249 0.366525 0.908898 0.017349
C73   C     C_R   0.077677 0.756978 0.910924 -0.052567
C74   C     C_R   0.157805 0.858422 0.907207 0.229323
C75   C     C_R   0.201107 0.878576 0.869335 0.231844
C76   C     C_R   0.739250 0.446917 0.104607 0.017576
C77   C     C_R   0.157035 0.797426 0.835143 -0.039333
C78   C     C_R   0.080704 0.695579 0.840022 0.193389
C79   C     C_R   0.043469 0.675906 0.877857 -0.119920
C80   C     C_R   0.228906 0.776987 0.768712 -0.008911
C81   C     C_R   0.233421 0.786228 0.727603 -0.052019
C82   C     C_R   0.186849 0.839266 0.711244 0.036995
C83   C     C_R   0.138418 0.885529 0.736572 -0.094550
C84   C     C_R   0.132666 0.875086 0.777563 -0.045441
C85   C     C_R   0.176666 0.819692 0.793568 0.108753
C86   C     C_R   0.232786 0.945858 0.655958 -0.111544
C87   C     C_R   0.641944 0.379902 0.120009 0.246307
C88   C     C_R   0.254635 0.956406 0.615705 -0.157201
C89   C     C_R   0.182675 0.768718 0.598002 0.244083
C90   C     C_R   0.162023 0.759111 0.638546 -0.075910
C91   C     C_R   0.191447 0.847894 0.667880 -0.005786
C92   C     C_R   0.235720 0.869066 0.586816 0.031657
C93   C     C_R   0.656713 0.744385 0.913324 0.021521
C94   C     C_R   0.586095 0.652267 0.887010 -0.108681
C95   C     C_R   0.554141 0.656929 0.847875 -0.101713
C96   C     C_R   0.590995 0.753752 0.834891 0.026694
C97   C     C_R   0.654019 0.845868 0.862501 -0.096198
C98   C     C_R   0.643830 0.363663 0.160462 -0.069822
C99   C     C_R   0.687224 0.841207 0.901322 -0.094000
C100  C     C_R   0.552582 0.833235 0.779809 -0.078499
C101  C     C_R   0.558980 0.851552 0.739540 0.241868
C102  C     C_R   0.592583 0.796445 0.710449 0.033646
C103  C     C_R   0.612001 0.718799 0.721683 -0.148854
C104  C     C_R   0.604797 0.700493 0.761819 -0.118766
C105  C     C_R   0.578090 0.759650 0.791426 -0.015237
C106  C     C_R   0.558384 0.741851 0.634977 -0.074420
C107  C     C_R   0.567290 0.766205 0.595559 0.237140
C108  C     C_R   0.689435 0.947848 0.623458 -0.155393
Cr1   Cr    Cr6+3 0.424820 0.846020 0.489780 1.134418
Cr2   Cr    Cr6+3 0.657880 0.078580 0.505700 1.040304
Cr3   Cr    Cr6+3 0.417280 0.075360 0.504550 1.041950
Cr4   Cr    Cr6+3 0.903360 0.812540 0.006510 1.135499
Cr5   Cr    Cr6+3 0.914630 0.587050 0.006280 1.117229
Cr6   Cr    Cr6+3 0.673560 0.582680 0.008540 1.174817
H1    H     H_    0.486595 0.269794 0.411275 0.188416
H2    H     H_    0.912593 0.504631 0.187325 0.157508
H3    H     H_    0.790382 0.277412 0.427184 0.152795
H4    H     H_    0.183994 0.729637 0.102701 0.159457
H5    H     H_    0.232650 0.767262 0.176209 0.127813
H6    H     H_    0.186562 0.721329 0.300937 0.125639
H7    H     H_    0.230955 0.726002 0.372837 0.141034
H8    H     H_    0.248540 0.027848 0.402488 0.146181
H9    H     H_    0.097116 0.972951 0.191332 0.183251
H10   H     H_    0.048171 0.936161 0.117669 0.193566
H11   H     H_    0.912214 0.539014 0.117980 0.148794
H12   H     H_    0.204988 0.022219 0.330544 0.151763
H13   H     H_    0.820770 0.976088 0.326590 0.161009
H14   H     H_    0.802535 0.999908 0.399886 0.142179
H15   H     H_    0.473863 0.750591 0.379142 0.140844
H16   H     H_    0.531591 0.708904 0.174727 0.176005
H17   H     H_    0.493566 0.727807 0.305883 0.126962
H18   H     H_    0.842126 0.348281 0.363912 0.144851
H19   H     H_    0.816399 0.317331 0.830689 0.185028
H20   H     H_    0.780897 0.250321 0.693059 0.131636
H21   H     H_    0.759046 0.220938 0.618447 0.132942
H22   H     H_    0.483828 0.269772 0.623463 0.138695
H23   H     H_    0.498580 0.277184 0.826772 0.183325
H24   H     H_    0.507227 0.299419 0.698036 0.116634
H25   H     H_    0.981886 0.597832 0.880807 0.199025
H26   H     H_    0.126223 0.682602 0.647507 0.152763
H27   H     H_    0.645644 0.205511 0.285306 0.152912
H28   H     H_    0.273094 0.751977 0.708521 0.143381
H29   H     H_    0.263177 0.734179 0.780923 0.144102
H30   H     H_    0.102627 0.927058 0.724366 0.114563
H31   H     H_    0.091395 0.907569 0.796600 0.135229
H32   H     H_    0.255156 0.015113 0.678294 0.136997
H33   H     H_    0.294473 0.034385 0.608125 0.143684
H34   H     H_    0.561708 0.576619 0.895564 0.169958
H35   H     H_    0.665093 0.231425 0.214176 0.164189
H36   H     H_    0.741176 0.913257 0.921213 0.160699
H37   H     H_    0.724428 0.983863 0.688323 0.157904
H38   H     H_    0.530016 0.878067 0.802280 0.165899
H39   H     H_    0.504984 0.584978 0.827076 0.130727
H40   H     H_    0.637171 0.675290 0.699716 0.126221
H41   H     H_    0.625992 0.644121 0.770188 0.127682
H42   H     H_    0.507270 0.662002 0.639404 0.149288
H43   H     H_    0.684111 0.921422 0.853077 0.135563
H44   H     H_    0.569541 0.315989 0.173173 0.173318
H45   H     H_    0.737807 0.028884 0.620058 0.135147
O1    O     O_R   0.318160 0.824460 0.443680 -0.505582
O2    O     O_R   0.645130 0.163230 0.552140 -0.500323
O3    O     O_R   0.498360 0.178430 0.555780 -0.510878
O4    O     O_R   0.328690 0.978040 0.538950 -0.518376
O5    O     O_3   0.499990 0.999990 0.500010 -0.268882
O6    O     O_R   0.828710 0.851830 0.052170 -0.455362
O7    O     O_R   0.005980 0.823990 0.047210 -0.477287
O8    O     O_R   0.031900 0.688850 0.050170 -0.512696
O9    O     O_R   0.830940 0.518420 0.048680 -0.511794
O10   O     O_R   0.668160 0.499860 0.053480 -0.419774
O11   O     O_R   0.689170 0.693840 0.050110 -0.447936
O12   O     O_R   0.525040 0.857250 0.449830 -0.493233
O13   O     O_R   0.803860 0.812940 0.962540 -0.500095
O14   O     O_R   0.982950 0.787950 0.964120 -0.459046
O15   O     O_R   0.007050 0.649970 0.960540 -0.473204
O16   O     O_R   0.807910 0.482370 0.965590 -0.450642
O17   O     O_R   0.643310 0.460980 0.963840 -0.445891
O18   O     O_R   0.666140 0.657800 0.967020 -0.490080
O19   O     O_3   0.830520 0.660760 0.007110 -0.310269
O20   O     O_R   0.684760 0.998800 0.456360 -0.515055
O21   O     O_R   0.647540 0.166310 0.470260 -0.496572
O22   O     O_R   0.500960 0.181750 0.467450 -0.508131
O23   O     O_R   0.331100 0.981120 0.457080 -0.503813
O24   O     O_R   0.315560 0.821140 0.532010 -0.426769
O25   O     O_R   0.522630 0.854180 0.531710 -0.435837
O26   O     O_R   0.682160 0.995480 0.544690 -0.526103
S1    S     S_3+6 0.517516 0.314190 0.089986 0.077554
O27   O     O_2   0.440444 0.219466 0.107244 -0.251210
O28   O     O_2   0.471783 0.386821 0.090202 -0.193062
O29   O     O_3   0.535157 0.276823 0.041767 -0.483014
H46   H     H_    0.465128 0.250706 0.026197 0.404467
Cl1   Cl    Cl    0.894898 0.019116 0.113591 -0.447780
S2    S     S_3+6 0.853177 0.054873 0.206344 0.057736
O30   O     O_2   0.809681 0.065964 0.246654 -0.316997
O31   O     O_2   0.959107 0.058730 0.213608 -0.255874
O32   O     O_3   0.871814 0.155757 0.183321 -0.449962
H47   H     H_    0.923996 0.218842 0.202205 0.370307
Cl2   Cl    Cl    0.507567 0.644691 0.091031 -0.479805
Cl3   Cl    Cl    0.886011 0.376283 0.913503 -0.520093
Cl4   Cl    Cl    0.470267 0.326114 0.908215 -0.478318
Cl5   Cl    Cl    0.202121 0.959136 0.949995 -0.411579
S3    S     S_3+6 0.308834 0.004480 0.865210 0.070107
O33   O     O_2   0.363318 0.002564 0.826838 -0.296527
O34   O     O_2   0.265603 0.079031 0.865223 -0.200474
O35   O     O_3   0.400145 0.046400 0.905405 -0.426289
H48   H     H_    0.463575 0.108257 0.898372 0.379643
Cl6   Cl    Cl    0.021800 0.591545 0.798643 -0.608381
Cl7   Cl    Cl    0.143574 0.653259 0.562964 -0.525758
Cl8   Cl    Cl    0.523362 0.943289 0.726770 -0.621235
Cl9   Cl    Cl    0.497468 0.663105 0.554668 -0.527719
Cl10  Cl    Cl    0.816028 0.579850 0.340562 -0.469513
Cl11  Cl    Cl    0.832717 0.614879 0.248351 -0.534520
S4    S     S_3+6 0.499905 0.345977 0.336350 0.025952
O36   O     O_2   0.551756 0.454593 0.326306 -0.212910
O37   O     O_2   0.462433 0.268644 0.297401 -0.289324
O38   O     O_3   0.393717 0.326347 0.362820 -0.531141
H49   H     H_    0.344344 0.333680 0.344104 0.378746

loop_
_geom_bond_atom_site_label_1
_geom_bond_atom_site_label_2
_ccdc_geom_bond_type
C65   C92   S    
C79   H25   S    
C21   C26   S    
C6    O7    A    
Cr2   O26   S    
C101  C102  A    
C16   C25   S    
C36   C41   A    
Cr6   O10   S    
C73   C74   A    
C43   O25   A    
C95   C96   A    
C55   C56   T    
C2    C12   A    
Cr5   O9    S    
C81   C82   A    
C75   S3    S    
C108  H45   S    
C89   Cl7   S    
C77   C78   A    
C100  H38   S    
C21   O22   A    
C12   C13   A    
C100  C105  A    
C29   C30   A    
C42   C44   A    
C83   C84   A    
C106  C107  A    
C32   O23   A    
C28   C29   A    
C36   H10   S    
C37   C38   A    
C67   C72   A    
C67   Cl4   S    
C86   C91   A    
C54   C58   S    
C83   H30   S    
C86   C88   A    
C20   C25   A    
C43   O26   A    
C15   C16   A    
C59   H22   S    
Cr3   O22   S    
C34   C35   A    
S3    O33   D    
C23   C26   A    
C49   C50   A    
C34   H5    S    
C51   Cl2   S    
C15   H27   S    
C84   C85   A    
C21   O21   A    
C66   C72   A    
C88   C92   A    
C16   C17   A    
Cr6   O19   S    
C6    C41   S    
C4    C102  S    
C44   C45   A    
C23   C24   A    
C13   C76   A    
C9    O14   A    
C70   C71   T    
C51   C57   A    
C103  C104  A    
C93   C99   A    
C61   C62   A    
Cr5   O16   S    
C87   C98   A    
C13   H11   S    
C11   C93   S    
Cr6   O17   S    
Cr4   O14   S    
C5    C43   S    
C77   C85   S    
C11   O13   A    
C104  H41   S    
C37   H9    S    
C29   H12   S    
C33   H7    S    
S3    O34   D    
C68   H23   S    
C69   C70   S    
Cr3   O3    S    
C9    C73   S    
C86   H32   S    
C104  C105  A    
C97   C99   A    
Cr2   O2    S    
C8    O11   A    
C87   S1    S    
C53   C55   S    
C94   H34   S    
C38   C39   S    
C99   H36   S    
C10   O17   A    
C74   C75   A    
C67   C68   A    
S2    O32   S    
C98   H44   S    
Cr3   O4    S    
C24   C25   A    
C17   Cl10  S    
C39   C40   T    
C49   S2    S    
Cr2   O5    S    
C78   C79   A    
C18   C19   A    
C58   C59   A    
C84   H31   S    
C4    C106  A    
C1    O12   A    
Cr3   O23   S    
C27   C33   A    
C82   C91   S    
C51   C52   A    
C60   C61   A    
C95   H39   S    
C7    O9    A    
S2    O31   D    
O38   H49   S    
C78   Cl6   S    
C23   H3    S    
C80   C85   A    
C101  Cl8   S    
C8    C57   S    
C48   H14   S    
C24   H18   S    
C103  H40   S    
C47   C48   A    
S4    O38   S    
Cr2   O21   S    
C30   C31   A    
C80   H29   S    
Cr4   O7    S    
C96   C97   A    
C65   O4    A    
C62   C63   A    
C31   C33   A    
C17   C18   A    
C73   C79   A    
C30   C40   S    
C9    O15   A    
C93   C94   A    
C42   C48   A    
C64   C69   A    
S4    O36   D    
C89   C92   A    
C50   Cl1   S    
C75   C77   A    
C76   C87   A    
C64   C66   A    
C66   Cl3   S    
C27   C32   S    
C11   O18   A    
O29   H46   S    
Cr1   O25   S    
C22   H1    S    
C74   Cl5   S    
C45   H17   S    
C94   C95   A    
C106  H42   S    
C7    O10   A    
C10   C72   S    
S3    O35   S    
S1    O28   D    
C3    C4    A    
C89   C90   A    
C10   O16   A    
C52   C53   A    
C96   C105  S    
Cr4   O19   S    
C5    C107  A    
C58   C63   A    
Cr6   O11   S    
C64   H19   S    
C81   H28   S    
C2    C19   S    
C34   C38   A    
C50   C57   A    
C14   C19   A    
C68   C69   A    
Cr3   O5    S    
C20   C22   A    
C80   C81   A    
Cr1   O5    S    
Cr5   O8    S    
C90   H26   S    
C47   H13   S    
C7    C76   S    
C107  Cl9   S    
C3    C108  A    
C54   O3    A    
C3    H37   S    
C52   H16   S    
S2    O30   D    
C62   H20   S    
S1    O29   S    
C65   O24   A    
C18   Cl11  S    
C44   H15   S    
C1    O20   A    
Cr1   O24   S    
C90   C91   A    
Cr4   O13   S    
Cr2   O20   S    
C49   C53   A    
Cr4   O6    S    
C14   H35   S    
C100  C101  A    
C88   H33   S    
Cr5   O19   S    
C28   H8    S    
C20   S4    S    
C54   O2    A    
C102  C103  A    
C35   C41   A    
C31   H6    S    
C46   C47   A    
C8    O6    A    
S4    O37   D    
C61   C71   S    
O32   H47   S    
C45   C46   A    
C1    C42   S    
C59   C60   A    
O35   H48   S    
C2    C98   A    
C36   C37   A    
C82   C83   A    
C22   C26   A    
C46   C56   S    
C27   C28   A    
C14   C15   A    
C35   H4    S    
C12   H2    S    
S1    O27   D    
C6    O8    A    
Cr1   O1    S    
Cr6   O18   S    
Cr1   O12   S    
C63   H21   S    
C97   H43   S    
Cr5   O15   S    
C32   O1    A    
C5    C108  A    
C60   H24   S    
