data_mof_unit_4290.cif
_audit_creation_date              2012-12-10T18:33:38-0500
_audit_creation_method            fapswitch 2.2
_symmetry_space_group_name_H-M    P1
_symmetry_Int_Tables_number       1
_space_group_crystal_system       triclinic
_cell_length_a                    10.535087
_cell_length_b                    15.079618
_cell_length_c                    15.587889
_cell_angle_alpha                 82.368093
_cell_angle_beta                  90.19032
_cell_angle_gamma                 104.723805
_cell_volume                      2372.64025881

loop_
_atom_site_label
_atom_site_type_symbol
_atom_type_description
_atom_site_fract_x
_atom_site_fract_y
_atom_site_fract_z
_atom_type_partial_charge
C1    C     C_R   0.483156 0.441993 0.661668 0.908083
C2    C     C_R   0.520155 0.557961 0.338347 0.901264
C3    C     C_R   0.507889 0.470478 0.811994 -0.216529
C4    C     C_R   0.540515 0.528527 0.190253 -0.095747
C5    C     C_R   0.522429 0.443422 0.899507 0.045562
C6    C     C_R   0.538201 0.551391 0.101272 0.056482
C7    C     C_R   0.489404 0.347556 0.930833 0.116004
C8    C     C_R   0.564426 0.646543 0.067151 0.030411
C9    C     C_R   0.553950 0.510379 0.957037 -0.123732
C10   C     C_R   0.519413 0.482053 0.045781 -0.006221
C11   C     C_R   0.461247 0.386351 0.075029 0.432467
C12   C     C_R   0.614730 0.605784 0.928344 0.407307
C13   C     C_R   0.458411 0.320424 0.019048 -0.262300
C14   C     C_R   0.607589 0.672358 0.980584 -0.131816
C15   C     C_R   0.711401 0.850187 0.624370 -0.229643
C16   C     C_R   0.289465 0.149971 0.375021 -0.258634
C17   C     C_R   0.676282 0.759316 0.606605 0.125774
C18   C     C_R   0.324511 0.240873 0.392720 0.126271
C19   C     C_R   0.508127 0.792019 0.514725 -0.061075
C20   C     C_R   0.491286 0.207841 0.485777 -0.062193
C21   C     C_R   0.542096 0.885829 0.529977 0.005586
C22   C     C_R   0.457526 0.114070 0.470411 0.006167
C23   C     C_R   0.742478 0.501313 0.499528 0.912386
C24   C     C_R   0.257528 0.498662 0.500531 0.918623
C25   C     C_R   0.645550 0.913279 0.586540 0.116061
C26   C     C_R   0.354607 0.086730 0.413448 0.124939
C27   C     C_R   0.478866 0.953188 0.490845 0.092197
C28   C     C_R   0.520606 0.046675 0.509676 0.089941
C29   C     C_R   0.623748 0.069617 0.567081 -0.219054
C30   C     C_R   0.375869 0.930275 0.433335 -0.218916
C31   C     C_R   0.684657 0.003933 0.604700 -0.175588
C32   C     C_R   0.315385 0.996047 0.395391 -0.182551
C33   C     C_3   0.929774 0.430505 0.557835 -0.275627
C34   C     C_3   0.070234 0.569417 0.442337 -0.274367
C35   C     C_3   0.044290 0.509843 0.579022 0.040190
C36   C     C_3   0.955749 0.490077 0.421149 0.046991
C37   C     C_3   0.121876 0.497165 0.501030 -0.000490
C38   C     C_3   0.878134 0.502763 0.499128 0.001583
C39   C     C_3   0.009262 0.417693 0.478831 -0.208185
C40   C     C_3   0.990760 0.582229 0.521340 -0.209833
C41   C     C_R   0.484039 0.406935 0.753462 -0.051955
C42   C     C_R   0.536361 0.592103 0.246041 -0.073781
C43   C     C_R   0.472300 0.281996 0.871254 0.011977
C44   C     C_R   0.560722 0.713101 0.123374 0.017275
C45   C     C_R   0.469851 0.313008 0.782660 -0.295684
C46   C     C_R   0.544523 0.684208 0.212865 -0.296903
H1    H     H_    0.566986 0.234757 0.528829 0.132420
H2    H     H_    0.431782 0.764956 0.472157 0.133158
H3    H     H_    0.790827 0.872060 0.667601 0.194220
H4    H     H_    0.210626 0.128152 0.331366 0.188412
H5    H     H_    0.660777 0.138020 0.584386 0.136599
H6    H     H_    0.338875 0.861890 0.415987 0.136357
H7    H     H_    0.869106 0.374430 0.605318 0.144680
H8    H     H_    0.130880 0.625503 0.394855 0.144768
H9    H     H_    0.019468 0.350768 0.461369 0.184201
H10   H     H_    0.980630 0.649186 0.538743 0.185994
H11   H     H_    0.416537 0.248353 0.043339 0.190054
H12   H     H_    0.649473 0.744111 0.954982 0.216143
H13   H     H_    0.551853 0.461370 0.217138 0.231647
H14   H     H_    0.510003 0.541713 0.789195 0.217265
H15   H     H_    0.539321 0.733536 0.256553 0.153729
H16   H     H_    0.456333 0.263747 0.736571 0.155658
H17   H     H_    0.764063 0.024602 0.648203 0.153455
H18   H     H_    0.236289 0.975441 0.351651 0.151128
N1    N     N_R   0.574200 0.731700 0.552740 -0.145070
N2    N     N_R   0.425800 0.268300 0.447260 -0.142190
O1    O     O_R   0.462600 0.383110 0.605620 -0.625444
O2    O     O_R   0.537400 0.616890 0.394380 -0.623317
O3    O     O_R   0.510210 0.531900 0.639510 -0.631311
O4    O     O_R   0.489790 0.468100 0.360490 -0.631140
O5    O     O_R   0.662240 0.425610 0.483080 -0.591089
O6    O     O_R   0.337760 0.574390 0.516920 -0.589450
O7    O     O_R   0.709860 0.574400 0.516970 -0.667616
O8    O     O_R   0.290140 0.425600 0.483030 -0.666326
Zn1   Zn    Zn3+2 0.468210 0.400660 0.477370 0.958784
Zn2   Zn    Zn3+2 0.531790 0.599340 0.522630 0.958926
C47   C     C_2   0.090128 0.520122 0.669121 0.407068
H19   H     H_    0.023703 0.530954 0.717368 0.078188
O9    O     O_2   0.200871 0.516153 0.688898 -0.559625
C48   C     C_2   0.910091 0.479751 0.331039 0.399815
H20   H     H_    0.976688 0.469118 0.282799 0.086379
O10   O     O_2   0.799272 0.483434 0.311248 -0.578744
C49   C     C_2   0.247618 0.304180 0.351840 0.427564
H21   H     H_    0.284627 0.377848 0.343801 0.136600
O11   O     O_2   0.138666 0.273577 0.324435 -0.601505
C50   C     C_2   0.753877 0.696193 0.646663 0.447616
H22   H     H_    0.715767 0.622551 0.656443 0.113240
O12   O     O_2   0.864538 0.726931 0.671422 -0.591989
C51   C     C_2   0.458368 0.181526 0.897072 0.389452
H23   H     H_    0.410209 0.132586 0.854546 0.080500
O13   O     O_2   0.506428 0.152608 0.962924 -0.546759
C52   C     C_2   0.568798 0.811984 0.092870 0.394846
H24   H     H_    0.600050 0.863013 0.136789 0.078761
O14   O     O_2   0.534218 0.837083 0.020880 -0.544526
O15   O     O_3   0.396552 0.358834 0.155000 -0.791240
H25   H     H_    0.361352 0.290623 0.164641 0.343465
O16   O     O_3   0.689391 0.636410 0.852603 -0.763683
H26   H     H_    0.727456 0.585888 0.839201 0.337209

loop_
_geom_bond_atom_site_label_1
_geom_bond_atom_site_label_2
_ccdc_geom_bond_type
C25   C31   A    
C38   C40   S    
C26   C32   A    
C34   C37   S    
O15   H25   S    
O6    Zn2   S    
O16   H26   S    
C47   H19   S    
C43   C51   S    
N1    Zn2   S    
C34   C40   S    
C20   N2    A    
C28   C29   A    
C19   C21   A    
C16   H4    S    
C2    O2    A    
C50   O12   D    
C15   C25   A    
C13   H11   S    
C45   H16   S    
O3    Zn2   S    
C42   C46   A    
C30   H6    S    
C33   C35   S    
C39   H9    S    
C40   H10   S    
C7    C43   A    
C51   O13   D    
C9    C10   A    
C44   C52   S    
C3    H14   S    
C21   C27   A    
C22   C28   A    
C27   C30   A    
C33   H7    S    
C23   O7    A    
C44   C46   A    
C24   C37   S    
C47   O9    D    
C16   C26   A    
C14   H12   S    
O5    Zn1   S    
O8    Zn1   S    
C46   H15   S    
C17   C50   S    
C23   O5    A    
C32   H18   S    
C4    C6    A    
C36   C48   S    
C5    C7    A    
C50   H22   S    
C6    C8    A    
C35   C47   S    
C1    O3    A    
C5    C9    A    
C31   H17   S    
C49   H21   S    
C52   O14   D    
C18   C49   S    
C16   C18   A    
C33   C39   S    
C43   C45   A    
C12   O16   S    
C1    C41   S    
C49   O11   D    
C12   C14   A    
C34   H8    S    
O7    Zn2   S    
O2    Zn2   S    
O4    Zn1   S    
C24   O6    A    
C29   H5    S    
C11   O15   S    
C15   C17   A    
C21   C25   A    
C3    C41   A    
C8    C14   A    
C35   C37   S    
C19   H2    S    
C36   C39   S    
C8    C44   A    
C20   C22   A    
C48   H20   S    
C3    C5    A    
C6    C10   A    
C18   N2    A    
C23   C38   S    
C17   N1    A    
C33   C38   S    
C36   C38   S    
C35   C40   S    
C37   C39   S    
C30   C32   A    
C11   C13   A    
C24   O8    A    
C4    C42   A    
C2    C42   S    
N2    Zn1   S    
C4    H13   S    
C52   H24   S    
C1    O1    A    
C48   O10   D    
C19   N1    A    
C34   C36   S    
C15   H3    S    
C9    C12   A    
C20   H1    S    
C10   C11   A    
C7    C13   A    
O1    Zn1   S    
C29   C31   A    
C22   C26   A    
C27   C28   A    
C41   C45   A    
C51   H23   S    
C2    O4    A    
