data_mof_unit_3798.cif
_audit_creation_date              2012-12-10T17:50:32-0500
_audit_creation_method            fapswitch 2.2
_symmetry_space_group_name_H-M    P1
_symmetry_Int_Tables_number       1
_space_group_crystal_system       triclinic
_cell_length_a                    15.679866
_cell_length_b                    10.636289
_cell_length_c                    10.009454
_cell_angle_alpha                 91.346983
_cell_angle_beta                  89.899155
_cell_angle_gamma                 94.033683
_cell_volume                      1664.73724989

loop_
_atom_site_label
_atom_site_type_symbol
_atom_type_description
_atom_site_fract_x
_atom_site_fract_y
_atom_site_fract_z
_atom_type_partial_charge
C1    C     C_R   0.508543 0.261060 0.497819 0.935300
C2    C     C_3   0.084159 0.516456 0.501981 -0.095884
C3    C     C_3   0.977025 0.635030 0.527110 -0.368165
C4    C     C_3   0.917524 0.514175 0.500904 -0.063325
C5    C     C_3   0.031812 0.592864 0.407583 0.406526
C6    C     C_3   0.972273 0.474241 0.381087 0.427180
C7    C     C_1   0.174992 0.514889 0.502100 0.095354
C8    C     C_1   0.826490 0.511131 0.499777 0.041609
C9    C     C_R   0.598439 0.119322 0.706468 0.482087
C10   C     C_R   0.604878 0.059770 0.829381 0.334855
C11   C     C_R   0.548654 0.955088 0.857475 0.046020
C12   C     C_R   0.338607 0.504404 0.500432 0.868287
C13   C     C_R   0.494496 0.901027 0.758072 0.474927
C14   C     C_R   0.503217 0.944518 0.625498 -0.207384
C15   C     C_R   0.540994 0.065482 0.607653 -0.232008
C16   C     C_R   0.520401 0.127167 0.490945 -0.248674
C17   C     C_R   0.490379 0.057307 0.376838 0.442842
C18   C     C_R   0.460616 0.932884 0.391102 0.227663
C19   C     C_R   0.476589 0.872733 0.510161 -0.211343
C20   C     C_R   0.364374 0.349670 0.126036 0.402325
C21   C     C_R   0.296984 0.293203 0.041776 0.305220
C22   C     C_R   0.298797 0.313036 0.905354 0.364701
C23   C     C_R   0.490112 0.738791 0.502513 0.910157
C24   C     C_R   0.372009 0.366115 0.849891 -0.279949
C25   C     C_R   0.433885 0.436740 0.924495 -0.052207
C26   C     C_R   0.432360 0.432950 0.068484 0.016823
C27   C     C_R   0.567435 0.549803 0.072640 -0.129868
C28   C     C_R   0.569335 0.545527 0.929589 0.636207
C29   C     C_R   0.661797 0.502243 0.499921 0.878853
C30   C     C_3   0.968470 0.436420 0.598351 -0.407750
C31   C     C_3   0.023314 0.398493 0.477442 0.380338
C32   C     C_1   0.250090 0.510823 0.501482 -0.167336
C33   C     C_1   0.750956 0.507241 0.499619 -0.160631
C34   C     C_3   0.029288 0.555877 0.620408 0.533202
H1    H     H_    0.623502 0.586456 0.127437 0.155458
H2    H     H_    0.381027 0.342126 0.747649 0.245628
H3    H     H_    0.939802 0.373957 0.676230 0.159609
H4    H     H_    0.955237 0.730349 0.549390 0.153866
N1    N     N_R   0.499210 0.498800 0.142780 -0.094682
N2    N     N_R   0.499180 0.498720 0.857170 -0.105839
O1    O     O_R   0.500000 0.316780 0.614690 -0.616975
O2    O     O_R   0.499990 0.316750 0.385360 -0.540078
O3    O     O_R   0.376780 0.500000 0.614650 -0.634147
O4    O     O_R   0.376770 0.499980 0.385310 -0.559010
O5    O     O_R   0.500010 0.683250 0.614640 -0.579899
O6    O     O_R   0.500000 0.683220 0.385310 -0.571125
O7    O     O_R   0.623230 0.500020 0.614690 -0.521786
O8    O     O_R   0.623220 0.500000 0.385350 -0.646761
Zn1   Zn    Zn3+2 0.500010 0.500020 0.653130 1.033266
Zn2   Zn    Zn3+2 0.499990 0.499980 0.346870 1.026981
O9    O     O_3   0.054920 0.279438 0.451025 -0.603574
C35   C     C_3   0.986906 0.185767 0.455028 -0.304949
H5    H     H_    0.933759 0.206398 0.387177 0.185082
H6    H     H_    0.962954 0.173690 0.558839 0.153857
H7    H     H_    0.010929 0.094781 0.420874 0.187887
Br1   Br    Br    0.547815 0.877485 0.027380 -0.503961
O10   O     O_3   0.433003 0.807714 0.793804 -0.540826
C36   C     C_3   0.351120 0.852942 0.780042 -0.172736
H8    H     H_    0.333677 0.860202 0.673088 0.152898
H9    H     H_    0.346462 0.945372 0.833255 0.141670
H10   H     H_    0.303580 0.784600 0.825650 0.194178
Br2   Br    Br    0.385836 0.852851 0.256792 -0.434577
O11   O     O_3   0.377239 0.304151 0.252197 -0.538585
C37   C     C_3   0.304946 0.253830 0.323018 -0.047643
H11   H     H_    0.292490 0.152028 0.299436 0.192302
H12   H     H_    0.247991 0.308995 0.309824 0.172262
H13   H     H_    0.320316 0.257379 0.431117 0.112082
O12   O     O_3   0.231126 0.212764 0.089957 -0.629842
C38   C     C_3   0.245680 0.086447 0.053982 -0.237824
H14   H     H_    0.313889 0.065368 0.065966 0.201281
H15   H     H_    0.223996 0.063115 0.950365 0.204363
H16   H     H_    0.207123 0.022997 0.120809 0.188979
O13   O     O_3   0.235758 0.258570 0.821914 -0.611823
C39   C     C_3   0.168278 0.339274 0.819073 -0.195174
H17   H     H_    0.190892 0.435038 0.785691 0.190754
H18   H     H_    0.136531 0.345590 0.918293 0.172473
H19   H     H_    0.119669 0.300035 0.746151 0.198257
O14   O     O_3   0.647437 0.558286 0.865324 -0.575282
C40   C     C_3   0.678799 0.685164 0.865941 -0.304936
H20   H     H_    0.635308 0.742722 0.809934 0.186119
H21   H     H_    0.741083 0.691499 0.812897 0.172314
H22   H     H_    0.690856 0.722705 0.969163 0.165065
O15   O     O_3   0.934114 0.432093 0.258898 -0.615114
C41   C     C_3   0.998065 0.402860 0.166415 -0.302416
H23   H     H_    0.036909 0.327147 0.202494 0.215669
H24   H     H_    0.040021 0.487574 0.141700 0.196612
H25   H     H_    0.966642 0.367482 0.072325 0.176274
O16   O     O_3   0.072187 0.670793 0.310665 -0.584473
C42   C     C_3   0.011615 0.745305 0.253778 -0.304156
H26   H     H_    0.990559 0.816479 0.327555 0.158866
H27   H     H_    0.955550 0.686945 0.212857 0.181102
H28   H     H_    0.042251 0.797182 0.169471 0.182673
O17   O     O_3   0.066951 0.599403 0.742327 -0.611967
C43   C     C_3   0.002307 0.617274 0.837330 -0.312355
H29   H     H_    0.967933 0.526045 0.862968 0.166501
H30   H     H_    0.956538 0.684817 0.802457 0.163813
H31   H     H_    0.032546 0.657753 0.930317 0.189193
O18   O     O_3   0.485418 0.110435 0.252535 -0.554520
C44   C     C_3   0.569188 0.141805 0.205040 -0.074540
H32   H     H_    0.609036 0.059559 0.204081 0.172516
H33   H     H_    0.604337 0.217756 0.264526 0.120220
H34   H     H_    0.563692 0.177155 0.102596 0.226109
O19   O     O_3   0.652495 0.225206 0.682917 -0.533080
C45   C     C_3   0.714278 0.195565 0.586118 -0.312356
H35   H     H_    0.691182 0.215085 0.484496 0.144848
H36   H     H_    0.732721 0.096276 0.589292 0.115458
H37   H     H_    0.773258 0.257124 0.604992 0.192388
O20   O     O_3   0.660698 0.111646 0.925584 -0.572662
C46   C     C_3   0.737969 0.051896 0.916382 -0.280110
H38   H     H_    0.770202 0.069642 0.819062 0.156166
H39   H     H_    0.727992 0.948948 0.932413 0.150906
H40   H     H_    0.781625 0.091847 0.996069 0.187889

loop_
_geom_bond_atom_site_label_1
_geom_bond_atom_site_label_2
_ccdc_geom_bond_type
O17   C43   S    
C23   O5    A    
O13   C39   S    
C10   O20   S    
C2    C7    S    
C34   O17   S    
C4    C8    S    
C45   H36   S    
O7    Zn1   S    
C24   H2    S    
C39   H18   S    
C29   O7    A    
C41   H24   S    
C12   O3    A    
C46   H39   S    
C25   N2    A    
C30   C31   S    
C26   N1    A    
C13   O10   S    
C28   N2    A    
C36   H9    S    
N2    Zn1   S    
C29   C33   S    
O20   C46   S    
C18   C19   A    
C38   H15   S    
C5    O16   S    
O15   C41   S    
C3    H4    S    
C27   N1    A    
O12   C38   S    
C39   H19   S    
C41   H25   S    
C7    C32   T    
C42   H27   S    
C28   O14   S    
C17   O18   S    
C35   H7    S    
O16   C42   S    
C2    C34   S    
C36   H10   S    
O8    Zn2   S    
C6    C31   S    
C23   O6    A    
C21   C22   A    
C12   C32   S    
C38   H14   S    
O1    Zn1   S    
C45   H35   S    
C35   H6    S    
C39   H17   S    
C30   C34   S    
C29   O8    A    
O9    C35   S    
C37   H13   S    
C24   C25   A    
C4    C6    S    
C46   H40   S    
C40   H21   S    
O14   C40   S    
C18   Br2   S    
C3    C34   S    
C27   H1    S    
C36   H8    S    
O11   C37   S    
C30   H3    S    
C2    C31   S    
C37   H12   S    
C38   H16   S    
C19   C23   S    
C44   H32   S    
O5    Zn1   S    
C9    O19   S    
C44   H34   S    
C17   C18   A    
C1    C16   S    
C41   H23   S    
C42   H28   S    
C43   H30   S    
O2    Zn2   S    
C1    O1    A    
C44   H33   S    
C21   O12   S    
C22   C24   A    
C2    C5    S    
C3    C4    S    
O19   C45   S    
C35   H5    S    
C9    C10   A    
O4    Zn2   S    
C6    O15   S    
C14   C19   A    
O3    Zn1   S    
C31   O9    S    
C3    C5    S    
C40   H22   S    
O6    Zn2   S    
C43   H31   S    
C37   H11   S    
C20   O11   S    
C25   C26   A    
C12   O4    A    
C46   H38   S    
C11   C13   A    
O10   C36   S    
C5    C6    S    
C20   C26   A    
C8    C33   T    
C9    C15   A    
C43   H29   S    
C10   C11   A    
C40   H20   S    
C1    O2    A    
N1    Zn2   S    
C20   C21   A    
O18   C44   S    
C27   C28   A    
C14   C15   A    
C22   O13   S    
C42   H26   S    
C13   C14   A    
C45   H37   S    
C4    C30   S    
C11   Br1   S    
C15   C16   A    
C16   C17   A    
