data_mof_unit_3503.cif
_audit_creation_date              2012-12-10T19:05:21-0500
_audit_creation_method            fapswitch 2.2
_symmetry_space_group_name_H-M    P1
_symmetry_Int_Tables_number       1
_space_group_crystal_system       triclinic
_cell_length_a                    9.560522
_cell_length_b                    10.827995
_cell_length_c                    17.24254
_cell_angle_alpha                 90.789043
_cell_angle_beta                  86.027547
_cell_angle_gamma                 90.391927
_cell_volume                      1780.48159555

loop_
_atom_site_label
_atom_site_type_symbol
_atom_type_description
_atom_site_fract_x
_atom_site_fract_y
_atom_site_fract_z
_atom_type_partial_charge
C1    C     C_R   0.500092 0.737498 0.502157 0.793262
C2    C     C_R   0.352639 0.482525 0.778618 -0.257014
C3    C     C_R   0.445766 0.610870 0.152025 -0.173059
C4    C     C_R   0.435785 0.595546 0.232062 -0.180589
C5    C     C_R   0.638448 0.461149 0.220844 -0.210644
C6    C     C_R   0.648374 0.476235 0.140666 -0.159139
C7    C     C_R   0.550167 0.548677 0.105699 0.190841
C8    C     C_2   0.442165 0.565880 0.981212 -0.222328
C9    C     C_2   0.557448 0.555386 0.020696 -0.231485
C10   C     C_R   0.530321 0.518807 0.266498 -0.025859
C11   C     C_R   0.375559 0.934686 0.499534 0.066838
C12   C     C_R   0.481883 0.505460 0.649970 0.807590
C13   C     C_R   0.498691 0.870567 0.509821 -0.071920
C14   C     C_R   0.618865 0.936862 0.528646 -0.212603
C15   C     C_R   0.618743 0.065801 0.527500 -0.217213
C16   C     C_R   0.498900 0.128980 0.506845 -0.064849
C17   C     C_R   0.376474 0.061759 0.496379 0.110269
C18   C     C_3   0.282611 0.060693 0.430246 -0.068869
C19   C     C_3   0.278307 0.920862 0.435904 -0.426180
C20   C     C_R   0.929094 0.404995 0.466124 0.185435
C21   C     C_R   0.921282 0.586653 0.540632 -0.056758
C22   C     C_R   0.070040 0.586323 0.540937 -0.068261
C23   C     C_R   0.499749 0.262296 0.500775 0.786767
C24   C     C_R   0.076325 0.406438 0.464055 0.179799
C25   C     C_3   0.085004 0.366705 0.379601 0.269321
C26   C     C_3   0.925373 0.362931 0.384359 -0.566454
C27   C     C_R   0.518559 0.503260 0.350267 0.781774
C28   C     C_R   0.472224 0.523943 0.734455 -0.026898
C29   C     C_R   0.578902 0.587898 0.771410 0.143835
C30   C     C_R   0.566816 0.604557 0.851884 -0.204746
C31   C     C_R   0.450251 0.557819 0.896069 0.166537
C32   C     C_R   0.341691 0.499599 0.858977 -0.171831
Cu1   Cu    Cu3+1 0.359330 0.500020 0.500000 0.962159
Cu2   Cu    Cu3+1 0.640670 0.499980 0.500000 0.955657
H1    H     H_    0.730380 0.428729 0.105711 0.118680
H2    H     H_    0.714072 0.889552 0.541080 0.154514
H3    H     H_    0.713701 0.115328 0.539756 0.158495
H4    H     H_    0.179754 0.105850 0.444348 0.123759
H5    H     H_    0.174029 0.884668 0.457738 0.167476
H6    H     H_    0.326655 0.870883 0.384032 0.205740
H7    H     H_    0.862280 0.658356 0.572232 0.142291
H8    H     H_    0.122220 0.657520 0.572987 0.132448
H9    H     H_    0.354590 0.643845 0.267161 0.160261
H10   H     H_    0.134634 0.275183 0.371015 0.058364
H11   H     H_    0.877141 0.432901 0.348376 0.227768
H12   H     H_    0.881724 0.267949 0.379628 0.158147
H13   H     H_    0.712939 0.402419 0.246907 0.132031
H14   H     H_    0.658577 0.538879 0.989679 0.145069
H15   H     H_    0.250301 0.464324 0.892450 0.130921
H16   H     H_    0.371780 0.670880 0.126629 0.125671
H17   H     H_    0.268668 0.435105 0.751102 0.158249
H18   H     H_    0.338937 0.568327 0.011696 0.137360
H19   H     H_    0.648643 0.654719 0.879555 0.128522
N1    N     N_R   0.852130 0.499070 0.499500 -0.168809
N2    N     N_R   0.148040 0.499110 0.499500 -0.166591
O1    O     O_R   0.381190 0.680360 0.500000 -0.585486
O2    O     O_R   0.618770 0.680320 0.499990 -0.585364
O3    O     O_R   0.367430 0.500040 0.613600 -0.599012
O4    O     O_R   0.605020 0.500000 0.613590 -0.550206
O5    O     O_R   0.381230 0.319680 0.500010 -0.597098
O6    O     O_R   0.618810 0.319640 0.500000 -0.582239
O7    O     O_R   0.394980 0.500000 0.386410 -0.532530
O8    O     O_R   0.632570 0.499960 0.386400 -0.586078
N3    N     N_3   0.697677 0.639105 0.727453 -0.592216
H20   H     H_    0.788449 0.601496 0.747827 0.211885
H21   H     H_    0.699722 0.734376 0.738111 0.204396
N4    N     N_3   0.355960 0.100645 0.357602 -0.572300
H22   H     H_    0.365544 0.196782 0.359507 0.216294
H23   H     H_    0.292053 0.078803 0.312546 0.214349
O9    O     O_3   0.142481 0.459556 0.329671 -0.561739
C33   C     C_3   0.127174 0.428154 0.250365 0.080515
H24   H     H_    0.152315 0.512383 0.216024 0.163383
H25   H     H_    0.017359 0.403545 0.238907 0.119524
C34   C     C_3   0.225871 0.323889 0.220393 -0.372059
H26   H     H_    0.332076 0.339122 0.240878 0.238395
H27   H     H_    0.184960 0.234217 0.242777 0.188486
C35   C     C_3   0.235832 0.315341 0.131787 -0.898701
H28   H     H_    0.277986 0.402630 0.106446 0.260044
H29   H     H_    0.130745 0.296625 0.110332 0.244714
H30   H     H_    0.307275 0.238982 0.112143 0.259293

loop_
_geom_bond_atom_site_label_1
_geom_bond_atom_site_label_2
_ccdc_geom_bond_type
C10   C27   S    
Cu1   N2    S    
Cu1   O3    S    
C35   H28   S    
C24   N2    A    
C5    H13   S    
C11   C19   S    
C34   H27   S    
C12   C28   S    
C5    C6    A    
C19   H5    S    
C28   C29   A    
C1    O1    A    
C3    C7    A    
C14   H2    S    
C30   C31   A    
C15   C16   A    
C6    H1    S    
C2    C32   A    
C18   C19   S    
C15   H3    S    
C26   H11   S    
C12   O4    A    
C20   C24   A    
Cu1   O7    S    
C34   C35   S    
Cu2   O2    S    
O9    C33   S    
C8    H18   S    
C12   O3    A    
Cu1   O1    S    
C29   N3    S    
C21   C22   A    
C25   H10   S    
C25   C26   S    
C3    H16   S    
Cu1   Cu2   S    
C35   H29   S    
C23   O5    A    
C30   H19   S    
C34   H26   S    
N4    H22   S    
C24   C25   S    
C20   N1    A    
C2    H17   S    
C33   H25   S    
C16   C17   A    
C18   N4    S    
Cu2   O6    S    
N4    H23   S    
N3    H21   S    
C29   C30   A    
C27   O7    A    
C1    O2    A    
C31   C32   A    
C23   O6    A    
C17   C18   S    
C8    C9    D    
C22   N2    A    
C27   O8    A    
C21   H7    S    
Cu2   N1    S    
C16   C23   S    
Cu2   O4    S    
C1    C13   S    
C4    C10   A    
C3    C4    A    
C35   H30   S    
C7    C9    S    
C11   C17   A    
C8    C31   S    
C33   C34   S    
C6    C7    A    
C4    H9    S    
Cu1   O5    S    
C21   N1    A    
N3    H20   S    
C18   H4    S    
C5    C10   A    
C11   C13   A    
C22   H8    S    
C20   C26   S    
Cu2   O8    S    
C32   H15   S    
C19   H6    S    
C26   H12   S    
C33   H24   S    
C9    H14   S    
C14   C15   A    
C2    C28   A    
C25   O9    S    
C13   C14   A    
