data_mof_unit_3302.cif
_audit_creation_date              2012-12-10T18:06:50-0500
_audit_creation_method            fapswitch 2.2
_symmetry_space_group_name_H-M    P1
_symmetry_Int_Tables_number       1
_space_group_crystal_system       triclinic
_cell_length_a                    12.64461
_cell_length_b                    13.112164
_cell_length_c                    15.3861
_cell_angle_alpha                 83.729855
_cell_angle_beta                  100.21269
_cell_angle_gamma                 95.809531
_cell_volume                      2486.80070533

loop_
_atom_site_label
_atom_site_type_symbol
_atom_type_description
_atom_site_fract_x
_atom_site_fract_y
_atom_site_fract_z
_atom_type_partial_charge
C1    C     C_R   0.451629 0.309011 0.523223 0.873828
C2    C     C_R   0.656011 0.427702 0.943304 -0.007945
C3    C     C_R   0.582449 0.502801 0.906549 -0.019801
C4    C     C_R   0.435473 0.516100 0.336089 0.908320
C5    C     C_R   0.711250 0.382367 0.886638 0.483086
C6    C     C_R   0.684646 0.404962 0.794389 -0.360631
C7    C     C_R   0.556432 0.520757 0.814557 -0.231538
C8    C     C_R   0.731898 0.938709 0.498285 -0.224136
C9    C     C_R   0.588239 0.801987 0.485391 -0.158195
C10   C     C_R   0.340502 0.161277 0.592184 0.518204
C11   C     C_R   0.324815 0.054181 0.615135 -0.318623
C12   C     C_R   0.462385 0.545648 0.101380 -0.089389
C13   C     C_R   0.394139 0.988100 0.594751 -0.209046
C14   C     C_R   0.487241 0.027535 0.560269 0.095769
C15   C     C_R   0.517801 0.132959 0.561217 0.015624
C16   C     C_R   0.554510 0.692069 0.487986 0.856279
C17   C     C_R   0.554531 0.964980 0.529719 -0.021931
C18   C     C_R   0.662952 0.001534 0.525222 0.117716
C19   C     C_R   0.700303 0.100307 0.547895 -0.239464
C20   C     C_R   0.628471 0.165905 0.565089 -0.153921
C21   C     C_R   0.514815 0.870303 0.497620 0.421175
C22   C     C_R   0.695199 0.838489 0.479970 -0.284159
C23   C     C_R   0.408766 0.636190 0.070251 0.062074
C24   C     C_R   0.436598 0.200330 0.560172 -0.225427
C25   C     C_R   0.140284 0.647446 0.619217 0.486044
C26   C     C_R   0.756741 0.377629 0.397296 0.031911
C27   C     C_R   0.851536 0.343365 0.382994 -0.308908
C28   C     C_R   0.564995 0.484910 0.664110 0.852280
C29   C     C_R   0.949019 0.385169 0.426924 -0.146865
C30   C     C_R   0.952372 0.463399 0.484010 0.055130
C31   C     C_R   0.853831 0.489974 0.501341 0.179156
C32   C     C_R   0.048813 0.516839 0.523367 -0.251321
C33   C     C_R   0.045754 0.585082 0.588547 -0.118347
C34   C     C_R   0.532886 0.511563 0.050791 -0.001540
C35   C     C_R   0.948999 0.594451 0.618454 0.459807
C36   C     C_R   0.852781 0.555884 0.567162 -0.386129
C37   C     C_R   0.147957 0.512992 0.495089 0.584469
C38   C     C_R   0.238170 0.619804 0.604541 -0.205453
C39   C     C_R   0.402960 0.544798 0.242081 -0.134031
C40   C     C_R   0.604613 0.470979 0.759038 -0.090641
C41   C     C_R   0.352531 0.679212 0.126441 -0.129802
C42   C     C_R   0.354736 0.636638 0.213426 -0.375520
C43   C     C_R   0.443272 0.492599 0.182781 0.461615
C44   C     C_3   0.370906 0.848769 0.384651 0.107803
C45   C     C_R   0.528884 0.551661 0.961815 0.047995
C46   C     C_3   0.354943 0.959045 0.343456 -0.383008
C47   C     C_3   0.308489 0.960559 0.244769 -0.961498
C48   C     C_3   0.162276 0.193411 0.602478 0.115182
C49   C     C_3   0.112609 0.160189 0.510227 -0.384334
C50   C     C_3   0.991782 0.133263 0.504440 -1.020666
C51   C     C_3   0.860737 0.644494 0.730843 0.095937
C52   C     C_3   0.807663 0.744551 0.698842 -0.369814
C53   C     C_3   0.698233 0.744583 0.727370 -0.929597
C54   C     C_3   0.081461 0.811119 0.585622 0.124567
C55   C     C_3   0.132801 0.836551 0.500907 -0.414853
C56   C     C_R   0.472915 0.640291 0.931032 -0.312347
C57   C     C_3   0.052267 0.879800 0.423164 -0.988836
C58   C     C_3   0.151319 0.566822 0.348971 0.110554
C59   C     C_3   0.037614 0.600382 0.313374 -0.416790
C60   C     C_3   0.039857 0.685667 0.237654 -0.937912
C61   C     C_3   0.676810 0.228872 0.090964 0.148283
C62   C     C_3   0.695119 0.194876 0.190439 -0.382653
C63   C     C_3   0.631824 0.092319 0.211428 -0.946059
C64   C     C_3   0.392834 0.322812 0.161228 0.078333
C65   C     C_3   0.294431 0.293588 0.207347 -0.385441
C66   C     C_3   0.326224 0.247670 0.302888 -0.759712
C67   C     C_R   0.414953 0.683925 0.985085 0.448495
C68   C     C_R   0.610874 0.442489 0.087770 -0.299324
C69   C     C_R   0.669674 0.398406 0.035248 0.465865
H1    H     H_    0.751690 0.788497 0.465410 0.179592
H2    H     H_    0.019920 0.352798 0.416715 0.212442
H3    H     H_    0.849861 0.283669 0.339483 0.163234
H4    H     H_    0.778091 0.578526 0.577702 0.223701
H5    H     H_    0.723102 0.367771 0.750187 0.153684
H6    H     H_    0.313383 0.749681 0.105585 0.203884
H7    H     H_    0.323304 0.677893 0.259066 0.156639
H8    H     H_    0.478308 0.680555 0.866732 0.139343
H9    H     H_    0.630044 0.423337 0.158415 0.214214
H10   H     H_    0.374955 0.795760 0.894318 0.340579
H11   H     H_    0.818716 0.291208 0.872943 0.323422
H12   H     H_    0.783958 0.127983 0.549848 0.155840
H13   H     H_    0.292268 0.802462 0.372412 0.151366
H14   H     H_    0.426787 0.813025 0.350744 0.120221
H15   H     H_    0.299214 0.993886 0.377875 0.234280
H16   H     H_    0.433675 0.006001 0.351477 0.218095
H17   H     H_    0.363916 0.927148 0.209140 0.272200
H18   H     H_    0.298098 0.041004 0.216043 0.269871
H19   H     H_    0.228611 0.915734 0.234879 0.262719
H20   H     H_    0.118079 0.257993 0.614930 0.173239
H21   H     H_    0.150050 0.132194 0.656410 0.123387
H22   H     H_    0.128365 0.223368 0.458879 0.237544
H23   H     H_    0.814819 0.965502 0.494411 0.154795
H24   H     H_    0.149334 0.091780 0.496148 0.220273
H25   H     H_    0.976897 0.063930 0.550335 0.256944
H26   H     H_    0.954956 0.117773 0.435613 0.271547
H27   H     H_    0.953215 0.197823 0.523402 0.276672
H28   H     H_    0.884301 0.642081 0.804057 0.178293
H29   H     H_    0.805076 0.574542 0.719720 0.142522
H30   H     H_    0.861725 0.810296 0.725387 0.232670
H31   H     H_    0.797587 0.755463 0.625870 0.224853
H32   H     H_    0.639524 0.687746 0.692598 0.252960
H33   H     H_    0.667654 0.821849 0.709140 0.267102
H34   H     H_    0.377499 0.906332 0.610969 0.206364
H35   H     H_    0.704977 0.726095 0.800237 0.269054
H36   H     H_    0.080425 0.884404 0.615373 0.145984
H37   H     H_    0.995353 0.783065 0.568023 0.155262
H38   H     H_    0.202910 0.893765 0.513772 0.247921
H39   H     H_    0.161425 0.767563 0.479810 0.226414
H40   H     H_    0.986246 0.819860 0.403699 0.270692
H41   H     H_    0.093585 0.904615 0.365498 0.276129
H42   H     H_    0.016990 0.946717 0.441267 0.278438
H43   H     H_    0.182489 0.542814 0.292025 0.188567
H44   H     H_    0.205565 0.633647 0.373653 0.125529
H45   H     H_    0.257734 0.019751 0.645821 0.157070
H46   H     H_    0.983781 0.533708 0.288601 0.254750
H47   H     H_    0.004338 0.630497 0.366603 0.223710
H48   H     H_    0.092710 0.753659 0.260929 0.257000
H49   H     H_    0.957075 0.709409 0.213625 0.275621
H50   H     H_    0.070180 0.658023 0.181653 0.274411
H51   H     H_    0.706057 0.170360 0.055925 0.184620
H52   H     H_    0.588214 0.229745 0.065946 0.097822
H53   H     H_    0.782422 0.186740 0.213873 0.229643
H54   H     H_    0.669451 0.254187 0.226703 0.225856
H55   H     H_    0.543935 0.098732 0.190086 0.262394
H56   H     H_    0.661745 0.240750 0.584778 0.177370
H57   H     H_    0.647335 0.070371 0.284079 0.272656
H58   H     H_    0.657297 0.030919 0.177243 0.269513
H59   H     H_    0.432678 0.251828 0.158586 0.157984
H60   H     H_    0.365814 0.352179 0.090788 0.105205
H61   H     H_    0.249749 0.362493 0.206721 0.215648
H62   H     H_    0.239437 0.236005 0.169737 0.185729
H63   H     H_    0.378450 0.183921 0.305870 0.244505
H64   H     H_    0.252798 0.217676 0.330875 0.226487
H65   H     H_    0.370588 0.307489 0.343983 0.273550
H66   H     H_    0.312918 0.660705 0.632672 0.184734
H67   H     H_    0.493210 0.569031 0.784137 0.167222
H68   H     H_    0.679906 0.344851 0.364730 0.162095
N1    N     N_R   0.239390 0.551900 0.544730 -0.164928
N2    N     N_R   0.759950 0.448600 0.455730 -0.122063
O1    O     O_R   0.374950 0.371210 0.521360 -0.524454
O2    O     O_3   0.788753 0.315238 0.921755 -0.734591
O3    O     O_3   0.404319 0.845645 0.477734 -0.662239
O4    O     O_3   0.271700 0.231542 0.607816 -0.626991
O5    O     O_3   0.956227 0.646081 0.694774 -0.612750
O6    O     O_3   0.138901 0.742263 0.651350 -0.600165
O7    O     O_3   0.152971 0.480665 0.413548 -0.648872
O8    O     O_3   0.737818 0.324002 0.074710 -0.588009
O9    O     O_3   0.469017 0.392194 0.208656 -0.648284
O10   O     O_R   0.542050 0.338030 0.492790 -0.632600
O11   O     O_R   0.368720 0.526070 0.390200 -0.613940
O12   O     O_R   0.535820 0.492890 0.361630 -0.580263
O13   O     O_R   0.457950 0.661970 0.507210 -0.580422
O14   O     O_R   0.625050 0.628790 0.478640 -0.637498
O15   O     O_R   0.464180 0.507110 0.638370 -0.604697
O16   O     O_R   0.631280 0.473930 0.609800 -0.648456
O17   O     O_3   0.363385 0.772536 0.955704 -0.778282
Zn1   Zn    Zn3+2 0.388420 0.522150 0.519080 0.985272
Zn2   Zn    Zn3+2 0.611580 0.477850 0.480920 0.920261

loop_
_geom_bond_atom_site_label_1
_geom_bond_atom_site_label_2
_ccdc_geom_bond_type
C51   H28   S    
O11   Zn1   S    
C27   C29   A    
C41   C42   A    
C35   C36   A    
C26   H68   S    
C50   H27   S    
C63   H55   S    
C51   O5    S    
C12   C23   A    
C26   C27   A    
C29   C30   A    
C58   H43   S    
C5    C6    A    
C9    C16   S    
C21   O3    S    
C12   C43   A    
C3    C7    A    
C30   C31   A    
O1    Zn1   S    
C9    C22   A    
C28   C40   S    
C53   H35   S    
C60   H50   S    
C61   H52   S    
C18   C19   A    
C46   C47   S    
C23   C67   A    
O14   Zn2   S    
C11   H45   S    
C43   O9    S    
H10   O17   S    
C66   H65   S    
C57   H40   S    
C19   C20   A    
N2    Zn2   S    
C53   H32   S    
C59   H47   S    
C64   H59   S    
C58   H44   S    
C8    C22   A    
C7    C40   A    
C1    O10   A    
C8    H23   S    
C37   O7    S    
C13   H34   S    
C2    C69   A    
O10   Zn2   S    
C35   O5    S    
C46   H16   S    
C44   H14   S    
C51   H29   S    
C59   C60   S    
C48   H21   S    
C13   C14   A    
C64   O9    S    
C61   H51   S    
C28   O15   A    
C14   C17   A    
C61   C62   S    
C49   H22   S    
C62   H54   S    
C65   H62   S    
C44   C46   S    
C44   H13   S    
C6    H5    S    
C39   C42   A    
C66   H63   S    
C68   H9    S    
C15   C20   A    
C54   H37   S    
C51   C52   S    
C47   H17   S    
C45   C56   A    
O15   Zn1   S    
C26   N2    A    
C10   C11   A    
C34   C68   A    
C50   H25   S    
C39   C43   A    
C10   C24   A    
C58   C59   S    
C32   C37   A    
C3    C45   A    
C8    C18   A    
C56   H8    S    
C48   O4    S    
C55   H38   S    
C67   O17   S    
C47   H18   S    
O12   Zn2   S    
C62   C63   S    
C25   C38   A    
C41   H6    S    
C66   H64   S    
C5    O2    S    
C57   H41   S    
C4    C39   S    
C53   H33   S    
C17   C18   A    
C38   N1    A    
C60   H48   S    
C16   O13   A    
C34   C45   A    
C38   H66   S    
C60   H49   S    
C1    O1    A    
C54   O6    S    
C46   H15   S    
C59   H46   S    
C48   C49   S    
C65   C66   S    
C37   N1    A    
C55   C57   S    
C69   O8    S    
C6    C40   A    
C2    C5    A    
C12   C34   A    
C62   H53   S    
C22   H1    S    
C52   C53   S    
C4    O12   A    
C54   C55   S    
C15   C24   A    
C54   H36   S    
C31   C36   A    
C68   C69   A    
C29   H2    S    
C58   O7    S    
C56   C67   A    
C4    O11   A    
C52   H30   S    
C42   H7    S    
C23   C41   A    
C65   H61   S    
C55   H39   S    
C48   H20   S    
C47   H19   S    
C2    C3    A    
C61   O8    S    
C20   H56   S    
C28   O16   A    
C64   C65   S    
C30   C32   A    
C11   C13   A    
N1    Zn1   S    
C9    C21   A    
C57   H42   S    
C33   C35   A    
C52   H31   S    
O13   Zn1   S    
C10   O4    S    
C32   C33   A    
C50   H26   S    
C17   C21   A    
C63   H57   S    
C36   H4    S    
C7    H67   S    
C64   H60   S    
C1    C24   S    
C44   O3    S    
C49   C50   S    
C16   O14   A    
C14   C15   A    
C25   O6    S    
C49   H24   S    
C19   H12   S    
C31   N2    A    
H11   O2    S    
C63   H58   S    
C27   H3    S    
C25   C33   A    
O16   Zn2   S    
