data_mof_unit_972.cif
_audit_creation_date              2012-12-10T16:59:22-0500
_audit_creation_method            fapswitch 2.2
_symmetry_space_group_name_H-M    P1
_symmetry_Int_Tables_number       1
_space_group_crystal_system       triclinic
_cell_length_a                    7.717198
_cell_length_b                    8.619721
_cell_length_c                    27.72719
_cell_angle_alpha                 90.983885
_cell_angle_beta                  86.443991
_cell_angle_gamma                 93.489314
_cell_volume                      1837.28533156

loop_
_atom_site_label
_atom_site_type_symbol
_atom_type_description
_atom_site_fract_x
_atom_site_fract_y
_atom_site_fract_z
_atom_type_partial_charge
C1    C     C_R   0.545183 0.794335 0.498819 0.970647
C2    C     C_R   0.439907 0.637642 0.128824 -0.025643
C3    C     C_R   0.513650 0.508111 0.646458 -0.140717
C4    C     C_R   0.487147 0.495438 0.353624 -0.120884
C5    C     C_R   0.461499 0.643533 0.026648 0.047141
C6    C     C_R   0.553383 0.371337 0.973336 0.047200
C7    C     C_R   0.541575 0.369485 0.024556 0.047870
C8    C     C_R   0.473513 0.645438 0.975422 0.047829
C9    C     C_R   0.495951 0.505661 0.050857 0.073966
C10   C     C_R   0.518342 0.509035 0.949125 0.074018
C11   C     C_R   0.415026 0.775023 0.054817 -0.224683
C12   C     C_R   0.454757 0.205671 0.501066 0.964109
C13   C     C_R   0.599436 0.239719 0.945172 -0.224557
C14   C     C_R   0.404781 0.771791 0.104829 -0.139562
C15   C     C_R   0.607636 0.242339 0.895169 -0.139986
C16   C     C_R   0.503826 0.502366 0.593873 0.927685
C17   C     C_R   0.496300 0.498255 0.406156 0.947596
C18   C     C_R   0.442131 0.779625 0.949274 -0.222462
C19   C     C_R   0.573187 0.235339 0.050691 -0.222566
C20   C     C_2   0.565228 0.955430 0.491644 -0.089020
C21   C     C_2   0.434373 0.044511 0.507998 -0.089931
C22   C     C_R   0.497038 0.642238 0.822756 0.540791
C23   C     C_R   0.527523 0.510138 0.897903 -0.049273
C24   C     C_R   0.511590 0.370728 0.177222 0.539864
C25   C     C_R   0.575685 0.378637 0.820714 0.518127
C26   C     C_R   0.432069 0.634077 0.179316 0.517582
C27   C     C_R   0.390689 0.433570 0.725677 -0.183118
C28   C     C_R   0.609621 0.579026 0.275285 -0.192638
C29   C     C_R   0.379670 0.431543 0.675754 0.095025
C30   C     C_R   0.619158 0.576822 0.325113 0.073640
C31   C     C_R   0.658499 0.586047 0.667652 -0.119263
C32   C     C_R   0.344268 0.416948 0.331720 -0.130681
C33   C     C_R   0.668637 0.582492 0.718188 0.074850
C34   C     C_R   0.484872 0.503993 0.102081 -0.049306
C35   C     C_R   0.335303 0.424017 0.281161 0.075248
C36   C     C_R   0.533494 0.507587 0.746546 0.293776
C37   C     C_R   0.469573 0.503402 0.253558 0.299475
C38   C     C_2   0.791962 0.679826 0.637878 0.916073
C39   C     C_2   0.212020 0.319435 0.360762 0.913196
C40   C     C_R   0.492068 0.645014 0.873236 -0.031047
C41   C     C_R   0.519501 0.368863 0.126732 -0.030504
C42   C     C_R   0.450864 0.778886 0.899247 -0.141236
C43   C     C_R   0.562653 0.235548 0.100710 -0.141525
C44   C     C_R   0.571024 0.376045 0.871179 -0.025862
H1    H     H_    0.014352 0.382597 0.463873 0.214100
H2    H     H_    0.630508 0.131585 0.960290 0.140978
H3    H     H_    0.409788 0.888306 0.966047 0.138922
H4    H     H_    0.606794 0.126994 0.033921 0.139023
H5    H     H_    0.841745 0.845355 0.587445 0.330239
H6    H     H_    0.164492 0.152698 0.410907 0.331878
H7    H     H_    0.925572 0.605082 0.730426 0.228067
H8    H     H_    0.823556 0.775138 0.732055 0.227104
H9    H     H_    0.185426 0.229700 0.265726 0.230220
H10   H     H_    0.079190 0.397565 0.268198 0.222082
H11   H     H_    0.761148 0.777005 0.337261 0.192381
H12   H     H_    0.985660 0.617478 0.536091 0.215705
H13   H     H_    0.877259 0.616755 0.332136 0.224883
H14   H     H_    0.141386 0.310373 0.681336 0.200394
H15   H     H_    0.280891 0.250715 0.637054 0.171019
H16   H     H_    0.827042 0.990530 0.479333 0.188423
H17   H     H_    0.716788 0.955276 0.428930 0.193297
H18   H     H_    0.172302 0.010022 0.520005 0.189042
H19   H     H_    0.282037 0.043527 0.570589 0.183055
H20   H     H_    0.424243 0.884274 0.881012 0.191255
H21   H     H_    0.589062 0.130075 0.118934 0.191177
H22   H     H_    0.711963 0.639709 0.253154 0.155640
H23   H     H_    0.288388 0.376660 0.748752 0.150141
H24   H     H_    0.369208 0.875727 0.124657 0.193976
H25   H     H_    0.642510 0.138194 0.875345 0.193713
H26   H     H_    0.384718 0.883378 0.039689 0.141112
N1    N     N_R   0.537620 0.510084 0.797833 -0.339498
N2    N     N_3   0.284186 0.985386 0.537170 -0.418179
N3    N     N_R   0.468694 0.502176 0.202198 -0.339715
N4    N     N_2   0.950320 0.457960 0.486880 -0.168223
N5    N     N_2   0.049680 0.542040 0.513120 -0.166135
N6    N     N_3   0.811647 0.658189 0.741823 -0.423913
N7    N     N_3   0.194802 0.347323 0.256726 -0.423627
N8    N     N_3   0.761533 0.660195 0.346807 -0.425496
N9    N     N_3   0.234470 0.349617 0.654579 -0.387928
N10   N     N_3   0.714818 0.014385 0.462207 -0.418208
O1    O     O_R   0.389250 0.738570 0.503220 -0.595117
O2    O     O_2   0.548154 0.243021 0.201301 -0.536989
O3    O     O_2   0.388837 0.761125 0.205450 -0.541425
O4    O     O_2   0.617107 0.251032 0.794599 -0.541299
O5    O     O_2   0.946670 0.662362 0.641468 -0.630232
O6    O     O_R   0.739732 0.788579 0.605719 -0.808303
O7    O     O_2   0.056928 0.332871 0.356488 -0.646330
O8    O     O_R   0.265802 0.211888 0.393076 -0.806639
O9    O     O_R   0.610750 0.261430 0.496780 -0.595041
O10   O     O_R   0.678390 0.711630 0.494810 -0.641104
O11   O     O_R   0.321610 0.288370 0.505190 -0.644073
O12   O     O_R   0.355440 0.513440 0.575450 -0.571456
O13   O     O_R   0.644560 0.486560 0.424550 -0.574193
O14   O     O_R   0.644590 0.486500 0.567040 -0.629675
O15   O     O_R   0.355410 0.513500 0.432960 -0.633456
O16   O     O_2   0.459883 0.769700 0.798652 -0.535650
Zn1   Zn    Zn3+2 0.306940 0.517990 0.505620 0.996393
Zn2   Zn    Zn3+2 0.693060 0.482010 0.494380 0.996443

loop_
_geom_bond_atom_site_label_1
_geom_bond_atom_site_label_2
_ccdc_geom_bond_type
C1    O10   A    
C27   C29   A    
C12   O11   A    
H9    N7    S    
C39   O7    D    
C18   H3    S    
C33   C36   A    
C11   H26   S    
N4    Zn2   S    
C26   O3    S    
C38   O6    S    
C35   C37   A    
C15   C44   A    
C5    C11   A    
C18   C42   A    
C13   H2    S    
C11   C14   A    
C24   N3    A    
O14   Zn2   S    
H17   N10   S    
C1    O1    A    
C23   C40   A    
N5    Zn1   S    
C26   N3    A    
C32   C39   S    
C3    C29   A    
C24   O2    S    
C25   O4    S    
C31   C33   A    
C17   O15   A    
C36   N1    S    
H6    O8    S    
H10   N7    S    
C2    C34   A    
C40   C42   A    
H12   N5    S    
C24   C41   A    
C41   C43   A    
C34   C41   A    
C39   O8    S    
H13   N8    S    
C25   C44   A    
C19   C43   A    
O12   Zn1   S    
C15   H25   S    
N4    N5    D    
C20   N10   S    
C21   N2    S    
C32   C35   A    
C12   O9    A    
H7    N6    S    
H15   N9    S    
H11   N8    S    
C19   H4    S    
C38   O5    D    
C12   C21   S    
C35   N7    S    
C8    C18   A    
C23   C44   A    
H1    N4    S    
C28   H22   S    
C5    C9    A    
C33   N6    S    
C29   N9    S    
C43   H21   S    
C22   C40   A    
C20   C21   D    
H18   N2    S    
C2    C26   A    
O11   Zn1   S    
C3    C31   A    
C4    C32   A    
H14   N9    S    
C25   N1    A    
C4    C17   S    
C16   O12   A    
C7    C19   A    
C13   C15   A    
C9    C34   A    
C10   C23   A    
C17   O13   A    
C42   H20   S    
C22   N1    A    
C7    C9    A    
C37   N3    S    
H16   N10   S    
C1    C20   S    
C22   O16   S    
H5    O6    S    
H8    N6    S    
C6    C10   A    
C5    C8    A    
O15   Zn1   S    
C6    C7    A    
C27   C36   A    
C16   O14   A    
C31   C38   S    
O9    Zn2   S    
C28   C30   A    
C6    C13   A    
O1    Zn1   S    
C28   C37   A    
C2    C14   A    
C27   H23   S    
C30   N8    S    
H19   N2    S    
C8    C10   A    
C14   H24   S    
O13   Zn2   S    
O10   Zn2   S    
C4    C30   A    
C3    C16   S    
