data_mof_unit_2774.cif
_audit_creation_date              2012-12-11T14:52:47-0500
_audit_creation_method            fapswitch 2.2
_symmetry_space_group_name_H-M    P1
_symmetry_Int_Tables_number       1
_space_group_crystal_system       triclinic
_cell_length_a                    19.319421
_cell_length_b                    11.257576
_cell_length_c                    18.731589
_cell_angle_alpha                 89.448049
_cell_angle_beta                  91.708707
_cell_angle_gamma                 89.054953
_cell_volume                      4071.35611078

loop_
_atom_site_label
_atom_site_type_symbol
_atom_type_description
_atom_site_fract_x
_atom_site_fract_y
_atom_site_fract_z
_atom_type_partial_charge
C1    C     C_R   0.273361 0.039838 0.853824 0.556120
C2    C     C_R   0.725438 0.042546 0.146848 0.538522
C3    C     C_R   0.773209 0.539757 0.853794 0.568785
C4    C     C_R   0.225376 0.542699 0.146898 0.537964
C5    C     C_3   0.555599 0.718817 0.958328 0.244067
C6    C     C_3   0.508341 0.712224 0.023374 0.282834
C7    C     C_3   0.056341 0.216388 0.960246 0.239786
C8    C     C_3   0.007638 0.214649 0.024012 0.299698
C9    C     C_R   0.308010 0.572812 0.974007 0.120181
C10   C     C_R   0.728534 0.505881 0.046974 0.065050
C11   C     C_R   0.808964 0.072509 0.973891 0.121289
C12   C     C_R   0.229841 0.005743 0.047388 0.078048
C13   C     C_R   0.300818 0.580130 0.047430 0.167658
C14   C     C_R   0.730952 0.486995 0.974378 0.075339
C15   C     C_R   0.801265 0.079099 0.047367 0.164010
C16   C     C_R   0.233655 0.986073 0.975049 0.085859
C17   C     C_R   0.235322 0.584934 0.074693 -0.026228
C18   C     C_R   0.755898 0.573642 0.926795 0.038377
C19   C     C_R   0.735659 0.083960 0.074502 -0.024871
C20   C     C_R   0.256960 0.073412 0.927125 0.030574
C21   C     C_R   0.176950 0.617232 0.029802 0.084173
C22   C     C_R   0.780375 0.680587 0.954025 0.103505
C23   C     C_R   0.677397 0.115126 0.029489 0.083215
C24   C     C_R   0.280763 0.180939 0.954158 0.101384
C25   C     C_R   0.185462 0.636763 0.957613 0.337692
C26   C     C_R   0.782577 0.698122 0.028065 0.255381
C27   C     C_R   0.686017 0.133484 0.957188 0.329517
C28   C     C_R   0.282588 0.198937 0.028175 0.256501
C29   C     C_R   0.250822 0.604653 0.927788 -0.067411
C30   C     C_R   0.750219 0.614021 0.073574 0.013769
C31   C     C_R   0.751609 0.103556 0.927665 -0.067499
C32   C     C_R   0.250279 0.114672 0.073656 0.018575
C33   C     C_R   0.508741 0.728877 0.537648 0.239674
C34   C     C_R   0.494905 0.729481 0.464703 0.237321
C35   C     C_R   0.008937 0.228868 0.537743 0.241042
C36   C     C_R   0.995095 0.229444 0.464793 0.236801
C37   C     C_R   0.502794 0.835637 0.426143 -0.040621
C38   C     C_R   0.499885 0.835046 0.575243 -0.037920
C39   C     C_R   0.002912 0.335609 0.426212 -0.040922
C40   C     C_R   0.000010 0.335043 0.575314 -0.036516
C41   C     C_R   0.500664 0.946169 0.462085 0.236885
C42   C     C_R   0.502432 0.945711 0.538627 0.237069
C43   C     C_R   0.000754 0.446146 0.462146 0.236819
C44   C     C_R   0.002527 0.445700 0.538688 0.237082
C45   C     C_R   0.471936 0.817881 0.852585 0.545905
C46   C     C_R   0.561979 0.816120 0.138447 0.559738
C47   C     C_R   0.972723 0.317668 0.851941 0.524529
C48   C     C_R   0.061509 0.316518 0.138352 0.557728
C49   C     C_R   0.181395 0.604389 0.544747 -0.096586
C50   C     C_R   0.820240 0.600277 0.454911 -0.095373
C51   C     C_R   0.681379 0.104327 0.544759 -0.096577
C52   C     C_R   0.320223 0.100336 0.454923 -0.095289
C53   C     C_R   0.174296 0.582093 0.473871 -0.181773
C54   C     C_R   0.827832 0.576043 0.525832 -0.180921
C55   C     C_R   0.674270 0.082009 0.473884 -0.181762
C56   C     C_R   0.327811 0.076119 0.525844 -0.181142
C57   C     C_R   0.222454 0.512420 0.439404 0.005101
C58   C     C_R   0.779109 0.510206 0.560946 0.001318
C59   C     C_R   0.722446 0.012384 0.439409 0.005125
C60   C     C_R   0.279104 0.010240 0.560953 0.001466
C61   C     C_R   0.276702 0.454253 0.480050 0.258666
C62   C     C_R   0.725041 0.454333 0.520697 0.258506
C63   C     C_R   0.776705 0.954235 0.480051 0.258578
C64   C     C_R   0.225044 0.954357 0.520704 0.258609
C65   C     C_R   0.283368 0.478523 0.554571 0.082594
C66   C     C_R   0.719390 0.477813 0.445778 0.081715
C67   C     C_R   0.783373 0.978513 0.554574 0.082828
C68   C     C_R   0.219386 0.977837 0.445789 0.081338
C69   C     C_R   0.239758 0.565161 0.583273 0.034415
C70   C     C_R   0.762034 0.563623 0.416747 0.035144
C71   C     C_R   0.739758 0.065144 0.583275 0.034822
C72   C     C_R   0.262029 0.063645 0.416753 0.035096
C73   C     C_R   0.261599 0.639677 0.852889 0.520559
C74   C     C_R   0.738398 0.644554 0.147169 0.555604
C75   C     C_R   0.761775 0.139514 0.852862 0.525487
C76   C     C_R   0.238303 0.145002 0.147114 0.554478
C77   C     C_R   0.289517 0.998764 0.638683 0.576640
C78   C     C_R   0.710962 0.998636 0.362051 0.578720
C79   C     C_R   0.789519 0.498756 0.638682 0.576583
C80   C     C_R   0.210964 0.498645 0.362051 0.578601
C81   C     C_R   0.469809 0.824197 0.647069 0.544530
C82   C     C_R   0.530775 0.824465 0.353350 0.562990
C83   C     C_R   0.969835 0.324197 0.647090 0.541638
C84   C     C_R   0.030803 0.324459 0.353373 0.561860
C85   C     C_R   0.258053 0.631602 0.647182 0.580840
C86   C     C_R   0.742382 0.631795 0.352863 0.580472
C87   C     C_R   0.758054 0.131603 0.647180 0.581160
C88   C     C_R   0.242382 0.131798 0.352863 0.579660
C89   C     C_3   0.498405 0.908709 0.019633 0.232240
C90   C     C_3   0.546735 0.909007 0.955254 0.232142
C91   C     C_3   0.998552 0.409987 0.018185 0.235210
C92   C     C_3   0.047822 0.407888 0.954740 0.230942
C93   C     C_3   0.458810 0.805440 0.987485 0.051310
C94   C     C_3   0.594196 0.820432 0.995352 0.017070
C95   C     C_3   0.959093 0.306626 0.985984 0.055139
C96   C     C_3   0.094547 0.319446 0.996588 0.018191
C97   C     C_3   0.505281 0.810834 0.922706 -0.016002
C98   C     C_3   0.545946 0.817658 0.060158 -0.048719
C99   C     C_3   0.006916 0.308750 0.921646 -0.038704
C100  C     C_3   0.045247 0.319757 0.060146 -0.043031
Cr1   Cr    Cr6+3 0.229630 0.835900 0.747350 1.016520
Cr2   Cr    Cr6+3 0.770370 0.835900 0.252650 1.015567
Cr3   Cr    Cr6+3 0.729630 0.335900 0.747350 1.026203
Cr4   Cr    Cr6+3 0.270370 0.335900 0.252650 1.014247
Cr5   Cr    Cr6+3 0.387410 0.989850 0.750850 0.996116
Cr6   Cr    Cr6+3 0.612590 0.989850 0.249150 0.995666
Cr7   Cr    Cr6+3 0.887410 0.489850 0.750850 0.995969
Cr8   Cr    Cr6+3 0.112590 0.489850 0.249150 0.994843
Cr9   Cr    Cr6+3 0.385800 0.677120 0.749340 1.013440
Cr10  Cr    Cr6+3 0.614200 0.677120 0.250660 1.010232
Cr11  Cr    Cr6+3 0.885800 0.177120 0.749340 1.005711
Cr12  Cr    Cr6+3 0.114200 0.177120 0.250660 1.023874
H1    H     H_    0.143395 0.661559 0.568073 0.213255
H2    H     H_    0.857559 0.657135 0.431305 0.219301
H3    H     H_    0.643372 0.161473 0.568095 0.213134
H4    H     H_    0.357536 0.157215 0.431324 0.219449
H5    H     H_    0.132641 0.626229 0.445418 0.130904
H6    H     H_    0.870029 0.616307 0.553910 0.136010
H7    H     H_    0.632591 0.126084 0.445435 0.130900
H8    H     H_    0.369990 0.116433 0.553922 0.136008
O1    O     O_R   0.214270 0.709000 0.827470 -0.476966
O2    O     O_R   0.785730 0.709000 0.172530 -0.502867
O3    O     O_R   0.714270 0.209000 0.827470 -0.474571
O4    O     O_R   0.285730 0.209000 0.172530 -0.504829
O5    O     O_R   0.445950 0.919440 0.676520 -0.529341
O6    O     O_R   0.554050 0.919440 0.323480 -0.518282
O7    O     O_R   0.945950 0.419440 0.676520 -0.529149
O8    O     O_R   0.054050 0.419440 0.323480 -0.518734
O9    O     O_R   0.456730 0.717630 0.669840 -0.470738
O10   O     O_R   0.543270 0.717630 0.330160 -0.469930
O11   O     O_R   0.956730 0.217630 0.669840 -0.475311
O12   O     O_R   0.043270 0.217630 0.330160 -0.469129
O13   O     O_R   0.320620 0.625640 0.672920 -0.476920
O14   O     O_R   0.679380 0.625640 0.327080 -0.480988
O15   O     O_R   0.820620 0.125640 0.672920 -0.476501
O16   O     O_R   0.179380 0.125640 0.327080 -0.480955
O17   O     O_3   0.334280 0.834290 0.749180 -0.295487
O18   O     O_3   0.665720 0.834290 0.250820 -0.316839
O19   O     O_3   0.834280 0.334290 0.749180 -0.295226
O20   O     O_3   0.165720 0.334290 0.250820 -0.318100
O21   O     O_R   0.236160 0.958490 0.823130 -0.542287
O22   O     O_R   0.763840 0.958490 0.176870 -0.498042
O23   O     O_R   0.736160 0.458490 0.823130 -0.529384
O24   O     O_R   0.263840 0.458490 0.176870 -0.498016
O25   O     O_R   0.332080 0.075470 0.831280 -0.496347
O26   O     O_R   0.667920 0.075470 0.168720 -0.542873
O27   O     O_R   0.832080 0.575470 0.831280 -0.500256
O28   O     O_R   0.167920 0.575470 0.168720 -0.543482
O29   O     O_R   0.446300 0.918110 0.826620 -0.504939
O30   O     O_R   0.553700 0.918110 0.173380 -0.479648
O31   O     O_R   0.946300 0.418110 0.826620 -0.502773
O32   O     O_R   0.053700 0.418110 0.173380 -0.485152
O33   O     O_R   0.457110 0.716200 0.831760 -0.549628
O34   O     O_R   0.542890 0.716200 0.168240 -0.495930
O35   O     O_R   0.957110 0.216200 0.831760 -0.565446
O36   O     O_R   0.042890 0.216200 0.168240 -0.476224
O37   O     O_R   0.320980 0.624310 0.823030 -0.524689
O38   O     O_R   0.679020 0.624310 0.176970 -0.545332
O39   O     O_R   0.820980 0.124310 0.823030 -0.521298
O40   O     O_R   0.179020 0.124310 0.176970 -0.540438
O41   O     O_R   0.213890 0.710430 0.665540 -0.502956
O42   O     O_R   0.786110 0.710430 0.334460 -0.504804
O43   O     O_R   0.713890 0.210430 0.665540 -0.503348
O44   O     O_R   0.286110 0.210430 0.334460 -0.505063
O45   O     O_R   0.235810 0.959820 0.673020 -0.469183
O46   O     O_R   0.764190 0.959820 0.326980 -0.468347
O47   O     O_R   0.735810 0.459820 0.673020 -0.466985
O48   O     O_R   0.264190 0.459820 0.326980 -0.468639
O49   O     O_R   0.331700 0.076900 0.669350 -0.547239
O50   O     O_R   0.668300 0.076900 0.330650 -0.556100
O51   O     O_R   0.831700 0.576900 0.669350 -0.546453
O52   O     O_R   0.168300 0.576900 0.330650 -0.555700
N1    N     N_3   0.383836 0.801851 0.984056 -0.610381
H9    H     H_    0.367835 0.861656 0.943959 0.203771
H10   H     H_    0.365486 0.833730 0.032231 0.258469
N2    N     N_3   0.667742 0.833430 0.002575 -0.584955
H11   H     H_    0.678030 0.868692 0.052922 0.236213
H12   H     H_    0.682864 0.895506 0.965090 0.240302
N3    N     N_3   0.883991 0.302028 0.982197 -0.610205
H13   H     H_    0.867097 0.360455 0.941650 0.208040
H14   H     H_    0.865250 0.333834 0.030239 0.256127
N4    N     N_3   0.167925 0.333479 0.005047 -0.582879
H15   H     H_    0.177372 0.368217 0.055689 0.236128
H16   H     H_    0.183450 0.396336 0.968184 0.239992
O53   O     O_3   0.316421 0.368148 0.447246 -0.561396
C101  C     C_3   0.388096 0.381289 0.461378 -0.129464
H17   H     H_    0.406751 0.310740 0.498579 0.091677
H18   H     H_    0.415764 0.369930 0.410916 0.137250
H19   H     H_    0.402791 0.467714 0.484459 0.169875
O54   O     O_3   0.684158 0.372067 0.554597 -0.559344
C102  C     C_3   0.612934 0.385948 0.536156 -0.125800
H20   H     H_    0.596941 0.316269 0.498387 0.087537
H21   H     H_    0.582640 0.373435 0.584837 0.140317
H22   H     H_    0.598321 0.473504 0.512262 0.177746
O55   O     O_3   0.816419 0.868124 0.447243 -0.561349
C103  C     C_3   0.888094 0.881184 0.461414 -0.129586
H23   H     H_    0.906705 0.810614 0.498622 0.091637
H24   H     H_    0.915783 0.869799 0.410967 0.137575
H25   H     H_    0.902813 0.967587 0.484504 0.169603
O56   O     O_3   0.184164 0.872086 0.554599 -0.559064
C104  C     C_3   0.112934 0.886072 0.536218 -0.125479
H26   H     H_    0.096881 0.816428 0.498448 0.087469
H27   H     H_    0.082672 0.873572 0.584921 0.140240
H28   H     H_    0.098349 0.973660 0.512347 0.178078
N5    N     N_3   0.327962 0.410210 0.602626 -0.613596
H29   H     H_    0.323141 0.319941 0.591407 0.250690
H30   H     H_    0.379238 0.436239 0.598101 0.240923
N6    N     N_3   0.677071 0.409471 0.397673 -0.618173
H31   H     H_    0.683063 0.319277 0.410342 0.248969
H32   H     H_    0.625259 0.436458 0.399836 0.240846
N7    N     N_3   0.827956 0.910193 0.602636 -0.612810
H33   H     H_    0.823134 0.819924 0.591418 0.250934
H34   H     H_    0.879234 0.936223 0.598128 0.240731
N8    N     N_3   0.177041 0.909521 0.397695 -0.617544
H35   H     H_    0.183027 0.819325 0.410359 0.248956
H36   H     H_    0.125234 0.936521 0.399891 0.241175
O57   O     O_3   0.470156 0.012845 0.047476 -0.564510
C105  C     C_3   0.425488 0.063745 0.994806 -0.113053
H37   H     H_    0.434626 0.038498 0.938694 0.170072
H38   H     H_    0.431494 0.159992 0.994059 0.093763
H39   H     H_    0.373022 0.038678 0.008350 0.113106
O58   O     O_3   0.567396 0.997071 0.907365 -0.533268
C106  C     C_3   0.603409 0.949168 0.848223 -0.063113
H40   H     H_    0.653310 0.993251 0.842154 0.151805
H41   H     H_    0.572807 0.967325 0.798170 0.150963
H42   H     H_    0.616165 0.852600 0.851748 0.125324
O59   O     O_3   0.970348 0.515239 0.044667 -0.565686
C107  C     C_3   0.926664 0.565434 0.990917 -0.104576
H43   H     H_    0.938155 0.541671 0.935159 0.178353
H44   H     H_    0.931413 0.661845 0.991099 0.094371
H45   H     H_    0.873984 0.538463 0.002415 0.110225
O60   O     O_3   0.069865 0.498256 0.909095 -0.523268
C108  C     C_3   0.104825 0.451303 0.849161 -0.074211
H46   H     H_    0.151112 0.503219 0.838431 0.162149
H47   H     H_    0.071197 0.460315 0.800386 0.147074
H48   H     H_    0.123324 0.357533 0.855373 0.094060
O61   O     O_3   0.596475 0.639494 0.919455 -0.564019
C109  C     C_3   0.558911 0.539228 0.900231 -0.098618
H49   H     H_    0.568852 0.473116 0.941856 0.103171
H50   H     H_    0.502391 0.552188 0.894903 0.151230
H51   H     H_    0.578106 0.505064 0.848995 0.134966
O62   O     O_3   0.483287 0.607336 0.054307 -0.505779
C110  C     C_3   0.536758 0.525824 0.074221 -0.071070
H52   H     H_    0.535617 0.508256 0.132501 0.145401
H53   H     H_    0.589394 0.555253 0.060722 0.145808
H54   H     H_    0.525949 0.439514 0.048780 0.080834
O63   O     O_3   0.097837 0.120505 0.936794 -0.584736
C111  C     C_3   0.074500 0.080568 0.869786 -0.111440
H55   H     H_    0.108578 0.007398 0.852703 0.130196
H56   H     H_    0.021842 0.043114 0.873005 0.138646
H57   H     H_    0.078681 0.151104 0.828353 0.137796
O64   O     O_3   0.982839 0.114001 0.059481 -0.501647
C112  C     C_3   0.031281 0.019689 0.059657 -0.049870
H58   H     H_    0.018533 0.955803 0.102550 0.098507
H59   H     H_    0.084853 0.050194 0.070571 0.163594
H60   H     H_    0.027121 0.972421 0.008168 0.129111
N9    N     N_3   0.374826 0.540276 0.948677 -0.553246
H61   H     H_    0.369720 0.475923 0.909513 0.208975
H62   H     H_    0.396265 0.613919 0.925138 0.300046
N10   N     N_3   0.711224 0.408720 0.093262 -0.608508
H63   H     H_    0.667084 0.429803 0.121480 0.230387
H64   H     H_    0.752464 0.393245 0.129769 0.227964
N11   N     N_3   0.875868 0.038935 0.948645 -0.556518
H65   H     H_    0.870474 0.974779 0.909403 0.210548
H66   H     H_    0.898754 0.111468 0.925266 0.305706
N12   N     N_3   0.212651 0.908732 0.093846 -0.609032
H67   H     H_    0.167826 0.929083 0.121138 0.232638
H68   H     H_    0.253420 0.894756 0.131112 0.226318
N13   N     N_3   0.359852 0.601654 0.093168 -0.491729
H69   H     H_    0.352276 0.683322 0.118126 0.221957
H70   H     H_    0.365831 0.538408 0.133520 0.238458
N14   N     N_3   0.712885 0.373220 0.950798 -0.576378
H71   H     H_    0.756408 0.335571 0.928489 0.245002
H72   H     H_    0.673523 0.384220 0.912265 0.279005
N15   N     N_3   0.859923 0.099971 0.093521 -0.493507
H73   H     H_    0.852300 0.181332 0.118847 0.224017
H74   H     H_    0.866032 0.035730 0.133295 0.241804
N16   N     N_3   0.217482 0.871648 0.951760 -0.576082
H75   H     H_    0.260592 0.836065 0.927799 0.242212
H76   H     H_    0.177762 0.882307 0.913936 0.282775
N17   N     N_3   0.107606 0.623041 0.054763 -0.578442
H77   H     H_    0.101630 0.692379 0.090983 0.248073
H78   H     H_    0.094272 0.541334 0.075452 0.295431
N18   N     N_3   0.806785 0.767916 0.906366 -0.592049
H79   H     H_    0.859007 0.779943 0.919514 0.222213
H80   H     H_    0.779663 0.847594 0.912457 0.243286
N19   N     N_3   0.608166 0.120697 0.054673 -0.586326
H81   H     H_    0.601887 0.190783 0.090326 0.251141
H82   H     H_    0.594913 0.039131 0.075570 0.295004
N20   N     N_3   0.306909 0.268349 0.906439 -0.595558
H83   H     H_    0.359055 0.280930 0.919817 0.223186
H84   H     H_    0.279324 0.347659 0.912344 0.242700
O65   O     O_3   0.131149 0.681342 0.912153 -0.486393
C113  C     C_3   0.079460 0.756453 0.940514 -0.049968
H85   H     H_    0.034465 0.704121 0.955045 0.186654
H86   H     H_    0.098089 0.810233 0.986241 0.133481
H87   H     H_    0.060541 0.818692 0.897815 0.084413
O66   O     O_3   0.805303 0.806818 0.053510 -0.549941
C114  C     C_3   0.874877 0.797758 0.079188 -0.074205
H88   H     H_    0.909762 0.837026 0.039704 0.122929
H89   H     H_    0.891746 0.706557 0.096049 0.141813
H90   H     H_    0.880695 0.848862 0.128819 0.150244
O67   O     O_3   0.631888 0.174767 0.910807 -0.487889
C115  C     C_3   0.577053 0.243219 0.937868 -0.050091
H91   H     H_    0.534813 0.186415 0.954314 0.200512
H92   H     H_    0.593654 0.300430 0.982676 0.124294
H93   H     H_    0.554402 0.297273 0.893143 0.082053
O68   O     O_3   0.304818 0.307966 0.053583 -0.550065
C116  C     C_3   0.374396 0.299821 0.079278 -0.073066
H94   H     H_    0.409237 0.337787 0.039316 0.127825
H95   H     H_    0.391264 0.209257 0.097331 0.139332
H96   H     H_    0.380191 0.352298 0.128333 0.150881
O69   O     O_3   0.525458 0.622578 0.572471 -0.551227
C117  C     C_3   0.589538 0.635085 0.610808 -0.096574
H97   H     H_    0.589134 0.707675 0.650482 0.124151
H98   H     H_    0.632473 0.649678 0.573572 0.116243
H99   H     H_    0.600954 0.552889 0.642185 0.158050
O70   O     O_3   0.477351 0.624632 0.431026 -0.550654
C118  C     C_3   0.412172 0.641358 0.394687 -0.100185
H100  H     H_    0.410839 0.716067 0.355530 0.129615
H101  H     H_    0.370277 0.655356 0.433391 0.115414
H102  H     H_    0.400470 0.561314 0.362965 0.150752
O71   O     O_3   0.025565 0.122556 0.572602 -0.550118
C119  C     C_3   0.089548 0.135007 0.611132 -0.101418
H103  H     H_    0.089056 0.207574 0.650820 0.115892
H104  H     H_    0.132592 0.149571 0.574030 0.118409
H105  H     H_    0.100856 0.052792 0.642531 0.153766
O72   O     O_3   0.977501 0.124591 0.431142 -0.550576
C120  C     C_3   0.912285 0.141321 0.394874 -0.099395
H106  H     H_    0.910901 0.216044 0.355726 0.129771
H107  H     H_    0.870431 0.155304 0.433627 0.115074
H108  H     H_    0.900555 0.061294 0.363149 0.151464
O73   O     O_3   0.462583 0.035194 0.426610 -0.589913
C121  C     C_3   0.502873 0.131115 0.404762 -0.113397
H109  H     H_    0.468985 0.192846 0.372694 0.113939
H110  H     H_    0.544555 0.105138 0.369340 0.178974
H111  H     H_    0.523745 0.181598 0.450082 0.096703
O74   O     O_3   0.540510 0.032025 0.573665 -0.590352
C122  C     C_3   0.499933 0.129639 0.594915 -0.118235
H112  H     H_    0.534136 0.192027 0.623892 0.114625
H113  H     H_    0.459931 0.106069 0.632713 0.177191
H114  H     H_    0.476556 0.178387 0.549276 0.099613
O75   O     O_3   0.962644 0.535142 0.426676 -0.589974
C123  C     C_3   0.002910 0.631075 0.404797 -0.113193
H115  H     H_    0.969006 0.692757 0.372712 0.114288
H116  H     H_    0.044596 0.605101 0.369381 0.179170
H117  H     H_    0.023774 0.681609 0.450100 0.096668
O76   O     O_3   0.040573 0.532054 0.573725 -0.590599
C124  C     C_3   0.999967 0.629657 0.594937 -0.118163
H118  H     H_    0.034152 0.692114 0.623880 0.114599
H119  H     H_    0.959978 0.606090 0.632752 0.177297
H120  H     H_    0.976569 0.678330 0.549281 0.099641

loop_
_geom_bond_atom_site_label_1
_geom_bond_atom_site_label_2
_ccdc_geom_bond_type
C49   H1    S    
C55   C59   A    
C28   O68   S    
C106  H40   S    
Cr3   O3    S    
C106  H42   S    
Cr11  O19   S    
C62   O54   S    
Cr7   O51   S    
O73   C121  S    
C7    C99   S    
N18   H79   S    
C5    C6    S    
C95   C99   S    
C92   O60   S    
C4    O28   A    
C9    C13   A    
N4    H15   S    
C16   N16   S    
C72   C88   S    
C11   C15   A    
C86   O14   A    
C115  H93   S    
C12   C16   A    
N14   H71   S    
N19   H82   S    
C67   N7    S    
C91   C100  S    
N1    H10   S    
C46   C98   S    
C49   C69   A    
C40   C83   S    
C51   C71   A    
C107  H43   S    
C111  H56   S    
C25   C29   A    
C48   C100  S    
C109  H50   S    
Cr9   O13   S    
O71   C119  S    
Cr10  O18   S    
C3    O23   A    
Cr1   O17   S    
C55   H7    S    
C117  H97   S    
C17   C21   A    
Cr4   O20   S    
C50   H2    S    
C15   C19   A    
C43   C44   A    
C83   O11   A    
C52   C72   A    
C10   C30   A    
C81   O9    A    
O67   C115  S    
C42   O74   S    
C68   C72   A    
C15   N15   S    
Cr5   O49   S    
C58   C79   S    
C73   O1    A    
C64   O56   S    
C38   C81   S    
O66   C114  S    
C80   O52   A    
C112  H59   S    
N11   H66   S    
C1    C20   S    
Cr12  O40   S    
C25   O65   S    
C2    C19   S    
C103  H23   S    
Cr3   O23   S    
Cr4   O44   S    
C57   C61   A    
C59   C63   A    
C33   C38   A    
Cr5   O5    S    
C60   C64   A    
C35   C40   A    
C50   C70   A    
C102  H22   S    
Cr7   O7    S    
C22   N18   S    
C121  H111  S    
C66   C70   A    
C119  H105  S    
C49   C53   A    
C93   N1    S    
O76   C124  S    
C51   C55   A    
C12   N12   S    
O55   C103  S    
C61   C65   A    
C79   O47   A    
C101  H17   S    
Cr11  O35   S    
C80   O48   A    
C107  H45   S    
O64   C112  S    
Cr8   O28   S    
C84   O8    A    
C118  H101  S    
C3    O27   A    
C124  H118  S    
Cr6   O30   S    
C46   O30   A    
Cr12  O20   S    
C1    O25   A    
Cr9   O37   S    
O69   C117  S    
C7    C8    S    
C64   C68   A    
C39   C84   S    
C53   H5    S    
C112  H58   S    
C30   C74   S    
N8    H36   S    
C65   N5    S    
C77   O45   A    
C7    O63   S    
C78   O50   A    
C47   C99   S    
N9    H61   S    
C33   O69   S    
C108  H46   S    
Cr7   O31   S    
C115  H92   S    
Cr2   O46   S    
N1    H9    S    
O61   C109  S    
C104  H27   S    
C57   C80   S    
C8    C95   S    
Cr12  O16   S    
C103  H25   S    
C59   C78   S    
C116  H95   S    
C62   C66   A    
C76   O4    A    
C10   C14   A    
C91   C92   S    
C121  H109  S    
C119  H103  S    
O57   C105  S    
C88   O44   A    
C84   O12   A    
N3    H13   S    
O54   C102  S    
O65   C113  S    
C13   N13   S    
C114  H89   S    
C105  H38   S    
C110  H54   S    
C61   O53   S    
Cr8   O8    S    
N12   H68   S    
Cr11  O11   S    
C5    C97   S    
C26   C30   A    
C124  H120  S    
Cr8   O52   S    
C22   C26   A    
C2    O22   A    
Cr10  O14   S    
C93   C97   S    
Cr9   O33   S    
C105  H39   S    
C95   N3    S    
N7    H34   S    
C77   O49   A    
C21   C25   A    
C8    O64   S    
C81   O5    A    
C18   C22   A    
C36   C39   A    
C24   C28   A    
C83   O7    A    
O72   C120  S    
C32   C76   S    
C112  H60   S    
C106  H41   S    
Cr4   O4    S    
N17   H78   S    
C44   O76   S    
C13   C17   A    
C89   C98   S    
N18   H80   S    
C8    C100  S    
C41   O73   S    
C96   C100  S    
C120  H108  S    
Cr7   O19   S    
C108  H48   S    
N4    H16   S    
Cr5   O17   S    
C40   C44   A    
C122  H114  S    
C123  H115  S    
C119  H104  S    
Cr12  O36   S    
C85   O13   A    
N16   H75   S    
C6    O62   S    
Cr2   O22   S    
Cr9   O9    S    
C24   N20   S    
C92   C99   S    
C58   C62   A    
C9    N9    S    
C34   C37   A    
C85   O41   A    
C41   C42   A    
C35   C36   A    
C107  H44   S    
C5    C94   S    
C69   C85   S    
N11   H65   S    
Cr3   O47   S    
C7    C96   S    
C109  H51   S    
C4    O24   A    
C50   C54   A    
C5    O61   S    
C6    C98   S    
C113  H85   S    
C14   N14   S    
C94   C98   S    
C117  H98   S    
C110  H52   S    
N20   H83   S    
C104  H26   S    
C79   O51   A    
Cr11  O39   S    
C82   O6    A    
Cr8   O32   S    
N6    H31   S    
C35   O71   S    
C68   N8    S    
C21   N17   S    
C90   C97   S    
Cr10  O38   S    
C117  H99   S    
C48   O36   A    
N13   H69   S    
C90   C94   S    
C52   H4    S    
C46   O34   A    
C78   O46   A    
C74   O38   A    
C87   O15   A    
C88   O16   A    
C113  H87   S    
C103  H24   S    
N13   H70   S    
C53   C57   A    
N10   H63   S    
C116  H94   S    
C27   C31   A    
C89   C93   S    
Cr1   O1    S    
C102  H20   S    
C114  H88   S    
C102  H21   S    
Cr7   O27   S    
C31   C75   S    
C122  H112  S    
C123  H117  S    
C28   C32   A    
Cr2   O42   S    
C6    C93   S    
Cr5   O25   S    
O62   C110  S    
Cr12  O12   S    
Cr1   O45   S    
C71   C87   S    
C4    C17   S    
C74   O2    A    
C47   O31   A    
C48   O32   A    
C63   O55   S    
C37   C82   S    
C45   O33   A    
C101  H18   S    
C111  H55   S    
C109  H49   S    
C91   O59   S    
C10   N10   S    
C96   N4    S    
C38   C42   A    
Cr6   O6    S    
C101  H19   S    
Cr11  O15   S    
O53   C101  S    
C65   C69   A    
O60   C108  S    
Cr10  O10   S    
C67   C71   A    
C51   H3    S    
C1    O21   A    
C118  H100  S    
C56   C60   A    
Cr6   O50   S    
C89   C90   S    
Cr2   O2    S    
C94   N2    S    
C23   N19   S    
C87   O43   A    
O75   C123  S    
C73   O37   A    
C120  H106  S    
C14   C18   A    
C19   C23   A    
C92   C96   S    
N5    H29   S    
C75   O3    A    
N15   H74   S    
C90   O58   S    
C121  H110  S    
Cr6   O18   S    
C29   C73   S    
C66   N6    S    
C26   O66   S    
C3    C18   S    
Cr9   O17   S    
Cr2   O18   S    
C27   O67   S    
O59   C107  S    
Cr1   O21   S    
N7    H33   S    
O56   C104  S    
C110  H53   S    
Cr4   O24   S    
C86   O42   A    
C23   C27   A    
C82   O10   A    
N20   H84   S    
C111  H57   S    
C16   C20   A    
C118  H102  S    
C11   C31   A    
C124  H119  S    
C12   C32   A    
C37   C41   A    
C56   H8    S    
C114  H90   S    
C115  H91   S    
C63   C67   A    
C60   C77   S    
C20   C24   A    
N10   H64   S    
Cr8   O20   S    
N8    H35   S    
C39   C43   A    
N17   H77   S    
C91   C95   S    
C36   O72   S    
N9    H62   S    
O70   C118  S    
Cr10  O34   S    
Cr3   O19   S    
Cr4   O48   S    
C33   C34   A    
C120  H107  S    
C108  H47   S    
N14   H72   S    
N2    H11   S    
C122  H113  S    
N15   H73   S    
C123  H116  S    
C11   N11   S    
C54   H6    S    
N19   H81   S    
C104  H28   S    
N16   H76   S    
C70   C86   S    
C34   O70   S    
O68   C116  S    
C54   C58   A    
C116  H96   S    
C75   O39   A    
C76   O40   A    
O63   C111  S    
C9    C29   A    
C2    O26   A    
Cr5   O29   S    
Cr3   O43   S    
Cr6   O26   S    
Cr1   O41   S    
C43   O75   S    
C45   C97   S    
C113  H86   S    
C105  H37   S    
C47   O35   A    
N2    H12   S    
C45   O29   A    
O58   C106  S    
N12   H67   S    
C89   O57   S    
N6    H32   S    
O74   C122  S    
N5    H30   S    
C52   C56   A    
N3    H14   S    
