data_mof_unit_3830.cif
_audit_creation_date              2012-12-11T14:42:25-0500
_audit_creation_method            fapswitch 2.2
_symmetry_space_group_name_H-M    P1
_symmetry_Int_Tables_number       1
_space_group_crystal_system       triclinic
_cell_length_a                    18.984066
_cell_length_b                    10.941015
_cell_length_c                    18.803925
_cell_angle_alpha                 89.775508
_cell_angle_beta                  90.615136
_cell_angle_gamma                 90.165822
_cell_volume                      3905.3973636

loop_
_atom_site_label
_atom_site_type_symbol
_atom_type_description
_atom_site_fract_x
_atom_site_fract_y
_atom_site_fract_z
_atom_type_partial_charge
C1    C     C_R   0.727858 0.953473 0.853093 0.541104
C2    C     C_R   0.271954 0.953606 0.146957 0.534995
C3    C     C_R   0.227857 0.453474 0.853094 0.541158
C4    C     C_R   0.771953 0.453604 0.146958 0.534743
C5    C     C_R   0.691626 0.450501 0.040806 -0.139236
C6    C     C_R   0.310741 0.442779 0.957283 -0.147216
C7    C     C_R   0.191627 0.950502 0.040805 -0.138801
C8    C     C_R   0.810740 0.942780 0.957283 -0.147184
C9    C     C_R   0.747436 0.398610 0.079929 0.026305
C10   C     C_R   0.251452 0.398101 0.920299 0.025614
C11   C     C_R   0.247438 0.898613 0.079927 0.027168
C12   C     C_R   0.751453 0.898100 0.920298 0.025521
C13   C     C_R   0.787053 0.304788 0.049443 -0.115455
C14   C     C_R   0.207605 0.311812 0.953050 -0.118674
C15   C     C_R   0.287057 0.804794 0.049441 -0.114996
C16   C     C_R   0.707608 0.811806 0.953049 -0.118751
C17   C     C_R   0.778062 0.276110 0.978187 -0.125955
C18   C     C_R   0.217381 0.282655 0.023990 -0.124631
C19   C     C_R   0.278064 0.776114 0.978186 -0.125947
C20   C     C_R   0.717383 0.782651 0.023989 -0.124767
C21   C     C_R   0.727809 0.337809 0.936632 0.022883
C22   C     C_R   0.271968 0.336874 0.063436 0.018962
C23   C     C_R   0.227809 0.837810 0.936631 0.022845
C24   C     C_R   0.771968 0.836874 0.063436 0.018538
C25   C     C_R   0.460966 0.266767 0.550702 0.134258
C26   C     C_R   0.461121 0.279466 0.477850 0.086633
C27   C     C_R   0.953851 0.771897 0.555050 0.137128
C28   C     C_R   0.945973 0.782559 0.482112 0.080611
C29   C     C_R   0.478155 0.176311 0.434682 0.011549
C30   C     C_R   0.490132 0.162018 0.580750 0.036806
C31   C     C_R   0.954123 0.677268 0.438829 0.009387
C32   C     C_R   0.984506 0.665701 0.583197 0.036611
C33   C     C_R   0.497095 0.065590 0.466388 -0.186694
C34   C     C_R   0.503899 0.058605 0.539304 -0.185802
C35   C     C_R   0.975694 0.566695 0.469703 -0.177715
C36   C     C_R   0.991758 0.561220 0.541363 -0.187552
C37   C     C_R   0.815521 0.411816 0.546273 -0.128899
C38   C     C_R   0.227834 0.292969 0.474534 -0.136372
C39   C     C_R   0.315650 0.919879 0.547297 -0.130429
C40   C     C_R   0.731787 0.790605 0.475048 -0.138258
C41   C     C_R   0.821285 0.415393 0.473233 -0.140834
C42   C     C_R   0.223242 0.315139 0.546597 -0.157723
C43   C     C_R   0.322482 0.928273 0.474388 -0.140701
C44   C     C_R   0.726839 0.813048 0.547149 -0.157000
C45   C     C_R   0.527519 0.176688 0.848774 0.544242
C46   C     C_R   0.443527 0.180898 0.141374 0.539544
C47   C     C_R   0.027516 0.676689 0.848772 0.543887
C48   C     C_R   0.943508 0.680901 0.141374 0.542349
C49   C     C_R   0.761817 0.434225 0.429524 0.068262
C50   C     C_R   0.244964 0.428071 0.573260 0.021413
C51   C     C_R   0.262664 0.937423 0.429903 0.070041
C52   C     C_R   0.744371 0.928557 0.573059 0.022522
C53   C     C_R   0.695390 0.447750 0.460205 0.067869
C54   C     C_R   0.273614 0.517350 0.526211 0.068097
C55   C     C_R   0.195359 0.942745 0.459589 0.066420
C56   C     C_R   0.768112 0.020624 0.525198 0.073538
C57   C     C_R   0.689296 0.439903 0.534003 -0.137995
C58   C     C_R   0.277808 0.494029 0.454612 -0.087813
C59   C     C_R   0.188676 0.933704 0.533185 -0.139499
C60   C     C_R   0.772322 0.997429 0.453604 -0.084898
C61   C     C_R   0.749174 0.417933 0.576984 0.000425
C62   C     C_R   0.254143 0.383663 0.428791 -0.003532
C63   C     C_R   0.248669 0.917470 0.576865 -0.001533
C64   C     C_R   0.753774 0.883785 0.428630 -0.005111
C65   C     C_R   0.724191 0.312915 0.860062 0.562375
C66   C     C_R   0.275860 0.312617 0.140056 0.545697
C67   C     C_R   0.224191 0.812914 0.860062 0.562264
C68   C     C_R   0.775860 0.812617 0.140056 0.546958
C69   C     C_R   0.726825 0.958744 0.646063 0.542018
C70   C     C_R   0.274258 0.959741 0.354630 0.574777
C71   C     C_R   0.226764 0.459169 0.645943 0.546340
C72   C     C_R   0.773882 0.458689 0.354367 0.563702
C73   C     C_R   0.526675 0.175043 0.647384 0.570898
C74   C     C_R   0.464228 0.178302 0.359006 0.561144
C75   C     C_R   0.026020 0.675737 0.647673 0.567900
C76   C     C_R   0.938070 0.681220 0.363019 0.559844
C77   C     C_R   0.739889 0.366705 0.647849 0.541392
C78   C     C_R   0.261821 0.356127 0.355108 0.549660
C79   C     C_R   0.239760 0.866332 0.647718 0.541347
C80   C     C_R   0.761668 0.856492 0.354958 0.540105
C81   C     C_2   0.486224 0.164741 0.913577 -0.127676
C82   C     C_2   0.466783 0.170609 0.067599 -0.131922
C83   C     C_2   0.986211 0.664747 0.913569 -0.127636
C84   C     C_2   0.966742 0.670617 0.067590 -0.132220
C85   C     C_2   0.466709 0.064347 0.030079 -0.061640
C86   C     C_2   0.485446 0.061558 0.953646 -0.055826
C87   C     C_2   0.966676 0.564354 0.030069 -0.061839
C88   C     C_2   0.985417 0.561564 0.953636 -0.055663
C89   C     C_R   0.681821 0.420393 0.969294 -0.133836
C90   C     C_R   0.321064 0.412158 0.028824 -0.146298
C91   C     C_R   0.181821 0.920392 0.969293 -0.133843
C92   C     C_R   0.821063 0.912162 0.028825 -0.146624
Cr1   Cr    Cr6+3 0.769270 0.163730 0.750710 1.014592
Cr2   Cr    Cr6+3 0.230730 0.163730 0.249290 1.040822
Cr3   Cr    Cr6+3 0.269270 0.663730 0.750710 1.015087
Cr4   Cr    Cr6+3 0.730730 0.663730 0.249290 1.034113
Cr5   Cr    Cr6+3 0.612620 0.009790 0.748780 1.039309
Cr6   Cr    Cr6+3 0.387380 0.009790 0.251220 1.044497
Cr7   Cr    Cr6+3 0.112620 0.509790 0.748780 1.040369
Cr8   Cr    Cr6+3 0.887380 0.509790 0.251220 1.043262
Cr9   Cr    Cr6+3 0.614160 0.322500 0.747710 1.026795
Cr10  Cr    Cr6+3 0.385840 0.322500 0.252290 1.018832
Cr11  Cr    Cr6+3 0.114160 0.822500 0.747710 1.028073
Cr12  Cr    Cr6+3 0.885840 0.822500 0.252290 1.016959
H1    H     H_    0.872788 0.402626 0.450861 0.137340
H2    H     H_    0.201015 0.245756 0.581074 0.133724
H3    H     H_    0.375014 0.927374 0.452733 0.143453
H4    H     H_    0.707960 0.741629 0.582267 0.131235
H5    H     H_    0.637121 0.442206 0.556784 0.142878
H6    H     H_    0.298472 0.563117 0.418837 0.149090
H7    H     H_    0.136191 0.930271 0.555247 0.143453
H8    H     H_    0.789454 0.068620 0.417295 0.145775
H9    H     H_    0.481802 0.256358 0.043106 0.096419
H10   H     H_    0.463461 0.248927 0.932737 0.095851
H11   H     H_    0.981748 0.756370 0.043096 0.096351
H12   H     H_    0.963451 0.748939 0.932726 0.095911
H13   H     H_    0.640487 0.465585 0.939124 0.140042
H14   H     H_    0.365329 0.451458 0.057541 0.136770
H15   H     H_    0.140486 0.965583 0.939123 0.140083
H16   H     H_    0.865326 0.951464 0.057542 0.136742
H17   H     H_    0.657928 0.518405 0.064339 0.126403
H18   H     H_    0.346806 0.505960 0.932184 0.126758
H19   H     H_    0.157929 0.018406 0.064337 0.126586
H20   H     H_    0.846806 0.005964 0.932184 0.126865
H21   H     H_    0.827795 0.258068 0.079506 0.162329
H22   H     H_    0.162649 0.272651 0.925386 0.158518
H23   H     H_    0.327801 0.758078 0.079503 0.162403
H24   H     H_    0.662654 0.772640 0.925383 0.158502
H25   H     H_    0.812303 0.208820 0.954878 0.133079
H26   H     H_    0.179857 0.222132 0.048876 0.133313
H27   H     H_    0.312306 0.708825 0.954876 0.133047
H28   H     H_    0.679860 0.722126 0.048874 0.133338
H29   H     H_    0.508715 0.985751 0.434709 0.141317
H30   H     H_    0.525174 0.975564 0.562489 0.150493
H31   H     H_    0.984333 0.485958 0.437889 0.145800
H32   H     H_    0.014746 0.478069 0.562642 0.145534
H33   H     H_    0.862138 0.393185 0.578224 0.139322
H34   H     H_    0.210995 0.204924 0.454420 0.149608
H35   H     H_    0.362363 0.907018 0.580074 0.139494
H36   H     H_    0.718614 0.700588 0.455333 0.148509
O1    O     O_R   0.784320 0.290430 0.830510 -0.505002
O2    O     O_R   0.215680 0.290430 0.169490 -0.497647
O3    O     O_R   0.284320 0.790430 0.830510 -0.505134
O4    O     O_R   0.715680 0.790430 0.169490 -0.497609
O5    O     O_R   0.554640 0.080370 0.673500 -0.517798
O6    O     O_R   0.445360 0.080370 0.326500 -0.500385
O7    O     O_R   0.054640 0.580370 0.673500 -0.515093
O8    O     O_R   0.945360 0.580370 0.326500 -0.493839
O9    O     O_R   0.543920 0.282180 0.666790 -0.489978
O10   O     O_R   0.456080 0.282180 0.333210 -0.521907
O11   O     O_R   0.043920 0.782180 0.666790 -0.489474
O12   O     O_R   0.956080 0.782180 0.333210 -0.509594
O13   O     O_R   0.679040 0.374160 0.674430 -0.502915
O14   O     O_R   0.320960 0.374160 0.325570 -0.520045
O15   O     O_R   0.179040 0.874160 0.674430 -0.502264
O16   O     O_R   0.820960 0.874160 0.325570 -0.532418
O17   O     O_3   0.665350 0.165340 0.749070 -0.274266
O18   O     O_3   0.334650 0.165340 0.250930 -0.301165
O19   O     O_3   0.165350 0.665340 0.749070 -0.274301
O20   O     O_3   0.834650 0.665340 0.250930 -0.316967
O21   O     O_R   0.762640 0.040960 0.825200 -0.520262
O22   O     O_R   0.237360 0.040960 0.174800 -0.522983
O23   O     O_R   0.262640 0.540960 0.825200 -0.520564
O24   O     O_R   0.737360 0.540960 0.174800 -0.521941
O25   O     O_R   0.667400 0.923970 0.829950 -0.501970
O26   O     O_R   0.332600 0.923970 0.170050 -0.503817
O27   O     O_R   0.167400 0.423970 0.829950 -0.502033
O28   O     O_R   0.832600 0.423970 0.170050 -0.503493
O29   O     O_R   0.553960 0.081340 0.821780 -0.482042
O30   O     O_R   0.446040 0.081340 0.178220 -0.468031
O31   O     O_R   0.053960 0.581340 0.821780 -0.482357
O32   O     O_R   0.946040 0.581340 0.178220 -0.462576
O33   O     O_R   0.543180 0.283240 0.826740 -0.521726
O34   O     O_R   0.456820 0.283240 0.173260 -0.507689
O35   O     O_R   0.043180 0.783240 0.826740 -0.521454
O36   O     O_R   0.956820 0.783240 0.173260 -0.502901
O37   O     O_R   0.678360 0.375140 0.822710 -0.500899
O38   O     O_R   0.321640 0.375140 0.177290 -0.503668
O39   O     O_R   0.178360 0.875140 0.822710 -0.500768
O40   O     O_R   0.821640 0.875140 0.177290 -0.503760
O41   O     O_R   0.785050 0.289380 0.670560 -0.527622
O42   O     O_R   0.214950 0.289380 0.329440 -0.502136
O43   O     O_R   0.285050 0.789380 0.670560 -0.526381
O44   O     O_R   0.714950 0.789380 0.329440 -0.500854
O45   O     O_R   0.763320 0.039990 0.676930 -0.511258
O46   O     O_R   0.236680 0.039990 0.323070 -0.470602
O47   O     O_R   0.263320 0.539990 0.676930 -0.510864
O48   O     O_R   0.736680 0.539990 0.323070 -0.469833
O49   O     O_R   0.668130 0.922920 0.670000 -0.514496
O50   O     O_R   0.331870 0.922920 0.330000 -0.530578
O51   O     O_R   0.168130 0.422920 0.670000 -0.514491
O52   O     O_R   0.831870 0.422920 0.330000 -0.538387
C93   C     C_1   0.458735 0.946119 0.064790 0.264918
N1    N     N_1   0.454334 0.851280 0.091861 -0.290617
C94   C     C_1   0.504528 0.943438 0.923975 0.259425
N2    N     N_1   0.519272 0.849228 0.900711 -0.297129
C95   C     C_1   0.958713 0.446126 0.064783 0.265252
N3    N     N_1   0.954320 0.351285 0.091854 -0.289715
C96   C     C_1   0.004495 0.443442 0.923964 0.259435
N4    N     N_1   0.019235 0.349231 0.900700 -0.297044
N5    N     N_3   0.633898 0.461738 0.416431 -0.609778
H37   H     H_    0.602568 0.384368 0.424332 0.234311
H38   H     H_    0.606339 0.538360 0.433908 0.226060
N6    N     N_3   0.292257 0.637276 0.547609 -0.618032
H39   H     H_    0.333051 0.632517 0.585221 0.270536
H40   H     H_    0.246493 0.674860 0.568047 0.262038
N7    N     N_3   0.133910 0.951503 0.415115 -0.606417
H41   H     H_    0.103089 0.873780 0.424186 0.239720
H42   H     H_    0.105300 0.028075 0.430933 0.224182
N8    N     N_3   0.782248 0.142270 0.546223 -0.619663
H43   H     H_    0.825087 0.141692 0.581515 0.271200
H44   H     H_    0.736202 0.173898 0.569418 0.259263
N9    N     N_3   0.436949 0.364742 0.594983 -0.593559
H45   H     H_    0.466528 0.443348 0.584179 0.256625
H46   H     H_    0.384443 0.382211 0.581952 0.244048
N10   N     N_3   0.445632 0.399350 0.450867 -0.648226
H47   H     H_    0.399099 0.396740 0.421946 0.278428
H48   H     H_    0.486824 0.432052 0.419849 0.251409
N11   N     N_3   0.937678 0.873657 0.600159 -0.589353
H49   H     H_    0.968630 0.948615 0.585395 0.254696
H50   H     H_    0.884895 0.896533 0.592224 0.242880
N12   N     N_3   0.937787 0.903892 0.454359 -0.649098
H51   H     H_    0.894387 0.907412 0.421173 0.271601
H52   H     H_    0.982678 0.928450 0.426104 0.250943

loop_
_geom_bond_atom_site_label_1
_geom_bond_atom_site_label_2
_ccdc_geom_bond_type
C80   O44   A    
C58   C62   A    
C87   C88   S    
C49   C53   A    
C27   N11   S    
Cr7   O19   S    
Cr8   O32   S    
N5    H38   S    
N5    H37   S    
C14   C18   A    
Cr9   O33   S    
C35   C36   A    
C84   C87   D    
Cr6   O50   S    
Cr3   O43   S    
Cr10  O18   S    
C32   C75   S    
C71   O47   A    
N6    H40   S    
C3    O27   A    
Cr12  O36   S    
C21   C89   A    
N9    H45   S    
C91   H15   S    
C7    C11   A    
C66   O38   A    
C50   C54   A    
C41   H1    S    
Cr3   O19   S    
C32   C36   A    
C88   C96   S    
N10   H48   S    
C33   H29   S    
C38   C42   A    
C55   C59   A    
C54   N6    S    
C37   H33   S    
Cr7   O31   S    
C4    O24   A    
C76   O12   A    
C90   H14   S    
C5    H17   S    
Cr5   O29   S    
C26   N10   S    
C23   C67   S    
C57   C61   A    
C9    C13   A    
C72   O48   A    
C52   C69   S    
Cr9   O9    S    
C77   O13   A    
C48   O32   A    
C11   C15   A    
N8    H43   S    
C22   C66   S    
C12   C16   A    
C29   C33   A    
C61   C77   S    
C79   O15   A    
C49   C72   S    
C81   H10   S    
C59   H7    S    
C46   O34   A    
C8    C92   A    
C51   C70   S    
C47   C83   S    
C8    C12   A    
C2    O26   A    
Cr11  O39   S    
C81   C86   D    
Cr11  O11   S    
C21   C65   S    
C44   C52   A    
Cr5   O49   S    
C83   C88   D    
C67   O3    A    
C96   N4    T    
Cr2   O18   S    
C46   C82   S    
C47   O31   A    
C64   C80   S    
Cr10  O38   S    
C2    O22   A    
C53   N5    S    
Cr8   O52   S    
C1    C12   S    
Cr1   O41   S    
Cr12  O20   S    
C2    C11   S    
C36   H32   S    
C41   C49   A    
C62   C78   S    
C80   O16   A    
Cr7   O27   S    
C44   H4    S    
C19   H27   S    
C39   H35   S    
C30   C34   A    
Cr3   O47   S    
N7    H41   S    
Cr2   O2    S    
Cr6   O18   S    
N10   H47   S    
C10   C14   A    
C35   H31   S    
N11   H49   S    
C30   C73   S    
C53   C57   A    
C19   C23   A    
C8    H20   S    
C63   C79   S    
C29   C74   S    
Cr6   O6    S    
C75   O7    A    
C25   C26   A    
C85   C86   S    
C38   C62   A    
C17   H25   S    
C68   O40   A    
C17   C21   A    
Cr4   O24   S    
C73   O5    A    
C78   O42   A    
Cr5   O17   S    
C20   H28   S    
C15   C19   A    
C50   C71   S    
C5    C9    A    
C14   H22   S    
C60   H8    S    
C45   O33   A    
C86   C94   S    
N11   H50   S    
C65   O1    A    
C57   H5    S    
Cr8   O20   S    
C77   O41   A    
C95   N3    T    
C34   H30   S    
C1    O25   A    
C16   C20   A    
C7    C91   A    
Cr11  O35   S    
C33   C34   A    
C22   C90   A    
C43   H3    S    
Cr12  O16   S    
Cr1   O17   S    
C42   H2    S    
Cr8   O28   S    
Cr6   O26   S    
C46   O30   A    
C42   C50   A    
Cr11  O15   S    
Cr4   O20   S    
Cr10  O10   S    
Cr1   O21   S    
C89   H13   S    
C84   H11   S    
N8    H44   S    
Cr4   O44   S    
C24   C92   A    
C23   C91   A    
C18   H26   S    
C6    H18   S    
Cr9   O13   S    
C69   O49   A    
C69   O45   A    
C27   C28   A    
Cr1   O1    S    
C70   O50   A    
Cr11  O19   S    
C54   C58   A    
C25   C30   A    
Cr7   O7    S    
N12   H52   S    
C73   O9    A    
C27   C32   A    
C58   H6    S    
C4    O28   A    
Cr5   O5    S    
C83   H12   S    
C74   O6    A    
C28   C31   A    
C78   O14   A    
Cr3   O3    S    
Cr2   O46   S    
C82   H9    S    
C7    H19   S    
C16   H24   S    
C45   O29   A    
C6    C10   A    
C37   C61   A    
C45   C81   S    
C66   O2    A    
C3    O23   A    
Cr10  O34   S    
C82   C85   D    
C39   C63   A    
C59   C63   A    
C40   C64   A    
C13   C17   A    
Cr3   O23   S    
C60   C64   A    
Cr12  O12   S    
C18   C22   A    
C92   H16   S    
N9    H46   S    
C13   H21   S    
C55   N7    S    
C3    C10   S    
C6    C90   A    
Cr10  O14   S    
C72   O52   A    
Cr7   O51   S    
C43   C51   A    
C31   C76   S    
Cr12  O40   S    
C65   O37   A    
Cr8   O8    S    
Cr5   O25   S    
C40   H36   S    
C31   C35   A    
C25   N9    S    
C79   O43   A    
C56   N8    S    
C68   O4    A    
C51   C55   A    
C85   C93   S    
C37   C41   A    
N12   H51   S    
C5    C89   A    
C67   O39   A    
Cr9   O37   S    
C24   C68   S    
C47   O35   A    
C1    O21   A    
C94   N2    T    
Cr6   O30   S    
C48   C84   S    
C40   C44   A    
C56   C60   A    
N6    H39   S    
C76   O8    A    
C26   C29   A    
C28   N12   S    
C93   N1    T    
C39   C43   A    
C75   O11   A    
N7    H42   S    
C87   C95   S    
C74   O10   A    
C15   H23   S    
C38   H34   S    
C71   O51   A    
C4    C9    S    
C70   O46   A    
Cr2   O42   S    
Cr4   O48   S    
C20   C24   A    
Cr9   O17   S    
Cr2   O22   S    
C52   C56   A    
C48   O36   A    
Cr4   O4    S    
Cr1   O45   S    
