data_mof_unit_1225.cif
_audit_creation_date              2012-12-10T18:42:35-0500
_audit_creation_method            fapswitch 2.2
_symmetry_space_group_name_H-M    P1
_symmetry_Int_Tables_number       1
_space_group_crystal_system       triclinic
_cell_length_a                    8.559495
_cell_length_b                    10.538833
_cell_length_c                    10.08265
_cell_angle_alpha                 90.962752
_cell_angle_beta                  97.993707
_cell_angle_gamma                 90.681593
_cell_volume                      900.468758235

loop_
_atom_site_label
_atom_site_type_symbol
_atom_type_description
_atom_site_fract_x
_atom_site_fract_y
_atom_site_fract_z
_atom_type_partial_charge
C1    C     C_R   0.499707 0.261341 0.498953 0.953199
C2    C     C_R   0.354856 0.063895 0.478172 -0.006098
C3    C     C_R   0.500098 0.871414 0.502984 0.027899
C4    C     C_R   0.499902 0.128586 0.497015 0.027887
C5    C     C_R   0.525326 0.609391 0.074489 0.362216
C6    C     C_R   0.474674 0.390609 0.925511 0.362214
C7    C     C_R   0.497074 0.610821 0.932104 0.206759
C8    C     C_R   0.502927 0.389179 0.067896 0.206761
C9    C     C_R   0.500293 0.738659 0.501046 0.953198
C10   C     C_R   0.202215 0.499775 0.464888 0.949092
C11   C     C_R   0.797785 0.500224 0.535112 0.949093
C12   C     C_2   0.036844 0.498909 0.446272 -0.296737
C13   C     C_2   0.963156 0.501091 0.553728 -0.296737
C14   C     C_R   0.645027 0.067667 0.518592 0.068894
C15   C     C_R   0.354973 0.932333 0.481406 0.068895
C16   C     C_R   0.645144 0.936105 0.521826 -0.006084
H1    H     H_    0.976198 0.496177 0.343999 0.223561
H2    H     H_    0.144363 0.110653 0.534421 0.208864
H3    H     H_    0.608752 0.923744 0.230141 0.404737
H4    H     H_    0.391248 0.076265 0.769837 0.404725
H5    H     H_    0.620800 0.810361 0.811888 0.371856
H6    H     H_    0.379199 0.189639 0.188111 0.371858
H7    H     H_    0.023802 0.503823 0.656000 0.223561
H8    H     H_    0.853583 0.119512 0.628865 0.220737
H9    H     H_    0.855359 0.114187 0.460476 0.206207
H10   H     H_    0.146417 0.880487 0.371134 0.220738
H11   H     H_    0.144640 0.885813 0.539523 0.206206
H12   H     H_    0.853734 0.895320 0.633882 0.212220
H13   H     H_    0.855636 0.889347 0.465576 0.208867
H14   H     H_    0.146266 0.104679 0.366115 0.212223
N1    N     N_R   0.499960 0.499970 0.857200 -0.221631
N2    N     N_R   0.500040 0.500030 0.142800 -0.221631
N3    N     N_3   0.789539 0.140529 0.536071 -0.436998
N4    N     N_3   0.210461 0.859471 0.463928 -0.436998
N5    N     N_3   0.789814 0.866934 0.542048 -0.452927
N6    N     N_3   0.210186 0.133066 0.457949 -0.452928
O1    O     O_R   0.499990 0.316750 0.614620 -0.550301
O2    O     O_2   0.743093 0.789768 0.049991 -0.279322
O3    O     O_3   0.532972 0.854739 0.197308 -0.457911
O4    O     O_2   0.256906 0.210232 0.950009 -0.279313
O5    O     O_2   0.242477 0.305045 0.732026 -0.309846
O6    O     O_3   0.467028 0.145259 0.802695 -0.457902
O7    O     O_2   0.270338 0.710153 0.751372 -0.285590
O8    O     O_2   0.313840 0.808519 0.972321 -0.184685
O9    O     O_3   0.520601 0.855099 0.816164 -0.481667
O10   O     O_2   0.686161 0.191481 0.027679 -0.184687
O11   O     O_2   0.729662 0.289847 0.248628 -0.285591
O12   O     O_R   0.500010 0.683250 0.385380 -0.550294
O13   O     O_3   0.479399 0.144902 0.183836 -0.481675
O14   O     O_R   0.499990 0.316780 0.385290 -0.592122
O15   O     O_R   0.500010 0.683220 0.614710 -0.592126
O16   O     O_R   0.271750 0.499990 0.587840 -0.544194
O17   O     O_R   0.728250 0.500010 0.412160 -0.544194
O18   O     O_R   0.271750 0.500010 0.358510 -0.627835
O19   O     O_R   0.728250 0.499990 0.641490 -0.627835
O20   O     O_2   0.757524 0.694953 0.267973 -0.309839
S1    S     S_3+6 0.645682 0.737505 0.150010 0.101228
S2    S     S_3+6 0.354318 0.262495 0.849990 0.101231
S3    S     S_3+6 0.395237 0.747066 0.865597 0.122855
S4    S     S_3+6 0.604763 0.252934 0.134403 0.122851
Zn1   Zn    Zn3+2 0.500000 0.499980 0.653120 1.087531
Zn2   Zn    Zn3+2 0.500000 0.500020 0.346880 1.087534

loop_
_geom_bond_atom_site_label_1
_geom_bond_atom_site_label_2
_ccdc_geom_bond_type
C12   H1    S    
O1    Zn1   S    
C3    C9    S    
H14   N6    S    
O7    S3    D    
O2    S1    D    
O17   Zn2   S    
N1    Zn1   S    
C15   N4    S    
H4    O6    S    
H8    N3    S    
C9    O15   A    
C5    S1    S    
C1    C4    S    
C10   O16   A    
O6    S2    S    
C14   N3    S    
C6    N1    A    
N2    Zn2   S    
C16   N5    S    
C8    S4    S    
C2    C15   A    
C11   C13   S    
H2    N6    S    
C11   O17   A    
O13   S4    S    
C10   C12   S    
H6    O13   S    
C10   O18   A    
C2    C4    A    
H3    O3    S    
C7    S3    S    
O5    S2    D    
H5    O9    S    
O16   Zn1   S    
H11   N4    S    
C4    C14   A    
O14   Zn2   S    
C14   C16   A    
O4    S2    D    
O8    S3    D    
O10   S4    D    
O3    S1    S    
O19   Zn1   S    
C11   O19   A    
C7    N1    A    
O20   S1    D    
C13   H7    S    
C9    O12   A    
C1    O14   A    
C2    N6    S    
C5    C7    A    
C8    N2    A    
C6    S2    S    
O9    S3    S    
C3    C15   A    
C6    C8    A    
O18   Zn2   S    
C12   C13   D    
O11   S4    D    
H13   N5    S    
O12   Zn2   S    
H10   N4    S    
C5    N2    A    
C3    C16   A    
H12   N5    S    
H9    N3    S    
C1    O1    A    
O15   Zn1   S    
