data_mof_unit_1356.cif
_audit_creation_date              2012-12-10T19:45:01-0500
_audit_creation_method            fapswitch 2.2
_symmetry_space_group_name_H-M    P1
_symmetry_Int_Tables_number       1
_space_group_crystal_system       triclinic
_cell_length_a                    15.094216
_cell_length_b                    10.808202
_cell_length_c                    13.689367
_cell_angle_alpha                 89.908894
_cell_angle_beta                  90.352758
_cell_angle_gamma                 89.406213
_cell_volume                      2233.13630474

loop_
_atom_site_label
_atom_site_type_symbol
_atom_type_description
_atom_site_fract_x
_atom_site_fract_y
_atom_site_fract_z
_atom_type_partial_charge
C1    C     C_R   0.497773 0.262214 0.499976 0.819163
C2    C     C_R   0.594959 0.876226 0.657350 0.133976
C3    C     C_R   0.431722 0.109306 0.245146 -0.163426
C4    C     C_R   0.568276 0.890697 0.754855 -0.163469
C5    C     C_R   0.386563 0.171973 0.170182 -0.149964
C6    C     C_R   0.613436 0.828032 0.829820 -0.149934
C7    C     C_R   0.314376 0.248946 0.191916 -0.093100
C8    C     C_R   0.685623 0.751058 0.808086 -0.093141
C9    C     C_R   0.461766 0.934084 0.423127 -0.199028
C10   C     C_R   0.538229 0.065915 0.576874 -0.198971
C11   C     C_R   0.504435 0.871647 0.500018 -0.087727
C12   C     C_R   0.502225 0.737786 0.500023 0.819083
C13   C     C_R   0.495561 0.128353 0.499982 -0.087721
C14   C     C_R   0.544291 0.937735 0.577323 -0.013997
C15   C     C_R   0.455705 0.062265 0.422678 -0.014002
C16   C     C_R   0.328705 0.503666 0.499554 0.835578
C17   C     C_R   0.671295 0.496332 0.500445 0.835673
C18   C     C_R   0.544453 0.408657 0.793775 0.019936
C19   C     C_R   0.455550 0.591345 0.206224 0.019903
C20   C     C_R   0.455404 0.591125 0.792917 0.031322
C21   C     C_R   0.544595 0.408874 0.207083 0.031337
C22   C     C_R   0.454722 0.593690 0.895957 -0.008874
C23   C     C_R   0.052856 0.366201 0.641036 -0.210857
C24   C     C_R   0.545278 0.406310 0.104043 -0.008888
C25   C     C_R   0.500030 0.500012 0.948185 0.085308
C26   C     C_R   0.499971 0.499989 0.051815 0.085336
C27   C     C_R   0.545286 0.406250 0.896837 -0.008755
C28   C     C_R   0.454716 0.593751 0.103163 -0.008762
C29   C     C_R   0.410037 0.687335 0.947774 -0.207032
C30   C     C_R   0.589964 0.312665 0.052226 -0.207053
C31   C     C_R   0.410076 0.687414 0.050451 -0.206024
C32   C     C_R   0.589926 0.312587 0.949549 -0.205927
C33   C     C_R   0.812219 0.559249 0.430214 -0.269659
C34   C     C_R   0.947143 0.633797 0.358970 -0.210830
C35   C     C_R   0.187780 0.440772 0.569803 -0.269633
C36   C     C_R   0.768019 0.491799 0.501637 -0.152413
C37   C     C_R   0.231979 0.508194 0.498363 -0.152444
C38   C     C_R   0.816065 0.425135 0.574119 -0.052338
C39   C     C_R   0.183930 0.574820 0.425863 -0.052312
C40   C     C_R   0.909635 0.428161 0.573598 0.027576
C41   C     C_R   0.090360 0.571817 0.426399 0.027578
C42   C     C_R   0.953357 0.498035 0.500938 0.058923
C43   C     C_R   0.046640 0.501966 0.499072 0.058927
C44   C     C_R   0.904078 0.563608 0.429687 0.117834
C45   C     C_R   0.286498 0.262250 0.288536 -0.089761
C46   C     C_R   0.095920 0.436402 0.570327 0.117832
C47   C     C_R   0.960951 0.361263 0.642396 -0.173293
C48   C     C_R   0.039048 0.638706 0.357595 -0.173273
C49   C     C_2   0.768802 0.350249 0.647987 0.827634
C50   C     C_2   0.231185 0.649606 0.351929 0.827653
C51   C     C_R   0.713499 0.737752 0.711466 -0.089823
C52   C     C_R   0.331264 0.199469 0.363695 -0.103718
C53   C     C_R   0.668733 0.800531 0.636306 -0.103663
C54   C     C_R   0.405038 0.123774 0.342651 0.133980
Cu1   Cu    Cu3+1 0.500010 0.499980 0.597420 0.968156
Cu2   Cu    Cu3+1 0.499990 0.500020 0.402580 0.968171
H1    H     H_    0.774569 0.611013 0.375782 0.157403
H2    H     H_    0.624837 0.239410 0.091091 0.139183
H3    H     H_    0.375280 0.760802 0.088581 0.135726
H4    H     H_    0.624722 0.239199 0.911419 0.135695
H5    H     H_    0.931045 0.303911 0.697624 0.177348
H6    H     H_    0.068959 0.696029 0.302350 0.177252
H7    H     H_    0.090417 0.314372 0.695362 0.145748
H8    H     H_    0.909583 0.685626 0.304644 0.145747
H9    H     H_    0.280033 0.298227 0.133884 0.139658
H10   H     H_    0.719966 0.701779 0.866118 0.139633
H11   H     H_    0.230517 0.321760 0.305298 0.146891
H12   H     H_    0.225430 0.389026 0.624246 0.157412
H13   H     H_    0.769480 0.678240 0.694703 0.146826
H14   H     H_    0.309387 0.211253 0.438354 0.099598
H15   H     H_    0.690609 0.788746 0.561647 0.099595
H16   H     H_    0.488452 0.051560 0.227490 0.121574
H17   H     H_    0.511547 0.948444 0.772512 0.121569
H18   H     H_    0.408090 0.161824 0.095316 0.138005
H19   H     H_    0.591910 0.838183 0.904685 0.138006
H20   H     H_    0.744975 0.318174 0.790534 0.318125
H21   H     H_    0.255046 0.681408 0.209350 0.318144
H22   H     H_    0.430215 0.882634 0.364766 0.180868
H23   H     H_    0.569777 0.117365 0.635238 0.180862
H24   H     H_    0.579077 0.337395 0.753306 0.148530
H25   H     H_    0.420929 0.662610 0.246694 0.148561
H26   H     H_    0.420434 0.662147 0.751799 0.134239
H27   H     H_    0.579565 0.337851 0.248201 0.134242
H28   H     H_    0.375162 0.760590 0.908909 0.139180
N1    N     N_R   0.499960 0.499900 0.743810 -0.186413
N2    N     N_R   0.500040 0.500100 0.256190 -0.186402
O1    O     O_R   0.500000 0.319630 0.582270 -0.588352
O2    O     O_R   0.779404 0.376494 0.747314 -0.779059
O3    O     O_2   0.279619 0.733390 0.378151 -0.627211
O4    O     O_R   0.220619 0.623158 0.252631 -0.779041
O5    O     O_R   0.500000 0.680370 0.417730 -0.588360
O6    O     O_R   0.499990 0.319660 0.417730 -0.582955
O7    O     O_R   0.500010 0.680340 0.582270 -0.582955
O8    O     O_R   0.370260 0.499960 0.582280 -0.588056
O9    O     O_R   0.629740 0.500040 0.417720 -0.588052
O10   O     O_R   0.370250 0.499990 0.417740 -0.566305
O11   O     O_R   0.629750 0.500010 0.582260 -0.566315
O12   O     O_2   0.720322 0.266558 0.621683 -0.627213

loop_
_geom_bond_atom_site_label_1
_geom_bond_atom_site_label_2
_ccdc_geom_bond_type
C1    O1    A    
C40   C47   A    
C38   C40   A    
Cu1   Cu2   S    
C8    H10   S    
C22   C29   A    
C20   H26   S    
Cu2   O9    S    
C12   O5    A    
Cu1   O7    S    
C19   N2    A    
C6    H19   S    
C39   C41   A    
C38   C49   S    
C7    C45   A    
C35   C37   A    
C24   C26   A    
C3    C54   A    
C33   C36   A    
C31   H3    S    
C5    H18   S    
C49   O12   D    
C48   H6    S    
C50   O4    S    
Cu2   O5    S    
C21   H27   S    
C22   C25   A    
C45   H11   S    
C17   O9    A    
C17   C36   S    
H20   O2    S    
C16   C37   S    
C40   C42   A    
C23   C46   A    
C41   C43   A    
C49   O2    S    
C42   C44   A    
Cu1   O8    S    
C52   C54   A    
H21   O4    S    
C16   O10   A    
C18   N1    A    
C23   C47   A    
C15   C54   S    
C34   C44   A    
C29   H28   S    
C4    C6    A    
C10   C14   A    
C5    C7    A    
C6    C8    A    
C45   C52   A    
C25   C26   A    
C2    C53   A    
C51   C53   A    
Cu1   N1    S    
C2    C4    A    
C7    H9    S    
C50   O3    D    
Cu2   N2    S    
C11   C12   S    
C20   N1    A    
Cu1   O11   S    
C34   H8    S    
C19   C28   A    
C9    C11   A    
C8    C51   A    
C4    H17   S    
C18   H24   S    
C20   C22   A    
C1    O6    A    
C13   C15   A    
C12   O7    A    
C1    C13   S    
C42   C43   A    
C32   H4    S    
C53   H15   S    
Cu2   O10   S    
C21   N2    A    
C33   H1    S    
C27   C32   A    
C33   C44   A    
C16   O8    A    
C28   C31   A    
C18   C27   A    
C3    C5    A    
C10   C13   A    
C47   H5    S    
C10   H23   S    
C25   C27   A    
C26   C28   A    
C36   C38   A    
C3    H16   S    
C9    C15   A    
C29   C31   A    
C30   C32   A    
C35   H12   S    
C30   H2    S    
C23   H7    S    
C11   C14   A    
C41   C48   A    
C9    H22   S    
Cu1   O1    S    
C2    C14   S    
C43   C46   A    
C24   C30   A    
C52   H14   S    
Cu2   O6    S    
C39   C50   S    
C34   C48   A    
C37   C39   A    
C21   C24   A    
C51   H13   S    
C19   H25   S    
C35   C46   A    
C17   O11   A    
