data_mof_unit_3515.cif
_audit_creation_date              2012-12-10T20:02:18-0500
_audit_creation_method            fapswitch 2.2
_symmetry_space_group_name_H-M    P1
_symmetry_Int_Tables_number       1
_space_group_crystal_system       triclinic
_cell_length_a                    10.669791
_cell_length_b                    14.979762
_cell_length_c                    14.297864
_cell_angle_alpha                 90.939784
_cell_angle_beta                  91.900377
_cell_angle_gamma                 90.284861
_cell_volume                      2283.64199357

loop_
_atom_site_label
_atom_site_type_symbol
_atom_type_description
_atom_site_fract_x
_atom_site_fract_y
_atom_site_fract_z
_atom_type_partial_charge
C1    C     C_R   0.495673 0.327857 0.499323 0.857317
C2    C     C_R   0.500873 0.671879 0.500788 0.847221
C3    C     C_R   0.872105 0.502513 0.504579 -0.135332
C4    C     C_R   0.127736 0.497558 0.494817 -0.134733
C5    C     C_R   0.937158 0.430932 0.545744 -0.075313
C6    C     C_R   0.062167 0.567569 0.450891 -0.077162
C7    C     C_R   0.472651 0.095237 0.583538 -0.200066
C8    C     C_R   0.543566 0.906840 0.431147 -0.189883
C9    C     C_R   0.477810 0.187154 0.583487 -0.189639
C10   C     C_R   0.553894 0.815034 0.432305 -0.200236
C11   C     C_R   0.480373 0.232052 0.498435 -0.025128
C12   C     C_R   0.496822 0.767434 0.502565 -0.004814
C13   C     C_R   0.466677 0.184903 0.413387 -0.208615
C14   C     C_R   0.429656 0.811088 0.571824 -0.210346
C15   C     C_R   0.457274 0.092835 0.413508 -0.189362
C16   C     C_R   0.415928 0.902592 0.569006 -0.204683
C17   C     C_R   0.464759 0.047572 0.498524 0.122593
C18   C     C_R   0.473107 0.950909 0.498764 0.109910
C19   C     C_R   0.389548 0.473465 0.103034 0.142889
C20   C     C_R   0.610002 0.525273 0.897337 0.142362
C21   C     C_R   0.402996 0.460053 0.200975 0.321388
C22   C     C_R   0.597744 0.538601 0.799296 0.315061
C23   C     C_R   0.260497 0.500480 0.498403 0.904464
C24   C     C_R   0.739420 0.499996 0.501495 0.911578
C25   C     C_R   0.586000 0.549492 0.208110 -0.042262
C26   C     C_R   0.412437 0.451665 0.791527 -0.048071
C27   C     C_R   0.584373 0.553086 0.109946 -0.342128
C28   C     C_R   0.413345 0.447994 0.889622 -0.342158
C29   C     C_R   0.493712 0.505460 0.053588 0.096919
C30   C     C_R   0.504686 0.494550 0.946368 0.099708
C31   C     C_R   0.226742 0.780057 0.381460 -0.122708
C32   C     C_R   0.778981 0.208485 0.582743 -0.129079
C33   C     C_R   0.174648 0.714066 0.436644 -0.177314
C34   C     C_R   0.829802 0.282084 0.538356 -0.181291
C35   C     C_R   0.127099 0.635133 0.394653 0.166099
C36   C     C_R   0.870165 0.357138 0.591285 0.156828
C37   C     C_R   0.132163 0.623150 0.297271 -0.117691
C38   C     C_R   0.857049 0.358479 0.688631 -0.104239
C39   C     C_R   0.188202 0.687891 0.242892 -0.139177
C40   C     C_R   0.803212 0.285663 0.732482 -0.141674
C41   C     C_R   0.235407 0.766413 0.285003 -0.103040
C42   C     C_R   0.765136 0.210407 0.679670 -0.117474
C43   C     C_R   0.932962 0.572336 0.459144 0.148087
C44   C     C_R   0.066885 0.427543 0.540020 0.142680
H1    H     H_    0.656414 0.586635 0.248908 0.146249
H2    H     H_    0.341406 0.415380 0.750462 0.149071
H3    H     H_    0.192963 0.677919 0.167951 0.130420
H4    H     H_    0.792935 0.286990 0.807547 0.128304
N1    N     N_R   0.500000 0.499980 0.252470 -0.104145
N2    N     N_R   0.500000 0.500020 0.747530 -0.105120
O1    O     O_R   0.500010 0.369070 0.579480 -0.615956
O2    O     O_R   0.499990 0.630930 0.420520 -0.609085
O3    O     O_R   0.500010 0.369060 0.420520 -0.639319
O4    O     O_R   0.499990 0.630940 0.579480 -0.638774
O5    O     O_R   0.316760 0.500010 0.579480 -0.617813
O6    O     O_R   0.683240 0.499990 0.420520 -0.615171
O7    O     O_R   0.316760 0.500000 0.420520 -0.616826
O8    O     O_R   0.683240 0.500000 0.579480 -0.620048
Zn1   Zn    Zn3+2 0.500000 0.500010 0.606140 0.938666
Zn2   Zn    Zn3+2 0.500000 0.499990 0.393860 0.943597
H5    H     H_    0.277082 0.817235 0.242777 0.121055
H6    H     H_    0.724857 0.153574 0.713789 0.123648
H7    H     H_    0.447168 0.057009 0.347256 0.126081
H8    H     H_    0.359429 0.935233 0.620839 0.133317
C45   C     C_3   0.257260 0.474801 0.060854 -0.975783
H9    H     H_    0.249799 0.518181 0.998817 0.253314
H10   H     H_    0.223638 0.406054 0.043669 0.240867
H11   H     H_    0.192157 0.505057 0.111221 0.244216
C46   C     C_3   0.741834 0.522624 0.940271 -0.973657
H12   H     H_    0.777192 0.591095 0.956676 0.240722
H13   H     H_    0.747531 0.480195 0.003091 0.254010
H14   H     H_    0.806440 0.490591 0.890641 0.244697
C47   C     C_3   0.305899 0.403548 0.246834 -0.850658
H15   H     H_    0.343963 0.368780 0.308062 0.267156
H16   H     H_    0.224770 0.444437 0.266680 0.238211
H17   H     H_    0.271633 0.349619 0.198142 0.206439
C48   C     C_3   0.696891 0.593137 0.753404 -0.839812
H18   H     H_    0.659702 0.628082 0.691778 0.272526
H19   H     H_    0.732578 0.646850 0.801811 0.207883
H20   H     H_    0.776872 0.550528 0.734259 0.234571
H21   H     H_    0.652117 0.596596 0.080082 0.176887
H22   H     H_    0.344640 0.404964 0.918890 0.176901
H23   H     H_    0.259949 0.842070 0.413223 0.153164
H24   H     H_    0.749903 0.150036 0.541948 0.147729
H25   H     H_    0.168564 0.725224 0.511374 0.122220
H26   H     H_    0.840909 0.279768 0.463338 0.129571
H27   H     H_    0.090744 0.564442 0.263489 0.109297
H28   H     H_    0.890807 0.414965 0.730527 0.109026
C49   C     C_3   0.862723 0.652870 0.420925 -0.888170
H29   H     H_    0.908877 0.715413 0.447088 0.236883
H30   H     H_    0.862593 0.651246 0.343275 0.236352
H31   H     H_    0.764627 0.657162 0.443279 0.226855
C50   C     C_3   0.137305 0.347228 0.578810 -0.872100
H32   H     H_    0.094652 0.284491 0.549918 0.238840
H33   H     H_    0.236934 0.344560 0.560048 0.231690
H34   H     H_    0.132646 0.347306 0.656257 0.234542
H35   H     H_    0.480169 0.061720 0.649989 0.128220
H36   H     H_    0.591606 0.943226 0.378066 0.130153
H37   H     H_    0.485640 0.222572 0.650107 0.164319
H38   H     H_    0.606777 0.781297 0.378951 0.146509
H39   H     H_    0.464744 0.218773 0.347015 0.154586
H40   H     H_    0.383607 0.774133 0.625555 0.152191

loop_
_geom_bond_atom_site_label_1
_geom_bond_atom_site_label_2
_ccdc_geom_bond_type
C50   H32   S    
O5    Zn1   S    
C27   C29   A    
C47   H15   S    
C1    C11   S    
C41   H5    S    
C24   O6    A    
C2    C12   S    
C21   N1    A    
C39   C41   A    
C20   C30   A    
C48   H18   S    
C3    C43   A    
C43   C49   S    
N1    Zn2   S    
N2    Zn1   S    
C35   C37   A    
C26   N2    A    
C14   H40   S    
C5    C36   S    
C21   C47   S    
C31   H23   S    
C6    C35   S    
C40   H4    S    
C34   H26   S    
C46   H13   S    
C33   H25   S    
C8    H36   S    
C44   C50   S    
O2    Zn2   S    
C7    C17   A    
C31   C33   A    
C49   H30   S    
C7    H35   S    
C42   H6    S    
C22   N2    A    
C40   C42   A    
C50   H33   S    
C1    O3    A    
C47   H16   S    
C3    C24   S    
C10   C12   A    
O3    Zn2   S    
O4    Zn1   S    
C48   H19   S    
C32   H24   S    
C28   H22   S    
C27   H21   S    
C4    C6    A    
C2    O4    A    
C4    C23   S    
O7    Zn2   S    
C4    C44   A    
C45   H10   S    
O8    Zn1   S    
C8    C18   A    
O6    Zn2   S    
C38   H28   S    
C32   C34   A    
C46   H14   S    
C29   C30   S    
C1    O1    A    
C45   H11   S    
C17   C18   S    
C16   C18   A    
C49   H31   S    
C10   H38   S    
C9    C11   A    
C2    O2    A    
C8    C10   A    
C5    C44   A    
C12   C14   A    
C50   H34   S    
C6    C43   A    
C13   C15   A    
C47   H17   S    
C14   C16   A    
C20   C46   S    
O1    Zn1   S    
C13   H39   S    
C19   C29   A    
C25   H1    S    
C39   H3    S    
C48   H20   S    
C23   O7    A    
C15   H7    S    
C31   C41   A    
C19   C21   A    
C37   H27   S    
C22   C48   S    
C20   C22   A    
C3    C5    A    
C23   O5    A    
C25   C27   A    
C9    H37   S    
C26   C28   A    
C28   C30   A    
C37   C39   A    
C38   C40   A    
C11   C13   A    
C36   C38   A    
C33   C35   A    
C19   C45   S    
C34   C36   A    
C46   H12   S    
C25   N1    A    
C26   H2    S    
C7    C9    A    
C24   O8    A    
C45   H9    S    
C32   C42   A    
C16   H8    S    
C49   H29   S    
C15   C17   A    
