data_mof_unit_4166.cif
_audit_creation_date              2012-12-10T17:16:15-0500
_audit_creation_method            fapswitch 2.2
_symmetry_space_group_name_H-M    P1
_symmetry_Int_Tables_number       1
_space_group_crystal_system       triclinic
_cell_length_a                    19.358254
_cell_length_b                    13.011926
_cell_length_c                    11.649079
_cell_angle_alpha                 99.8422
_cell_angle_beta                  93.28162
_cell_angle_gamma                 90.854517
_cell_volume                      2885.42875882

loop_
_atom_site_label
_atom_site_type_symbol
_atom_type_description
_atom_site_fract_x
_atom_site_fract_y
_atom_site_fract_z
_atom_type_partial_charge
C1    C     C_R   0.499689 0.299121 0.478559 0.801149
C2    C     C_R   0.500881 0.700906 0.521424 0.829809
C3    C     C_R   0.500723 0.814195 0.534038 -0.107091
C4    C     C_R   0.501211 0.185921 0.466016 -0.105234
C5    C     C_R   0.511056 0.016409 0.344409 0.196728
C6    C     C_R   0.492312 0.983868 0.655947 0.187082
C7    C     C_R   0.508784 0.124789 0.356731 -0.206988
C8    C     C_R   0.493919 0.875460 0.643494 -0.184409
C9    C     C_R   0.495912 0.139367 0.564485 -0.264973
C10   C     C_R   0.506730 0.860745 0.435682 -0.268206
C11   C     C_R   0.497840 0.031234 0.555830 0.111910
C12   C     C_R   0.505357 0.968963 0.444451 0.115904
C13   C     C_R   0.437765 0.397030 0.021924 -0.345108
C14   C     C_R   0.562500 0.602665 0.978041 -0.339136
C15   C     C_R   0.443275 0.407674 0.144256 0.086246
C16   C     C_R   0.556635 0.592464 0.855746 0.088875
C17   C     C_R   0.526683 0.544996 0.157028 0.043991
C18   C     C_R   0.473863 0.454294 0.842936 -0.006326
C19   C     C_R   0.522721 0.537333 0.034149 0.066653
C20   C     C_R   0.477709 0.462136 0.965815 0.068655
C21   C     C_R   0.367534 0.501436 0.501192 0.855813
C22   C     C_R   0.632453 0.497993 0.498782 0.824595
C23   C     C_R   0.259574 0.567535 0.595734 0.355212
C24   C     C_R   0.739460 0.449312 0.392361 0.365785
C25   C     C_R   0.187556 0.579703 0.587062 0.395201
C26   C     C_R   0.811198 0.461054 0.385412 0.392539
C27   C     C_R   0.146678 0.516849 0.495883 -0.112715
C28   C     C_R   0.853104 0.503416 0.486843 -0.113211
C29   C     C_R   0.179773 0.452713 0.407182 -0.222427
C30   C     C_R   0.821104 0.541228 0.590539 -0.224848
C31   C     C_R   0.251483 0.448932 0.409647 -0.263697
C32   C     C_R   0.749546 0.537977 0.594191 -0.258128
C33   C     C_R   0.291904 0.505276 0.503503 -0.193262
C34   C     C_R   0.708083 0.494127 0.495229 -0.202230
C35   C     C_R   0.929634 0.507942 0.487775 0.434588
C36   C     C_R   0.070131 0.515397 0.492636 0.431123
Cu1   Cu    Cu3+1 0.505120 0.507730 0.615930 0.935613
Cu2   Cu    Cu3+1 0.494880 0.492270 0.384070 0.941542
H1    H     H_    0.402534 0.338484 0.971778 0.137249
H2    H     H_    0.597717 0.661259 0.028166 0.138248
H3    H     H_    0.150275 0.405005 0.335131 0.186002
H4    H     H_    0.851326 0.574676 0.669534 0.186113
H5    H     H_    0.275489 0.400106 0.338784 0.172023
H6    H     H_    0.726574 0.571135 0.674478 0.178209
H7    H     H_    0.512506 0.811584 0.352176 0.173736
H8    H     H_    0.489907 0.188444 0.647957 0.175001
H9    H     H_    0.489183 0.838569 0.719445 0.162329
H10   H     H_    0.513418 0.161740 0.280806 0.153286
H11   H     H_    0.439270 0.396941 0.789436 0.113600
H12   H     H_    0.561424 0.602133 0.210536 0.118436
H13   H     H_    0.587310 0.643302 0.813187 0.121625
H14   H     H_    0.412358 0.357157 0.186839 0.123607
N1    N     N_R   0.032384 0.465110 0.397188 -0.255177
N2    N     N_R   0.967446 0.557512 0.583510 -0.256163
N3    N     N_R   0.963633 0.461298 0.394958 -0.197126
N4    N     N_R   0.036174 0.560831 0.586015 -0.195874
N5    N     N_R   0.512830 0.519350 0.790130 -0.180868
N6    N     N_R   0.487170 0.480650 0.209870 -0.181380
O1    O     O_R   0.503640 0.354460 0.582000 -0.588704
O2    O     O_R   0.496360 0.645540 0.418000 -0.592807
O3    O     O_R   0.494980 0.341410 0.386200 -0.604006
O4    O     O_R   0.505020 0.658590 0.613800 -0.590672
O5    O     O_R   0.404470 0.506520 0.597930 -0.577732
O6    O     O_R   0.595530 0.493480 0.402070 -0.553418
O7    O     O_R   0.395820 0.493460 0.402130 -0.584865
O8    O     O_R   0.604180 0.506540 0.597870 -0.587919
O9    O     O_3   0.298537 0.627833 0.686937 -0.613120
C37   C     C_3   0.310782 0.571133 0.779428 0.110454
H15   H     H_    0.364361 0.591540 0.816319 0.181377
H16   H     H_    0.308252 0.484545 0.751340 0.109693
C38   C     C_3   0.261169 0.603247 0.876199 -0.337683
H17   H     H_    0.260488 0.689759 0.898473 0.235391
H18   H     H_    0.208088 0.573536 0.845506 0.250350
C39   C     C_3   0.282968 0.558993 0.985661 -0.929945
H19   H     H_    0.283758 0.472442 0.965487 0.254566
H20   H     H_    0.245584 0.582177 0.053668 0.266244
H21   H     H_    0.335232 0.589735 0.020645 0.265012
O10   O     O_3   0.700319 0.400638 0.294167 -0.605130
C40   C     C_3   0.676689 0.300724 0.310047 0.100502
H22   H     H_    0.626348 0.283812 0.258955 0.172990
H23   H     H_    0.666512 0.295817 0.402320 0.104505
C41   C     C_3   0.727797 0.217293 0.263669 -0.334889
H24   H     H_    0.738372 0.223553 0.172291 0.238882
H25   H     H_    0.777308 0.229930 0.317856 0.233602
C42   C     C_3   0.699029 0.107987 0.266743 -0.928817
H26   H     H_    0.687812 0.100018 0.357334 0.264732
H27   H     H_    0.737597 0.049218 0.234741 0.261465
H28   H     H_    0.650754 0.092264 0.209699 0.260442
O11   O     O_3   0.157915 0.651186 0.670864 -0.604625
C43   C     C_3   0.144230 0.744260 0.626654 0.081757
H29   H     H_    0.099538 0.780963 0.672029 0.179091
H30   H     H_    0.128479 0.730521 0.531450 0.117936
C44   C     C_3   0.206518 0.820577 0.652441 -0.325771
H31   H     H_    0.223472 0.830372 0.746554 0.239153
H32   H     H_    0.250051 0.789076 0.600133 0.236419
C45   C     C_3   0.188736 0.926925 0.621941 -0.931698
H33   H     H_    0.172273 0.919024 0.527847 0.259732
H34   H     H_    0.235046 0.979860 0.640419 0.262817
H35   H     H_    0.146499 0.962054 0.675146 0.259052
O12   O     O_3   0.839709 0.424741 0.280210 -0.593201
C46   C     C_3   0.849205 0.508394 0.218538 0.087710
H36   H     H_    0.894068 0.489541 0.163990 0.182652
H37   H     H_    0.862712 0.584340 0.276743 0.111879
C47   C     C_3   0.785316 0.519826 0.137911 -0.318587
H38   H     H_    0.769498 0.442352 0.086106 0.248372
H39   H     H_    0.741855 0.550159 0.191071 0.231721
C48   C     C_3   0.799726 0.595203 0.054650 -0.948670
H40   H     H_    0.815229 0.673460 0.104621 0.258385
H41   H     H_    0.752181 0.602772 0.998964 0.258942
H42   H     H_    0.841587 0.565651 0.997320 0.264226
C49   C     C_3   0.519564 0.953936 0.224447 -0.919335
H43   H     H_    0.523094 0.004690 0.157288 0.231243
H44   H     H_    0.567803 0.908855 0.225025 0.233415
H45   H     H_    0.474400 0.899731 0.198113 0.238955
C50   C     C_3   0.484437 0.046425 0.776098 -0.906547
H46   H     H_    0.481092 0.995713 0.843336 0.233728
H47   H     H_    0.529802 0.100351 0.801827 0.236650
H48   H     H_    0.436325 0.091848 0.776205 0.230198

loop_
_geom_bond_atom_site_label_1
_geom_bond_atom_site_label_2
_ccdc_geom_bond_type
C44   H31   S    
C27   C29   A    
C49   H43   S    
C16   H13   S    
C47   H39   S    
Cu1   O4    S    
C42   H26   S    
C46   H36   S    
C31   H5    S    
C24   C26   A    
C1    O1    A    
C2    O2    A    
C21   C33   S    
C50   H46   S    
C45   H35   S    
C23   O9    S    
C22   O8    A    
C36   N1    A    
C17   C19   A    
Cu2   N6    S    
C19   C20   A    
C28   C35   S    
C37   H15   S    
C50   H47   S    
C39   H21   S    
C45   H34   S    
C48   H40   S    
C31   C33   A    
C17   N6    A    
Cu2   O3    S    
C21   O7    A    
C42   H27   S    
C9    H8    S    
C46   H37   S    
Cu1   O8    S    
C35   N2    A    
C48   H41   S    
C4    C7    A    
C47   H38   S    
Cu1   O5    S    
Cu2   O6    S    
N1    N3    A    
C22   C34   S    
N2    N4    A    
C21   O5    A    
C39   H19   S    
C35   N3    A    
O9    C37   S    
C5    C12   A    
C3    C8    A    
C6    C11   A    
C38   H18   S    
O10   C40   S    
C6    C8    A    
C5    C49   S    
C23   C33   A    
C14   H2    S    
C24   C34   A    
C32   C34   A    
Cu1   Cu2   S    
C36   N4    A    
C38   C39   S    
C5    C7    A    
C18   N5    A    
C43   H30   S    
Cu2   O7    S    
C50   H48   S    
C45   H33   S    
C10   H7    S    
C32   H6    S    
C49   H44   S    
C15   H14   S    
C9    C11   A    
Cu1   O1    S    
C10   C12   A    
Cu2   O2    S    
C24   O10   S    
C44   C45   S    
C41   H25   S    
C13   C15   A    
C15   N6    A    
C14   C16   A    
C39   H20   S    
C43   C44   S    
C40   H23   S    
C42   H28   S    
C13   C20   A    
C29   H3    S    
C25   O11   S    
C14   C19   A    
C1    O3    A    
C17   H12   S    
C40   C41   S    
C11   C12   A    
C27   C36   S    
C25   C27   A    
C41   C42   S    
C26   C28   A    
C1    C4    S    
C7    H10   S    
C28   C30   A    
C2    C3    S    
O11   C43   S    
C8    H9    S    
C38   H17   S    
C29   C31   A    
C3    C10   A    
C30   C32   A    
C43   H29   S    
C37   C38   S    
O12   C46   S    
C48   H42   S    
C49   H45   S    
C18   C20   A    
C16   N5    A    
C23   C25   A    
C6    C50   S    
C13   H1    S    
C22   O6    A    
C40   H22   S    
C44   H32   S    
C41   H24   S    
C37   H16   S    
C30   H4    S    
C46   C47   S    
C4    C9    A    
C47   C48   S    
Cu1   N5    S    
C2    O4    A    
C18   H11   S    
C26   O12   S    
