data_mof_unit_889.cif
_audit_creation_date              2012-12-11T18:22:22-0500
_audit_creation_method            fapswitch 2.2
_symmetry_space_group_name_H-M    P1
_symmetry_Int_Tables_number       1
_space_group_crystal_system       triclinic
_cell_length_a                    8.249359
_cell_length_b                    14.445539
_cell_length_c                    14.984937
_cell_angle_alpha                 96.601912
_cell_angle_beta                  97.35434
_cell_angle_gamma                 91.772787
_cell_volume                      1757.37791579

loop_
_atom_site_label
_atom_site_type_symbol
_atom_type_description
_atom_site_fract_x
_atom_site_fract_y
_atom_site_fract_z
_atom_type_partial_charge
Ba1   Ba    Ba6+2 0.833400 0.543310 0.453520 1.688569
Ba2   Ba    Ba6+2 0.356420 0.456770 0.546480 1.755287
C1    C     C_3   0.583205 0.864429 0.149564 -0.234893
C2    C     C_R   0.918406 0.440382 0.924693 -0.016660
C3    C     C_R   0.049146 0.459744 0.112186 -0.028799
C4    C     C_3   0.045304 0.737767 0.200220 0.376918
C5    C     C_R   0.904454 0.406022 0.079526 -0.036740
C6    C     C_R   0.839384 0.397639 0.988161 -0.104302
C7    C     C_R   0.113378 0.473110 0.206374 0.041097
C8    C     C_R   0.261555 0.524591 0.232741 -0.289021
C9    C     C_R   0.083251 0.526682 0.797030 0.101726
C10   C     C_R   0.141983 0.544285 0.892641 -0.037075
C11   C     C_R   0.066217 0.493719 0.954611 0.028911
C12   C     C_3   0.520208 0.777708 0.185634 0.306224
C13   C     C_R   0.274394 0.607878 0.930545 -0.015161
C14   C     C_R   0.361610 0.593817 0.013789 -0.123551
C15   C     C_R   0.285152 0.549724 0.076793 -0.073170
C16   C     C_3   0.026478 0.765080 0.104579 -0.307933
C17   C     C_R   0.132620 0.501680 0.048175 0.012576
C18   C     C_R   0.351155 0.559034 0.169083 -0.021973
C19   C     C_R   0.952411 0.460812 0.769566 -0.173474
C20   C     C_R   0.707480 0.935576 0.539095 -0.012874
C21   C     C_R   0.512511 0.796087 0.493186 0.094058
C22   C     C_R   0.357799 0.762534 0.449461 -0.301624
C23   C     C_3   0.454377 0.330129 0.276922 0.358283
C24   C     C_R   0.241719 0.824686 0.419863 -0.015334
C25   C     C_R   0.283029 0.918429 0.425876 -0.021865
C26   C     C_R   0.445218 0.950990 0.452256 -0.009687
C27   C     C_R   0.557149 0.893374 0.495869 -0.029699
C28   C     C_3   0.199387 0.741934 0.637728 0.287317
C29   C     C_R   0.642535 0.084502 0.479487 -0.079022
C30   C     C_R   0.749566 0.029928 0.532907 -0.032107
C31   C     C_R   0.686446 0.182363 0.482868 0.020829
C32   C     C_R   0.835008 0.218970 0.532348 -0.293982
C33   C     C_R   0.946220 0.162483 0.574873 0.018495
C34   C     C_3   0.421494 0.306885 0.174264 -0.331593
C35   C     C_R   0.902070 0.068724 0.577093 -0.125838
C36   C     C_R   0.496806 0.037874 0.429682 0.410438
C37   C     C_3   0.180707 0.847752 0.652179 -0.201429
C38   C     C_3   0.965846 0.252497 0.342971 0.311374
C39   C     C_3   0.912674 0.151961 0.306910 -0.312836
C40   C     C_3   0.772651 0.759678 0.732580 0.747767
C41   C     C_3   0.795857 0.850170 0.797366 -0.296248
C42   C     C_2   0.329428 0.898847 0.705397 0.904618
C43   C     C_2   0.280796 0.706960 0.912494 0.955188
C44   C     C_3   0.166176 0.256788 0.799350 0.374187
C45   C     C_3   0.205665 0.229830 0.894651 -0.347897
C46   C     C_3   0.661710 0.208527 0.759477 0.335455
C47   C     C_3   0.731884 0.134501 0.815725 -0.398657
C48   C     C_R   0.855479 0.429936 0.831868 0.049964
H1    H     H_    0.503225 0.795274 0.258041 0.052685
H2    H     H_    0.688034 0.898534 0.197131 0.146898
H3    H     H_    0.825884 0.908980 0.759853 0.010615
H4    H     H_    0.894556 0.846154 0.853566 0.118425
H5    H     H_    0.682314 0.865259 0.827690 0.184801
H6    H     H_    0.401173 0.754413 0.144702 -0.027732
H7    H     H_    0.485135 0.914413 0.140651 0.145301
H8    H     H_    0.337202 0.342861 0.303847 0.010162
H9    H     H_    0.537103 0.393547 0.293233 0.036747
H10   H     H_    0.333389 0.245857 0.156167 0.153199
H11   H     H_    0.369959 0.366439 0.142019 0.035370
H12   H     H_    0.156267 0.874393 0.585608 -0.001579
H13   H     H_    0.537467 0.290034 0.146917 0.115891
H14   H     H_    0.623759 0.845227 0.082293 0.138628
H15   H     H_    0.100084 0.830358 0.102788 0.109660
H16   H     H_    0.238167 0.322288 0.795719 0.068573
H17   H     H_    0.033445 0.268714 0.787191 -0.102108
H18   H     H_    0.338665 0.219254 0.909770 0.151328
H19   H     H_    0.171476 0.286139 0.944785 0.056770
H20   H     H_    0.136346 0.164291 0.900920 0.116601
H21   H     H_    0.762207 0.236426 0.725769 -0.072972
H22   H     H_    0.565692 0.175367 0.705574 0.098859
H23   H     H_    0.073890 0.863987 0.688130 0.023515
H24   H     H_    0.789972 0.081333 0.772208 0.074594
H25   H     H_    0.633235 0.100080 0.845828 0.142331
H26   H     H_    0.974769 0.670632 0.198830 0.078896
H27   H     H_    0.825637 0.167153 0.871114 0.113365
H28   H     H_    0.839079 0.369418 0.123762 0.106389
H29   H     H_    0.727486 0.355533 0.967898 0.098269
H30   H     H_    0.475574 0.633378 0.034911 0.145157
H31   H     H_    0.313184 0.532634 0.303428 0.063113
H32   H     H_    0.911809 0.443109 0.697844 0.075184
H33   H     H_    0.322947 0.689186 0.445416 0.064306
H34   H     H_    0.862940 0.287047 0.371300 -0.012821
H35   H     H_    0.190114 0.965305 0.403547 0.122186
H36   H     H_    0.986968 0.026038 0.613466 0.074809
H37   H     H_    0.177161 0.728351 0.221886 -0.092813
H38   H     H_    0.867752 0.292510 0.535186 0.044620
H39   H     H_    0.792920 0.896405 0.578793 0.076258
H40   H     H_    0.069379 0.708693 0.057936 0.092261
H41   H     H_    0.896053 0.775726 0.081094 0.160052
H42   H     H_    0.317123 0.725722 0.613693 -0.012474
H43   H     H_    0.098385 0.712705 0.585230 0.048577
H44   H     H_    0.514608 0.993507 0.707741 0.295770
H45   H     H_    0.072918 0.254082 0.396257 0.071601
H46   H     H_    0.616574 0.560360 0.686385 0.386592
H47   H     H_    0.158239 0.818131 0.879440 0.321865
H48   H     H_    0.242035 0.987873 0.207823 0.353862
H49   H     H_    0.807202 0.152198 0.253443 0.169910
H50   H     H_    0.880844 0.112350 0.361683 0.074051
H51   H     H_    0.009885 0.115812 0.274387 0.167664
H52   H     H_    0.882813 0.747782 0.698685 -0.050099
O1    O     O_2   0.841230 0.444160 0.280430 -0.465451
O2    O     O_2   0.283569 0.169510 0.573901 -0.461472
O3    O     O_3   0.207930 0.184590 0.736467 -0.578070
O4    O     O_3   0.112860 0.447350 0.393710 -0.507585
O5    O     O_3   0.560610 0.613730 0.540770 -0.485179
O6    O     O_2   0.387460 0.270290 0.467210 -0.436403
O7    O     O_3   0.527752 0.253723 0.311930 -0.546399
O8    O     O_2   0.516159 0.451191 0.832123 -0.444523
O9    O     O_3   0.590347 0.276050 0.816003 -0.614301
O10   O     O_3   0.597940 0.615700 0.327690 -0.476145
O11   O     O_2   0.680176 0.533640 0.175263 -0.470328
O12   O     O_3   0.630747 0.765727 0.673036 -0.660058
O13   O     O_3   0.007569 0.295579 0.270123 -0.639515
O14   O     O_3   0.635459 0.709164 0.176417 -0.584646
O15   O     O_2   0.802240 0.729740 0.532850 -0.504737
O16   O     O_3   0.017180 0.664790 0.371080 -0.492910
O17   O     O_2   0.903188 0.828912 0.422017 -0.483759
O18   O     O_2   0.373484 0.884008 0.783222 -0.573325
O19   O     O_R   0.414267 0.965384 0.666396 -0.773789
O20   O     O_2   0.857034 0.657709 0.871605 -0.325992
O21   O     O_2   0.568216 0.671515 0.821287 -0.259271
O22   O     O_3   0.731562 0.573018 0.712241 -0.601605
O23   O     O_3   0.984224 0.807789 0.258246 -0.570380
O24   O     O_2   0.405940 0.755971 0.936570 -0.567493
O25   O     O_R   0.138130 0.749035 0.882275 -0.732815
O26   O     O_2   0.296866 0.135587 0.323032 -0.335462
O27   O     O_2   0.549261 0.081907 0.265123 -0.324660
O28   O     O_3   0.310448 0.964100 0.258772 -0.584962
O29   O     O_2   0.348480 0.555870 0.719620 -0.452217
O30   O     O_3   0.076830 0.552730 0.606300 -0.508399
O31   O     O_3   0.591760 0.384380 0.672320 -0.478165
O32   O     O_3   0.193039 0.705463 0.719915 -0.578493
O33   O     O_3   0.629090 0.386350 0.459240 -0.500817
O34   O     O_3   0.172520 0.335290 0.628920 -0.512289
P1    P     P_3+3 0.018600 0.416790 0.295970 0.970487
P2    P     P_3+3 0.635660 0.716530 0.560900 1.002729
P3    P     P_3+3 0.035716 0.783648 0.369869 0.987990
P4    P     P_3+3 0.171090 0.583290 0.704030 1.067744
P5    P     P_3+3 0.150209 0.213438 0.626769 0.967225
P6    P     P_3+3 0.562108 0.605651 0.210291 0.959387
P7    P     P_3+3 0.558210 0.270122 0.430354 1.042365
P8    P     P_3+3 0.640124 0.387242 0.789294 1.010987
S1    S     S_3+6 0.733064 0.664683 0.790808 -0.073435
S2    S     S_3+6 0.414152 0.058713 0.317727 -0.132812

loop_
_geom_bond_atom_site_label_1
_geom_bond_atom_site_label_2
_ccdc_geom_bond_type
C12   H6    S    
C20   C27   A    
O28   S2    S    
C38   H34   S    
C21   P2    S    
O15   P2    D    
C2    C6    A    
Ba1   O30   S    
C5    C6    A    
C1    H14   S    
C31   P7    S    
C16   H15   S    
C24   C25   A    
C20   C30   A    
C16   H41   S    
C21   C27   A    
C26   C27   A    
C33   C35   A    
C22   H33   S    
C22   C24   A    
C32   C33   A    
C28   H43   S    
O1    P1    D    
Ba1   O10   S    
O3    P5    S    
C38   O13   S    
C42   O18   D    
C13   C14   A    
C44   O3    S    
C42   O19   S    
C15   C18   A    
O11   P6    D    
Ba1   Ba2   S    
O20   S1    D    
O10   P6    S    
C2    C11   A    
C25   H35   S    
C36   S2    S    
O29   P4    D    
C7    P1    S    
C40   O12   S    
C45   H19   S    
O21   S1    D    
C8    C18   A    
C14   C15   A    
C28   O32   S    
C6    H29   S    
Ba2   O30   S    
C21   C22   A    
C47   H25   S    
C34   H13   S    
C7    C8    A    
Ba1   O1    S    
C39   H51   S    
C23   O7    S    
Ba1   O4    S    
O33   P7    S    
C46   H22   S    
C40   H52   S    
C19   C48   A    
C48   P8    S    
Ba2   O29   S    
C4    C16   S    
O13   P1    S    
Ba2   O31   S    
H46   O22   S    
C16   H40   S    
C18   P6    S    
C35   H36   S    
C28   H42   S    
C24   P3    S    
C3    C5    A    
C11   C17   A    
O4    P1    S    
Ba1   O15   S    
C41   H3    S    
Ba2   O4    S    
O23   P3    S    
C4    H37   S    
C2    C48   A    
C14   H30   S    
C9    P4    S    
C45   H20   S    
C3    C7    A    
O34   P5    S    
C41   H4    S    
C29   C30   A    
C10   C13   A    
C26   C36   A    
C43   O24   D    
C1    H2    S    
H48   O28   S    
C29   C31   A    
C31   C32   A    
C39   H50   S    
O7    P7    S    
C32   H38   S    
C30   C35   A    
C10   C11   A    
O8    P8    D    
O27   S2    D    
C1    C12   S    
O9    P8    S    
C33   P5    S    
C5    H28   S    
O14   P6    S    
C1    H7    S    
C37   H23   S    
C41   H5    S    
C46   C47   S    
Ba1   O5    S    
Ba2   O5    S    
C23   H8    S    
C13   C43   S    
C46   H21   S    
C9    C19   A    
O16   P3    S    
C45   H18   S    
Ba1   P1    S    
H47   O25   S    
C37   H12   S    
C44   C45   S    
C38   C39   S    
O31   P8    S    
O2    P5    D    
C4    O23   S    
C34   H10   S    
C39   H49   S    
C9    C10   A    
C44   H16   S    
C4    H26   S    
C37   C42   S    
C3    C17   A    
O30   P4    S    
C23   H9    S    
O22   S1    S    
C8    H31   S    
Ba2   O33   S    
C29   C36   A    
O17   P3    D    
O5    P2    S    
Ba2   P4    S    
C44   H17   S    
O32   P4    S    
O26   S2    D    
C43   O25   S    
C12   O14   S    
Ba2   O6    S    
C15   C17   A    
C20   H39   S    
C47   H27   S    
C28   C37   S    
Ba1   O16   S    
O12   P2    S    
Ba2   O34   S    
C23   C34   S    
H44   O19   S    
C46   O9    S    
C19   H32   S    
C12   H1    S    
C40   C41   S    
C25   C26   A    
C47   H24   S    
C38   H45   S    
Ba1   O33   S    
C40   S1    S    
O6    P7    D    
Ba1   P2    S    
C34   H11   S    
