data_mof_unit_206.cif
_audit_creation_date              2012-12-10T16:46:03-0500
_audit_creation_method            fapswitch 2.2
_symmetry_space_group_name_H-M    P1
_symmetry_Int_Tables_number       1
_space_group_crystal_system       triclinic
_cell_length_a                    10.700991
_cell_length_b                    8.708324
_cell_length_c                    7.444028
_cell_angle_alpha                 102.516855
_cell_angle_beta                  94.785949
_cell_angle_gamma                 92.58224
_cell_volume                      673.420506641

loop_
_atom_site_label
_atom_site_type_symbol
_atom_type_description
_atom_site_fract_x
_atom_site_fract_y
_atom_site_fract_z
_atom_type_partial_charge
C1    C     C_R   0.505504 0.201277 0.453668 0.863648
C2    C     C_3   0.877659 0.499630 0.496916 0.172401
C3    C     C_3   0.940092 0.657893 0.614664 -0.384268
C4    C     C_3   0.915781 0.478614 0.297166 -0.382526
C5    C     C_2   0.527392 0.037289 0.428004 -0.013532
C6    C     C_2   0.504138 0.966874 0.566045 -0.390172
C7    C     C_R   0.259796 0.499557 0.500835 0.752483
C8    C     C_R   0.506236 0.800050 0.545299 0.887198
C9    C     C_R   0.739995 0.500112 0.498524 0.743427
C10   C     C_3   0.071168 0.362338 0.581720 -0.395581
C11   C     C_3   0.926907 0.362104 0.579464 -0.373857
C12   C     C_3   0.084327 0.657634 0.616907 -0.383671
C13   C     C_3   0.058760 0.478596 0.298913 -0.366814
C14   C     C_3   0.121634 0.499561 0.500223 0.170413
Cu1   Cu    Cu3+1 0.514070 0.517380 0.684380 0.925440
Cu2   Cu    Cu3+1 0.485930 0.482620 0.315620 0.927518
H1    H     H_    0.113560 0.374657 0.726289 0.165670
H2    H     H_    0.881769 0.575930 0.234320 0.161811
H3    H     H_    0.120393 0.757619 0.560422 0.147144
H4    H     H_    0.906213 0.757916 0.556937 0.144897
H5    H     H_    0.475365 0.032910 0.695841 0.144075
H6    H     H_    0.399519 0.380592 0.948692 0.220810
H7    H     H_    0.601426 0.618027 0.050994 0.220590
H8    H     H_    0.097635 0.247756 0.499655 0.146580
H9    H     H_    0.883380 0.247436 0.496260 0.148293
H10   H     H_    0.900549 0.373733 0.723128 0.172789
H11   H     H_    0.126962 0.675479 0.762118 0.170654
H12   H     H_    0.913953 0.676513 0.759101 0.169303
H13   H     H_    0.093055 0.575870 0.236336 0.169381
H14   H     H_    0.083800 0.365568 0.211298 0.164907
H15   H     H_    0.872408 0.365575 0.209431 0.169472
N1    N     N_2   0.464720 0.456420 0.038520 -0.218660
N2    N     N_2   0.535280 0.543580 0.961480 -0.221213
O1    O     O_R   0.509140 0.286130 0.619770 -0.599054
O2    O     O_R   0.485380 0.256770 0.308360 -0.579260
O3    O     O_R   0.329570 0.514650 0.655700 -0.592591
O4    O     O_R   0.305810 0.485300 0.344290 -0.591472
O5    O     O_R   0.514620 0.743230 0.691640 -0.587897
O6    O     O_R   0.490860 0.713870 0.380230 -0.569813
O7    O     O_R   0.694190 0.514700 0.655710 -0.590835
O8    O     O_R   0.670430 0.485350 0.344300 -0.599733
C15   C     C_3   0.581554 0.957589 0.251505 -0.807602
H16   H     H_    0.620875 0.045115 0.179269 0.221685
H17   H     H_    0.660473 0.886233 0.283602 0.212078
H18   H     H_    0.507055 0.882998 0.154615 0.255886

loop_
_geom_bond_atom_site_label_1
_geom_bond_atom_site_label_2
_ccdc_geom_bond_type
C2    C4    S    
C5    C15   S    
Cu1   O5    S    
C8    O6    A    
Cu2   N1    S    
C7    O3    A    
C13   H14   S    
Cu1   O1    S    
C9    O8    A    
Cu2   O4    S    
C4    H2    S    
N1    N2    D    
C2    C3    S    
C7    O4    A    
C3    H4    S    
C13   C14   S    
C6    H5    S    
C15   H17   S    
C1    C5    S    
C2    C11   S    
C12   H3    S    
C13   H13   S    
C3    H12   S    
C12   C14   S    
C1    O1    A    
C8    O5    A    
Cu2   O2    S    
C10   C14   S    
C5    C6    D    
Cu1   O7    S    
C4    H15   S    
C10   C11   S    
C11   H9    S    
Cu2   O6    S    
Cu1   Cu2   S    
Cu1   O3    S    
H6    N1    S    
C1    O2    A    
C15   H16   S    
C4    C13   S    
C12   H11   S    
C6    C8    S    
C3    C12   S    
C10   H1    S    
C11   H10   S    
C10   H8    S    
C2    C9    S    
Cu2   O8    S    
Cu1   N2    S    
C9    O7    A    
C7    C14   S    
H7    N2    S    
C15   H18   S    
