data_mof_unit_4737.cif
_audit_creation_date              2012-12-10T18:31:13-0500
_audit_creation_method            fapswitch 2.2
_symmetry_space_group_name_H-M    P1
_symmetry_Int_Tables_number       1
_space_group_crystal_system       triclinic
_cell_length_a                    13.498867
_cell_length_b                    15.044826
_cell_length_c                    15.401454
_cell_angle_alpha                 96.130271
_cell_angle_beta                  91.553719
_cell_angle_gamma                 97.569557
_cell_volume                      3080.17256489

loop_
_atom_site_label
_atom_site_type_symbol
_atom_type_description
_atom_site_fract_x
_atom_site_fract_y
_atom_site_fract_z
_atom_type_partial_charge
C1    C     C_R   0.516644 0.555456 0.662337 0.870066
C2    C     C_R   0.567056 0.382182 0.926005 -0.254511
C3    C     C_R   0.655242 0.656031 0.013595 -0.235352
C4    C     C_R   0.541621 0.319285 0.984042 -0.252750
C5    C     C_R   0.385887 0.181031 0.660744 -0.089589
C6    C     C_R   0.625613 0.823376 0.346555 -0.085338
C7    C     C_R   0.396938 0.263169 0.626606 -0.031153
C8    C     C_R   0.599339 0.737845 0.371794 -0.034044
C9    C     C_R   0.482655 0.204375 0.505887 -0.060763
C10   C     C_R   0.533566 0.797665 0.502767 -0.067806
C11   C     C_R   0.484501 0.121551 0.540183 -0.020505
C12   C     C_R   0.489113 0.444046 0.337723 0.872283
C13   C     C_R   0.544132 0.885440 0.476974 -0.020102
C14   C     C_R   0.432898 0.110217 0.618466 0.097565
C15   C     C_R   0.597618 0.898240 0.399979 0.099356
C16   C     C_R   0.317749 0.514034 0.497043 0.900385
C17   C     C_R   0.682315 0.487160 0.506784 0.900673
C18   C     C_R   0.531530 0.049159 0.498198 0.020511
C19   C     C_R   0.508111 0.960573 0.526075 0.021069
C20   C     C_R   0.449341 0.951871 0.601704 -0.019344
C21   C     C_R   0.599334 0.060289 0.428823 -0.020215
C22   C     C_R   0.425464 0.027662 0.651429 -0.254018
C23   C     C_R   0.587961 0.541719 0.896426 0.082024
C24   C     C_R   0.629368 0.985475 0.381643 -0.257892
C25   C     C_1   0.783355 0.486751 0.531870 -0.180233
C26   C     C_1   0.216835 0.526159 0.506179 -0.187299
C27   C     C_2   0.972931 0.495409 0.577341 -0.020587
C28   C     C_2   0.033329 0.555126 0.535963 -0.027811
C29   C     C_1   0.132942 0.538915 0.518596 -0.077742
C30   C     C_1   0.868499 0.488881 0.555515 -0.068419
C31   C     C_R   0.547337 0.585046 0.753725 -0.076364
C32   C     C_R   0.498711 0.410414 0.246123 -0.069376
C33   C     C_R   0.630268 0.698541 0.865621 -0.005279
C34   C     C_R   0.559384 0.440414 0.103610 0.077597
C35   C     C_R   0.488051 0.286843 0.129696 -0.018113
C36   C     C_R   0.590163 0.673879 0.780462 -0.246407
C37   C     C_R   0.471853 0.319193 0.215893 -0.253068
C38   C     C_R   0.545910 0.520278 0.811779 -0.270562
C39   C     C_R   0.542098 0.469843 0.190292 -0.274416
C40   C     C_R   0.998523 0.635508 0.501513 0.132209
C41   C     C_R   0.942667 0.691415 0.554005 -0.140885
C42   C     C_R   0.916436 0.770426 0.525037 -0.128215
C43   C     C_R   0.946752 0.795218 0.444073 -0.128742
C44   C     C_R   0.002047 0.740340 0.391286 -0.160283
C45   C     C_R   0.626135 0.632842 0.925347 0.106002
C46   C     C_R   0.027955 0.660914 0.419693 -0.158701
C47   C     C_R   0.009342 0.429123 0.633364 0.148053
C48   C     C_R   0.949641 0.346621 0.642859 -0.153355
C49   C     C_R   0.982898 0.285462 0.695491 -0.147526
C50   C     C_R   0.075115 0.306245 0.741084 -0.104832
C51   C     C_R   0.133645 0.388767 0.735278 -0.142609
C52   C     C_R   0.100487 0.450291 0.683021 -0.137920
C53   C     C_R   0.323667 0.171783 0.738425 0.108378
C54   C     C_R   0.347033 0.231114 0.815084 -0.173539
C55   C     C_R   0.289838 0.222123 0.888723 -0.122345
C56   C     C_R   0.530723 0.347704 0.072410 0.117538
C57   C     C_R   0.208161 0.154264 0.886184 -0.128259
C58   C     C_R   0.182414 0.096485 0.809400 -0.158140
C59   C     C_R   0.239023 0.105860 0.735390 -0.153626
C60   C     C_R   0.686714 0.831709 0.268049 0.110587
C61   C     C_R   0.776123 0.793280 0.262822 -0.179596
C62   C     C_R   0.839643 0.807909 0.194203 -0.147573
C63   C     C_R   0.814268 0.860600 0.129933 -0.115989
C64   C     C_R   0.723358 0.895591 0.132194 -0.145418
C65   C     C_R   0.658657 0.879702 0.199891 -0.176978
C66   C     C_R   0.393639 0.867732 0.626045 0.091384
C67   C     C_R   0.584429 0.475226 0.954905 0.088755
C68   C     C_R   0.416987 0.835794 0.705549 -0.191565
C69   C     C_R   0.358903 0.760352 0.731996 -0.134052
C70   C     C_R   0.275829 0.718056 0.680347 -0.110141
C71   C     C_R   0.251489 0.750625 0.601911 -0.109923
C72   C     C_R   0.310505 0.824750 0.574314 -0.136061
C73   C     C_R   0.649721 0.146915 0.403762 0.091803
C74   C     C_R   0.725893 0.198913 0.457922 -0.126035
C75   C     C_R   0.781896 0.273786 0.427917 -0.121498
C76   C     C_R   0.760773 0.298618 0.345340 -0.112454
C77   C     C_R   0.685156 0.247257 0.291178 -0.120831
C78   C     C_R   0.595364 0.502953 0.045237 0.078195
C79   C     C_R   0.630427 0.171156 0.319674 -0.190287
C80   C     C_R   0.679756 0.792215 0.887272 0.118318
C81   C     C_R   0.784552 0.810194 0.893136 -0.160048
C82   C     C_R   0.832040 0.899309 0.902466 -0.161614
C83   C     C_R   0.775243 0.970775 0.905945 -0.117018
C84   C     C_R   0.670850 0.953245 0.900414 -0.165867
C85   C     C_R   0.623101 0.864246 0.891767 -0.179512
C86   C     C_R   0.455780 0.190007 0.101405 0.113234
C87   C     C_R   0.526731 0.130792 0.083913 -0.188119
C88   C     C_R   0.495452 0.038816 0.060315 -0.155859
C89   C     C_R   0.637489 0.593000 0.073224 -0.231659
C90   C     C_R   0.393573 0.005637 0.053108 -0.099989
C91   C     C_R   0.322634 0.064250 0.070490 -0.123026
C92   C     C_R   0.353536 0.156070 0.095213 -0.157652
H1    H     H_    0.921114 0.674812 0.618175 0.130924
H2    H     H_    0.145626 0.515011 0.683083 0.117894
H3    H     H_    0.409695 0.284036 0.817669 0.122924
H4    H     H_    0.308876 0.267801 0.947719 0.138917
H5    H     H_    0.164121 0.147165 0.943334 0.118452
H6    H     H_    0.118255 0.044774 0.807067 0.128708
H7    H     H_    0.217705 0.061140 0.676080 0.136712
H8    H     H_    0.797599 0.753541 0.312935 0.142745
H9    H     H_    0.909178 0.779402 0.191506 0.125635
H10   H     H_    0.864642 0.873349 0.077961 0.134956
H11   H     H_    0.703419 0.935497 0.081834 0.149087
H12   H     H_    0.873631 0.813030 0.565886 0.133572
H13   H     H_    0.588711 0.907706 0.201039 0.135834
H14   H     H_    0.480074 0.869615 0.746407 0.134071
H15   H     H_    0.377419 0.735518 0.792998 0.131383
H16   H     H_    0.229704 0.660908 0.701704 0.111171
H17   H     H_    0.186175 0.719571 0.562880 0.149431
H18   H     H_    0.290120 0.850076 0.513989 0.131829
H19   H     H_    0.744142 0.179633 0.521593 0.121960
H20   H     H_    0.843341 0.311806 0.467432 0.131050
H21   H     H_    0.804199 0.356820 0.322798 0.123116
H22   H     H_    0.670459 0.265512 0.226509 0.139686
H23   H     H_    0.927172 0.856884 0.422115 0.136203
H24   H     H_    0.573469 0.130530 0.276238 0.144939
H25   H     H_    0.685839 0.724256 0.037913 0.183439
H26   H     H_    0.524940 0.249038 0.957950 0.169731
H27   H     H_    0.558550 0.540161 0.214876 0.156968
H28   H     H_    0.508714 0.453124 0.790718 0.155865
H29   H     H_    0.439035 0.272614 0.259610 0.167248
H30   H     H_    0.594979 0.723862 0.734431 0.169494
H31   H     H_    0.829279 0.755287 0.888462 0.128871
H32   H     H_    0.912884 0.912945 0.906443 0.121624
H33   H     H_    0.812097 0.039683 0.912803 0.122534
H34   H     H_    0.025334 0.759615 0.328476 0.128386
H35   H     H_    0.626989 0.008631 0.902525 0.138270
H36   H     H_    0.542224 0.851316 0.887549 0.122750
H37   H     H_    0.605916 0.155668 0.089376 0.126065
H38   H     H_    0.550035 0.993079 0.047966 0.127797
H39   H     H_    0.369659 0.934467 0.034445 0.118680
H40   H     H_    0.243718 0.038499 0.065139 0.118231
H41   H     H_    0.297925 0.200814 0.109044 0.120639
H42   H     H_    0.658730 0.616128 0.140765 0.151938
H43   H     H_    0.573138 0.356885 0.858279 0.148470
H44   H     H_    0.389576 0.018722 0.712488 0.168909
H45   H     H_    0.071587 0.619708 0.378151 0.134786
H46   H     H_    0.682480 0.997213 0.331421 0.171897
H47   H     H_    0.512584 0.781936 0.566111 0.161434
H48   H     H_    0.508243 0.217447 0.442902 0.155419
H49   H     H_    0.617714 0.678971 0.332079 0.133687
H50   H     H_    0.366525 0.320383 0.659120 0.140480
H51   H     H_    0.876529 0.329298 0.610851 0.125184
H52   H     H_    0.936569 0.222164 0.701536 0.128437
H53   H     H_    0.100271 0.259157 0.782203 0.151832
H54   H     H_    0.204275 0.405619 0.772175 0.129304
N1    N     N_R   0.445040 0.272490 0.551770 -0.110553
N2    N     N_R   0.554960 0.727510 0.448230 -0.108196
O1    O     O_R   0.527700 0.614770 0.606110 -0.616847
O2    O     O_R   0.472300 0.385230 0.393890 -0.614867
O3    O     O_R   0.492440 0.468680 0.639380 -0.630411
O4    O     O_R   0.507560 0.531320 0.360620 -0.628110
O5    O     O_R   0.379820 0.583550 0.480950 -0.593822
O6    O     O_R   0.620180 0.416450 0.519050 -0.595825
O7    O     O_R   0.344560 0.437460 0.514220 -0.604572
O8    O     O_R   0.655440 0.562540 0.485780 -0.605795
Zn1   Zn    Zn3+2 0.523550 0.597550 0.477790 0.945569
Zn2   Zn    Zn3+2 0.476450 0.402450 0.522210 0.944678

loop_
_geom_bond_atom_site_label_1
_geom_bond_atom_site_label_2
_ccdc_geom_bond_type
C64   H11   S    
C66   C68   A    
C87   C88   A    
C11   C18   A    
C34   C56   A    
C23   C45   A    
C18   C21   A    
C59   H7    S    
C41   C42   A    
C12   O4    A    
C36   H30   S    
C19   C20   A    
C58   H6    S    
C88   H38   S    
C43   C44   A    
C81   C82   A    
C53   C59   A    
C53   C54   A    
C40   C46   A    
C44   H34   S    
C75   H20   S    
C80   C85   A    
C81   H31   S    
C83   C84   A    
C20   C66   S    
C28   C29   S    
C35   C37   A    
O6    Zn2   S    
C35   C86   S    
C39   H27   S    
C28   C40   S    
C23   C67   A    
C49   H52   S    
C21   C73   S    
C1    C31   S    
C33   C36   A    
C33   C45   A    
C18   C19   A    
C73   C74   A    
C32   C39   A    
C82   H32   S    
C3    H25   S    
C43   H23   S    
C6    C15   A    
C54   C55   A    
C66   C72   A    
C92   H41   S    
C68   C69   A    
C1    O1    A    
C70   C71   A    
C5    C14   A    
C61   C62   A    
C62   H9    S    
C38   H28   S    
C84   H35   S    
C79   H24   S    
C12   C32   S    
C27   C30   S    
C4    H26   S    
C8    N2    A    
C67   C78   A    
C68   H14   S    
C83   H33   S    
C63   H10   S    
C17   O6    A    
C65   H13   S    
C44   C46   A    
C76   H21   S    
C7    N1    A    
C77   C79   A    
C78   C89   A    
C16   C26   S    
C72   H18   S    
C74   C75   A    
C13   C19   A    
C51   C52   A    
O3    Zn2   S    
C6    C60   S    
C76   C77   A    
C2    C67   A    
C74   H19   S    
C5    C7    A    
C86   C87   A    
C55   H4    S    
C6    C8    A    
C91   H40   S    
C51   H54   S    
C24   H46   S    
C58   C59   A    
C3    C45   A    
C34   C39   A    
C48   H51   S    
C22   H44   S    
C60   C61   A    
O8    Zn1   S    
C2    C4    A    
C75   C76   A    
C62   C63   A    
C12   O2    A    
C47   C48   A    
C57   H5    S    
C16   O7    A    
C50   C51   A    
C73   C79   A    
C32   C37   A    
C84   C85   A    
C52   H2    S    
C9    C11   A    
C54   H3    S    
C8    H49   S    
C46   H45   S    
C37   H29   S    
C90   H39   S    
C50   H53   S    
C40   C41   A    
C88   C90   A    
C60   C65   A    
C82   C83   A    
C9    H48   S    
C55   C57   A    
C61   H8    S    
C42   C43   A    
C77   H22   S    
C91   C92   A    
C27   C47   S    
C25   C30   T    
O4    Zn1   S    
C15   C24   A    
C89   H42   S    
O2    Zn2   S    
C35   C56   A    
C20   C22   A    
C80   C81   A    
C16   O5    A    
C10   C13   A    
C42   H12   S    
C33   C80   S    
C47   C52   A    
C23   C38   A    
C2    H43   S    
C31   C38   A    
C3    C89   A    
C41   H1    S    
C64   C65   A    
C87   H37   S    
C13   C15   A    
C5    C53   S    
C17   C25   S    
C71   C72   A    
C86   C92   A    
C34   C78   A    
N1    Zn2   S    
C14   C22   A    
C90   C91   A    
C48   C49   A    
C71   H17   S    
C11   C14   A    
C9    N1    A    
C1    O3    A    
N2    Zn1   S    
O5    Zn1   S    
C69   C70   A    
C63   C64   A    
C26   C29   T    
C49   C50   A    
C10   H47   S    
C21   C24   A    
C27   C28   D    
C31   C36   A    
C85   H36   S    
C70   H16   S    
C57   C58   A    
C17   O8    A    
O1    Zn1   S    
C69   H15   S    
C7    H50   S    
C4    C56   A    
C10   N2    A    
O7    Zn2   S    
