data_mof_unit_3.cif
_audit_creation_date              2012-12-10T18:11:09-0500
_audit_creation_method            fapswitch 2.2
_symmetry_space_group_name_H-M    P1
_symmetry_Int_Tables_number       1
_space_group_crystal_system       triclinic
_cell_length_a                    10.73211
_cell_length_b                    9.552271
_cell_length_c                    10.631996
_cell_angle_alpha                 89.202223
_cell_angle_beta                  89.943258
_cell_angle_gamma                 90.387501
_cell_volume                      1089.81872751

loop_
_atom_site_label
_atom_site_type_symbol
_atom_type_description
_atom_site_fract_x
_atom_site_fract_y
_atom_site_fract_z
_atom_type_partial_charge
C1    C     C_R   0.260184 0.499674 0.501745 0.733332
C2    C     C_3   0.495040 0.501200 0.122743 0.032682
C3    C     C_3   0.073069 0.647307 0.535534 -0.381119
C4    C     C_3   0.071321 0.393319 0.602978 -0.376284
C5    C     C_3   0.930802 0.645419 0.544086 -0.386289
C6    C     C_3   0.927519 0.389288 0.599194 -0.394769
C7    C     C_3   0.071591 0.458956 0.372251 -0.399314
C8    C     C_3   0.122164 0.499522 0.503265 0.182337
C9    C     C_3   0.878205 0.500787 0.504174 0.171004
C10   C     C_3   0.927941 0.467135 0.371100 -0.357590
C11   C     C_3   0.590865 0.083091 0.596383 0.443946
C12   C     C_3   0.600706 0.916673 0.585430 0.466147
C13   C     C_3   0.376231 0.081591 0.536732 -0.238078
C14   C     C_3   0.380321 0.915805 0.549662 -0.251669
C15   C     C_3   0.533350 0.087287 0.376145 -0.219497
C16   C     C_3   0.516832 0.921763 0.372654 -0.193626
C17   C     C_R   0.497516 0.500593 0.259777 0.806946
C18   C     C_R   0.739765 0.500395 0.502643 0.747910
C19   C     C_R   0.499109 0.499752 0.740436 0.762516
C20   C     C_3   0.390445 0.561214 0.040604 -0.210008
C21   C     C_3   0.501323 0.368894 0.043007 -0.075293
C22   C     C_3   0.397065 0.428975 0.958451 -0.193386
C23   C     C_3   0.497407 0.501162 0.877641 0.005132
C24   C     C_3   0.490359 0.633985 0.957185 -0.079974
C25   C     C_3   0.601586 0.442066 0.960451 -0.195634
C26   C     C_3   0.594662 0.574016 0.041800 -0.126092
Cu1   Cu    Cu3+1 0.499860 0.642410 0.500060 0.951780
Cu2   Cu    Cu3+1 0.499860 0.357590 0.500060 0.940518
H1    H     H_    0.316268 0.369287 0.921368 0.131465
H2    H     H_    0.898003 0.549674 0.302951 0.153112
H3    H     H_    0.888540 0.366301 0.338262 0.180146
H4    H     H_    0.683964 0.128978 0.576200 0.077322
H5    H     H_    0.691934 0.893860 0.541050 0.101585
H6    H     H_    0.341687 0.126852 0.625906 0.198089
H7    H     H_    0.364301 0.883569 0.649337 0.199231
H8    H     H_    0.464526 0.129327 0.307230 0.149379
H9    H     H_    0.428074 0.902203 0.320643 0.127096
H10   H     H_    0.306254 0.110940 0.463978 0.137293
H11   H     H_    0.300598 0.872708 0.495874 0.146199
H12   H     H_    0.304137 0.610089 0.076591 0.126070
H13   H     H_    0.501505 0.258848 0.077388 0.172301
H14   H     H_    0.484685 0.743192 0.920871 0.196995
H15   H     H_    0.692501 0.399911 0.930417 0.112749
H16   H     H_    0.677672 0.630872 0.077235 0.146866
H17   H     H_    0.102221 0.724505 0.461553 0.168115
H18   H     H_    0.107398 0.286482 0.584908 0.163459
H19   H     H_    0.112816 0.682706 0.626566 0.155581
H20   H     H_    0.103277 0.423684 0.698431 0.146478
H21   H     H_    0.904134 0.665910 0.642744 0.142831
H22   H     H_    0.889774 0.409030 0.694827 0.130285
H23   H     H_    0.893774 0.731564 0.484249 0.220994
H24   H     H_    0.896009 0.282817 0.571554 0.187070
H25   H     H_    0.110572 0.530555 0.298411 0.144418
H26   H     H_    0.101042 0.350776 0.349141 0.162202
N1    N     N_3   0.500250 0.143650 0.502780 -0.213214
N2    N     N_3   0.500250 0.856350 0.502780 -0.199682
O1    O     O_R   0.317570 0.620260 0.500070 -0.605394
O2    O     O_R   0.317570 0.379740 0.500070 -0.602444
O3    O     O_R   0.499850 0.620240 0.316900 -0.584632
O4    O     O_R   0.499850 0.379760 0.316900 -0.577863
O5    O     O_R   0.682190 0.620260 0.500030 -0.556796
O6    O     O_R   0.682190 0.379740 0.500030 -0.596121
O7    O     O_R   0.499910 0.620280 0.683200 -0.539724
O8    O     O_R   0.499910 0.379720 0.683200 -0.539989
O9    O     O_3   0.554067 0.117760 0.720774 -0.532975
C27   C     C_3   0.658084 0.155394 0.794882 -0.245118
H27   H     H_    0.734615 0.078911 0.790262 0.128677
H28   H     H_    0.628327 0.160263 0.894430 0.199199
H29   H     H_    0.695732 0.258486 0.763500 0.138320
O10   O     O_3   0.592482 0.856870 0.708419 -0.532923
C28   C     C_3   0.708530 0.809413 0.755111 -0.321327
H30   H     H_    0.790640 0.868191 0.717467 0.102590
H31   H     H_    0.718696 0.696376 0.736621 0.174530
H32   H     H_    0.709117 0.821516 0.858722 0.186918
C29   C     C_2   0.662162 0.137609 0.328317 0.886856
O11   O     O_2   0.669662 0.209994 0.233028 -0.626278
O12   O     O_R   0.772256 0.090419 0.384567 -0.821553
H33   H     H_    0.849952 0.122872 0.338133 0.319153
C30   C     C_2   0.614583 0.858099 0.287181 0.928517
O13   O     O_2   0.594570 0.856862 0.173956 -0.651653
O14   O     O_R   0.729562 0.813120 0.332293 -0.760268
H34   H     H_    0.786021 0.778326 0.263088 0.300232

loop_
_geom_bond_atom_site_label_1
_geom_bond_atom_site_label_2
_ccdc_geom_bond_type
C7    C10   S    
C14   N2    S    
C22   H1    S    
C1    C8    S    
C24   H14   S    
C27   H28   S    
C4    C8    S    
C25   H15   S    
C6    C9    S    
O14   H34   S    
C26   H16   S    
C7    C8    S    
C4    H18   S    
O12   H33   S    
C24   C26   S    
C20   H12   S    
C27   H29   S    
C15   C16   S    
C21   C25   S    
Cu1   O5    S    
C14   H11   S    
C10   H3    S    
C20   C24   S    
C19   O7    A    
C23   C24   S    
O10   C28   S    
C9    C10   S    
C16   H9    S    
C27   H27   S    
C21   C22   S    
C2    C17   S    
C5    H21   S    
Cu2   N1    S    
Cu2   O4    S    
C2    C20   S    
C4    C6    S    
C3    C8    S    
Cu1   O1    S    
C14   H7    S    
C28   H31   S    
Cu1   N2    S    
C18   O6    A    
C25   C26   S    
C3    H17   S    
C15   N1    S    
C19   C23   S    
C29   O11   D    
C16   N2    S    
C5    C9    S    
C1    O1    A    
C10   H2    S    
C19   O8    A    
C2    C21   S    
C2    C26   S    
C6    H22   S    
C29   O12   S    
C13   H10   S    
C12   N2    S    
Cu1   O7    S    
C17   O3    A    
C21   H13   S    
Cu2   O8    S    
C20   C22   S    
C11   H4    S    
C7    H25   S    
C15   H8    S    
C11   N1    S    
C30   O14   S    
C15   C29   S    
C4    H20   S    
C12   O10   S    
C3    C5    S    
C28   H32   S    
C11   C12   S    
C18   O5    A    
Cu2   O2    S    
C16   C30   S    
C13   H6    S    
Cu1   O3    S    
C1    O2    A    
C3    H19   S    
C23   C25   S    
C17   O4    A    
C30   O13   D    
C9    C18   S    
C28   H30   S    
O9    C27   S    
Cu1   Cu2   S    
C22   C23   S    
C5    H23   S    
C7    H26   S    
C6    H24   S    
C12   H5    S    
C13   C14   S    
C11   O9    S    
C13   N1    S    
Cu2   O6    S    
