data_mof_unit_3799.cif
_audit_creation_date              2012-12-10T17:05:59-0500
_audit_creation_method            fapswitch 2.2
_symmetry_space_group_name_H-M    P1
_symmetry_Int_Tables_number       1
_space_group_crystal_system       triclinic
_cell_length_a                    11.522295
_cell_length_b                    10.629265
_cell_length_c                    10.132499
_cell_angle_alpha                 87.737579
_cell_angle_beta                  90.26662
_cell_angle_gamma                 89.775799
_cell_volume                      1239.97171362

loop_
_atom_site_label
_atom_site_type_symbol
_atom_type_description
_atom_site_fract_x
_atom_site_fract_y
_atom_site_fract_z
_atom_type_partial_charge
C1    C     C_R   0.489356 0.263372 0.502745 0.938463
C2    C     C_1   0.161726 0.496530 0.499281 -0.172280
C3    C     C_1   0.059422 0.496320 0.499626 0.003884
C4    C     C_1   0.940632 0.497292 0.500401 0.025347
C5    C     C_1   0.838320 0.498502 0.500738 -0.139755
C6    C     C_2   0.402035 0.931600 0.449264 -0.156793
C7    C     C_2   0.285755 0.870881 0.457635 0.825864
C8    C     C_3   0.691036 0.891835 0.560546 -0.225397
C9    C     C_2   0.354146 0.123194 0.298485 1.017793
C10   C     C_2   0.693759 0.586207 0.886639 0.854237
C11   C     C_3   0.313456 0.445793 0.877876 -0.025873
C12   C     C_2   0.502305 0.872197 0.484677 0.309912
C13   C     C_3   0.700904 0.289924 0.054538 -0.268009
C14   C     C_3   0.335441 0.616048 0.140079 -0.031516
C15   C     C_2   0.406673 0.067507 0.421822 -0.032996
C16   C     C_2   0.460024 0.132993 0.514769 -0.343012
C17   C     C_2   0.592152 0.510466 0.928838 0.039084
C18   C     C_2   0.586373 0.464565 0.074864 0.703404
C19   C     C_R   0.282303 0.498269 0.499764 0.938435
C20   C     C_R   0.501456 0.737416 0.496976 0.852820
C21   C     C_R   0.717722 0.499703 0.500273 0.887671
H1    H     H_    0.483855 0.086156 0.608713 0.173712
H2    H     H_    0.263777 0.424773 0.969182 0.097021
H3    H     H_    0.748452 0.321658 0.964156 0.172111
H4    H     H_    0.621712 0.236449 0.028017 0.174587
H5    H     H_    0.758802 0.224162 0.111746 0.213083
H6    H     H_    0.334067 0.675393 0.227404 0.195751
H7    H     H_    0.293192 0.523378 0.158598 0.139582
H8    H     H_    0.282552 0.667033 0.063317 0.128242
H9    H     H_    0.177980 0.754681 0.559666 0.339868
H10   H     H_    0.722890 0.796247 0.537884 0.171007
H11   H     H_    0.656350 0.893371 0.662837 0.191276
H12   H     H_    0.766588 0.956150 0.555338 0.192147
H13   H     H_    0.263129 0.265551 0.209591 0.335050
H14   H     H_    0.862257 0.628109 0.916333 0.345658
H15   H     H_    0.274237 0.384683 0.803763 0.165271
H16   H     H_    0.301418 0.547651 0.850542 0.162081
N1    N     N_2   0.501210 0.501330 0.852150 0.064478
N2    N     N_2   0.501250 0.501360 0.147810 0.044391
O1    O     O_R   0.499980 0.319060 0.613040 -0.608117
O2    O     O_R   0.261933 0.782761 0.559776 -0.819412
O3    O     O_3   0.607681 0.935052 0.466772 -0.613953
O4    O     O_2   0.358469 0.065134 0.196803 -0.591786
O5    O     O_R   0.295353 0.238443 0.299603 -0.803427
O6    O     O_2   0.683803 0.667740 0.798972 -0.617986
O7    O     O_R   0.799812 0.569620 0.952719 -0.796141
O8    O     O_3   0.429632 0.409636 0.899979 -0.573191
O9    O     O_3   0.673993 0.392010 0.133874 -0.600167
O10   O     O_3   0.448818 0.605244 0.092275 -0.592151
O11   O     O_R   0.500020 0.319100 0.386900 -0.572455
O12   O     O_R   0.334430 0.499990 0.613070 -0.623951
O13   O     O_R   0.334470 0.500030 0.386930 -0.630555
O14   O     O_R   0.499980 0.680900 0.613100 -0.565406
O15   O     O_R   0.500020 0.680940 0.386960 -0.615804
O16   O     O_R   0.665530 0.499970 0.613070 -0.611087
O17   O     O_R   0.665570 0.500010 0.386930 -0.558340
O18   O     O_2   0.209119 0.902896 0.379327 -0.595384
Zn1   Zn    Zn3+2 0.499980 0.499970 0.650990 1.029062
Zn2   Zn    Zn3+2 0.500020 0.500030 0.349010 1.053652

loop_
_geom_bond_atom_site_label_1
_geom_bond_atom_site_label_2
_ccdc_geom_bond_type
C10   O7    S    
C13   O9    S    
C12   O3    S    
C18   N2    D    
H9    O2    S    
C6    C7    S    
O13   Zn2   S    
C14   H6    S    
C21   O17   A    
C1    O11   A    
C11   O8    S    
O17   Zn2   S    
O14   Zn1   S    
N2    Zn2   S    
C12   C20   S    
C10   O6    D    
C2    C3    T    
C9    C15   S    
H13   O5    S    
O12   Zn1   S    
N1    Zn1   S    
H14   O7    S    
C13   H4    S    
N1    O8    S    
O11   Zn2   S    
C11   H2    S    
C11   H15   S    
N2    O10   S    
C8    O3    S    
C17   C18   S    
O15   Zn2   S    
C7    O2    S    
C6    C12   D    
C7    O18   D    
C13   H5    S    
C9    O4    D    
C14   O10   S    
O1    Zn1   S    
C14   H8    S    
C3    C4    S    
C8    H11   S    
C19   O12   A    
C5    C21   S    
C17   N1    D    
C20   O15   A    
O16   Zn1   S    
C1    C16   S    
C20   O14   A    
C9    O5    S    
C16   H1    S    
C8    H12   S    
C10   C17   S    
C1    O1    A    
C14   H7    S    
C6    C15   S    
C2    C19   S    
C8    H10   S    
C21   O16   A    
C19   O13   A    
C11   H16   S    
C15   C16   D    
C13   H3    S    
C4    C5    T    
C18   O9    S    
