data_mof_unit_309.cif
_audit_creation_date              2012-12-10T20:26:31-0500
_audit_creation_method            fapswitch 2.2
_symmetry_space_group_name_H-M    P1
_symmetry_Int_Tables_number       1
_space_group_crystal_system       triclinic
_cell_length_a                    10.631101
_cell_length_b                    10.645755
_cell_length_c                    9.908904
_cell_angle_alpha                 90.238182
_cell_angle_beta                  88.742007
_cell_angle_gamma                 90.298803
_cell_volume                      1121.15636543

loop_
_atom_site_label
_atom_site_type_symbol
_atom_type_description
_atom_site_fract_x
_atom_site_fract_y
_atom_site_fract_z
_atom_type_partial_charge
C1    C     C_R   0.510306 0.260480 0.499432 0.893474
C2    C     C_R   0.590004 0.562168 0.071083 -0.129049
C3    C     C_R   0.590287 0.563031 0.927656 0.041968
C4    C     C_R   0.262646 0.508062 0.501885 0.964543
C5    C     C_R   0.415445 0.427889 0.931208 0.084180
C6    C     C_3   0.273214 0.432302 0.934162 -0.164563
C7    C     C_3   0.278202 0.427670 0.088350 -0.562751
C8    C     C_R   0.504777 0.740000 0.500081 0.865028
C9    C     C_R   0.737440 0.505031 0.498265 0.920711
C10   C     C_2   0.934687 0.594789 0.415301 0.195732
C11   C     C_2   0.870416 0.510661 0.492034 -0.296300
C12   C     C_R   0.539236 0.129411 0.500227 -0.160807
C13   C     C_2   0.070533 0.579656 0.404605 -0.186185
C14   C     C_2   0.132102 0.536470 0.510196 -0.355380
C15   C     C_R   0.520096 0.064913 0.620977 0.109550
C16   C     C_3   0.875261 0.701398 0.337603 -0.389228
C17   C     C_3   0.923033 0.828890 0.386341 -0.829027
C18   C     C_2   0.688478 0.637168 0.858139 0.940349
C19   C     C_2   0.214482 0.554226 0.888930 0.948680
C20   C     C_2   0.215257 0.315810 0.871687 0.944454
C21   C     C_2   0.635688 0.126256 0.261276 0.992304
C22   C     C_R   0.583118 0.063273 0.383892 -0.146393
C23   C     C_R   0.575314 0.932434 0.385331 -0.322346
C24   C     C_R   0.528613 0.871310 0.501193 -0.090725
C25   C     C_R   0.514956 0.937217 0.621458 0.217926
C26   C     C_3   0.410582 0.933747 0.724652 -0.436452
C27   C     C_3   0.416707 0.075732 0.724904 -0.421126
C28   C     C_R   0.417563 0.425931 0.073128 0.237933
H1    H     H_    0.450912 0.115796 0.821269 0.252380
H2    H     H_    0.440087 0.891551 0.821307 0.254717
H3    H     H_    0.330849 0.120035 0.684679 0.211196
H4    H     H_    0.900884 0.841025 0.495721 0.268139
H5    H     H_    0.026255 0.837483 0.368763 0.262543
H6    H     H_    0.876215 0.904923 0.330082 0.262464
H7    H     H_    0.898805 0.690222 0.228406 0.226923
H8    H     H_    0.771489 0.703129 0.348421 0.210164
H9    H     H_    0.871829 0.653625 0.805460 0.359447
H10   H     H_    0.237183 0.730508 0.820225 0.327352
H11   H     H_    0.107705 0.241831 0.725661 0.338720
H12   H     H_    0.660303 0.615093 0.125030 0.138352
H13   H     H_    0.531550 0.023766 0.131679 0.305075
H14   H     H_    0.244889 0.514605 0.139737 0.203280
H15   H     H_    0.241411 0.339991 0.135638 0.236698
H16   H     H_    0.916264 0.435957 0.546305 0.157110
H17   H     H_    0.118959 0.603437 0.310557 0.175953
H18   H     H_    0.086621 0.528694 0.609077 0.215633
H19   H     H_    0.601986 0.879037 0.295908 0.175036
H20   H     H_    0.321514 0.896158 0.683334 0.186207
N1    N     N_R   0.499170 0.499140 0.142800 -0.106122
N2    N     N_R   0.499170 0.499180 0.857150 -0.127420
O1    O     O_R   0.500020 0.316790 0.614690 -0.619095
O2    O     O_R   0.812560 0.594619 0.856113 -0.756030
O3    O     O_2   0.100213 0.566129 0.897047 -0.599853
O4    O     O_R   0.289245 0.654757 0.844401 -0.792917
O5    O     O_2   0.233341 0.212406 0.920883 -0.644337
O6    O     O_R   0.140582 0.326071 0.757901 -0.802894
O7    O     O_2   0.712442 0.211081 0.273221 -0.560549
O8    O     O_R   0.601377 0.088864 0.131610 -0.767629
O9    O     O_R   0.500000 0.316760 0.385350 -0.596238
O10   O     O_R   0.319080 0.500020 0.614640 -0.590164
O11   O     O_R   0.319070 0.499980 0.385300 -0.627146
O12   O     O_R   0.500000 0.683240 0.614650 -0.562420
O13   O     O_R   0.499980 0.683210 0.385310 -0.644575
O14   O     O_R   0.680930 0.500020 0.614700 -0.605177
O15   O     O_R   0.680920 0.499980 0.385360 -0.599398
O16   O     O_2   0.662739 0.738159 0.808101 -0.630114
Zn1   Zn    Zn3+2 0.500010 0.500020 0.653130 1.019346
Zn2   Zn    Zn3+2 0.499990 0.499980 0.346870 0.978845

loop_
_geom_bond_atom_site_label_1
_geom_bond_atom_site_label_2
_ccdc_geom_bond_type
C23   C24   A    
C2    H12   S    
C21   O7    D    
C6    C7    S    
C2    N1    A    
C7    H15   S    
O9    Zn2   S    
C18   O16   D    
C5    C28   A    
C6    C20   S    
N2    Zn1   S    
C15   C27   S    
H11   O6    S    
H10   O4    S    
C12   C15   A    
C26   H20   S    
C20   O6    S    
O15   Zn2   S    
C19   O3    D    
C2    C3    A    
C18   O2    S    
C11   H16   S    
C14   H18   S    
O1    Zn1   S    
C21   C22   S    
C16   H8    S    
C13   H17   S    
C6    C19   S    
C9    C11   S    
O11   Zn2   S    
C4    O10   A    
C26   C27   S    
C1    C12   S    
C17   H5    S    
O12   Zn1   S    
C20   O5    D    
C19   O4    S    
N1    Zn2   S    
C3    N2    A    
H13   O8    S    
C26   H2    S    
C1    O9    A    
C16   H7    S    
C4    C14   S    
C5    C6    S    
C9    O15   A    
C5    N2    A    
C15   C25   A    
C23   H19   S    
C17   H6    S    
C8    O13   A    
C27   H3    S    
C9    O14   A    
O14   Zn1   S    
C12   C22   A    
C21   O8    S    
C24   C25   A    
C3    C18   S    
C10   C11   D    
C7    H14   S    
C27   H1    S    
C17   H4    S    
H9    O2    S    
O13   Zn2   S    
C10   C16   S    
C1    O1    A    
C13   C14   D    
C8    C24   S    
C25   C26   S    
C22   C23   A    
C4    O11   A    
C10   C13   S    
C7    C28   S    
O10   Zn1   S    
C8    O12   A    
C16   C17   S    
C28   N1    A    
