data_mof_unit_4980.cif
_audit_creation_date              2012-10-26T21:00:44-0400
_audit_creation_method            fapswitch 2.2
_symmetry_space_group_name_H-M    P1
_symmetry_Int_Tables_number       1
_space_group_crystal_system       triclinic
_cell_length_a                    10.783662
_cell_length_b                    9.504876
_cell_length_c                    10.864159
_cell_angle_alpha                 88.776633
_cell_angle_beta                  90.730842
_cell_angle_gamma                 89.725143
_cell_volume                      1113.18902194

loop_
_atom_site_label
_atom_site_type_symbol
_atom_type_description
_atom_site_fract_x
_atom_site_fract_y
_atom_site_fract_z
_atom_type_partial_charge
C1    C     C_R   0.262121 0.500292 0.496497 0.563810
C2    C     C_R   0.490141 0.498925 0.737024 0.536722
C3    C     C_R   0.442435 0.769673 0.106059 -0.071065
C4    C     C_R   0.361197 0.724401 0.867026 -0.083295
C5    C     C_R   0.382692 0.877236 0.038809 -0.110412
C6    C     C_R   0.337308 0.852602 0.921373 -0.102876
C7    C     C_R   0.430976 0.618141 0.930301 0.029173
C8    C     C_R   0.457838 0.633142 0.056881 0.049949
C9    C     C_R   0.498237 0.510861 0.126348 0.016588
C10   C     C_R   0.475891 0.498066 0.870144 -0.004812
C11   C     C_R   0.527773 0.387066 0.065143 -0.147466
C12   C     C_R   0.737673 0.499782 0.497591 0.572677
C13   C     C_R   0.521178 0.382458 0.938385 -0.153775
C14   C     C_R   0.065498 0.420548 0.579939 -0.158469
C15   C     C_R   0.937372 0.419689 0.579881 -0.157800
C16   C     C_R   0.871169 0.499569 0.491826 0.008823
C17   C     C_R   0.128126 0.500538 0.491460 0.008541
C18   C     C_R   0.932518 0.577194 0.399236 0.100182
C19   C     C_R   0.062606 0.576732 0.398591 0.093904
C20   C     C_R   0.419081 0.076728 0.426602 0.017609
C21   C     C_R   0.580647 0.072260 0.573780 0.020841
C22   C     C_R   0.418827 0.927905 0.426994 0.005886
C23   C     C_R   0.580744 0.923307 0.573670 0.030302
C24   C     C_R   0.500521 0.502961 0.261467 0.575386
Cu1   Cu    Cu3+1 0.500000 0.640660 0.500000 0.969229
Cu2   Cu    Cu3+1 0.500000 0.359340 0.500000 0.955476
H1    H     H_    0.560250 0.293967 0.115317 0.143912
H2    H     H_    0.645116 0.126738 0.632905 0.109599
H3    H     H_    0.353614 0.873802 0.368833 0.137763
H4    H     H_    0.645332 0.865307 0.632696 0.123797
H5    H     H_    0.553589 0.288627 0.893578 0.135795
H6    H     H_    0.478994 0.800648 0.193435 0.159256
H7    H     H_    0.323384 0.709053 0.775646 0.142744
H8    H     H_    0.370025 0.979557 0.078972 0.114668
H9    H     H_    0.286539 0.934238 0.870956 0.121890
H10   H     H_    0.116075 0.360392 0.650214 0.131767
H11   H     H_    0.889603 0.358944 0.650120 0.127910
H12   H     H_    0.354352 0.134660 0.367669 0.124834
I1    I     I_    0.828365 0.685634 0.256409 -0.310576
I2    I     I_    0.159183 0.678576 0.251701 -0.360137
N1    N     N_R   0.500000 0.852070 0.500000 -0.229916
N2    N     N_R   0.500000 0.147940 0.500000 -0.228916
O1    O     O_R   0.319640 0.618740 0.499990 -0.493779
O2    O     O_R   0.680360 0.618740 0.500010 -0.479146
O3    O     O_R   0.319620 0.381170 0.499990 -0.504426
O4    O     O_R   0.680380 0.381170 0.500010 -0.501012
O5    O     O_R   0.500000 0.618810 0.319650 -0.499782
O6    O     O_R   0.500000 0.618810 0.680350 -0.515255
O7    O     O_R   0.499970 0.381240 0.319640 -0.503668
O8    O     O_R   0.500030 0.381240 0.680360 -0.512449

loop_
_geom_bond_atom_site_label_1
_geom_bond_atom_site_label_2
_ccdc_geom_bond_type
C7    C10   A    
C20   N2    A    
C18   I1    S    
C9    C24   S    
C22   H3    S    
C11   C13   A    
Cu1   O5    S    
C1    C17   S    
C23   N1    A    
C11   H1    S    
C5    H8    S    
Cu1   O1    S    
C21   C23   A    
C7    C8    A    
C12   O2    A    
C9    C11   A    
C14   C17   A    
C1    O3    A    
C3    H6    S    
C1    O1    A    
C4    C7    A    
C15   C16   A    
Cu1   O2    S    
C12   O4    A    
C17   C19   A    
C21   H2    S    
C20   C22   A    
C3    C8    A    
Cu2   O8    S    
C14   H10   S    
C5    C6    A    
C22   N1    A    
C19   I2    S    
Cu2   O4    S    
C4    C6    A    
C21   N2    A    
C2    C10   S    
C23   H4    S    
C20   H12   S    
C6    H9    S    
Cu2   N2    S    
C16   C18   A    
C18   C19   A    
Cu2   O7    S    
Cu1   N1    S    
C24   O7    A    
C14   C15   A    
C15   H11   S    
C2    O8    A    
Cu2   O3    S    
C2    O6    A    
Cu1   Cu2   S    
C4    H7    S    
C24   O5    A    
Cu1   O6    S    
C13   H5    S    
C12   C16   S    
C8    C9    A    
C3    C5    A    
C10   C13   A    
