data_mof_unit_1987.cif
_audit_creation_date              2013-03-05T16:00:48-0500
_audit_creation_method            fapswitch 2.2
_symmetry_space_group_name_H-M    P1
_symmetry_Int_Tables_number       1
_space_group_crystal_system       triclinic
_cell_length_a                    14.750276
_cell_length_b                    14.749341
_cell_length_c                    15.87664
_cell_angle_alpha                 76.108157
_cell_angle_beta                  102.524055
_cell_angle_gamma                 115.463503
_cell_volume                      3001.77714063

loop_
_atom_site_label
_atom_site_type_symbol
_atom_site_description
_atom_site_fract_x
_atom_site_fract_y
_atom_site_fract_z
_atom_type_partial_charge
O1    O     O_R   0.977910 0.338120 0.529720 -0.591943
O2    O     O_R   0.839850 0.379180 0.491640 -0.553580
C1    C     C_R   0.879985 0.312003 0.515011 0.818557
O3    O     O_R   0.069060 0.479460 0.639610 -0.566474
O4    O     O_R   0.931000 0.520530 0.601530 -0.513372
C2    C     C_R   0.999718 0.499975 0.659459 0.848631
Cu1   Cu    Cu3+1 0.081750 0.475690 0.522550 1.011330
Cu2   Cu    Cu3+1 0.918250 0.524310 0.477450 1.016585
O5    O     O_R   0.160150 0.620820 0.508360 -0.573083
O6    O     O_R   0.022090 0.661880 0.470280 -0.591721
O7    O     O_R   0.069000 0.479470 0.398470 -0.564665
O8    O     O_R   0.930940 0.520540 0.360390 -0.593122
C3    C     C_R   0.119845 0.687851 0.486876 0.821221
C4    C     C_R   0.000343 0.500116 0.340498 0.803091
C5    C     C_3   0.082803 0.463200 0.975559 0.054522
C6    C     C_3   0.894232 0.428120 0.947002 0.127965
C7    C     C_3   0.893243 0.436559 0.042740 -0.495694
H1    H     H_    0.882039 0.348514 0.947163 0.191678
H2    H     H_    0.863778 0.358715 0.081977 0.185975
H3    H     H_    0.841283 0.472199 0.045455 0.244157
C8    C     C_1   0.000970 0.500097 0.251042 -0.121974
C9    C     C_3   0.000678 0.500344 0.916843 -0.117035
C10   C     C_3   0.073129 0.450242 0.074267 0.124660
C11   C     C_3   0.001877 0.500148 0.083498 0.023873
C12   C     C_3   0.034161 0.610684 0.031545 -0.398476
C13   C     C_3   0.026414 0.610486 0.932171 0.128126
C14   C     C_1   0.001347 0.500131 0.175603 0.039282
C15   C     C_1   0.999647 0.500305 0.824339 0.112707
C16   C     C_1   0.999315 0.500201 0.748832 -0.014464
H4    H     H_    0.962697 0.632151 0.898537 0.199100
H5    H     H_    0.111222 0.659711 0.058433 0.255927
H6    H     H_    0.158159 0.523078 0.962446 0.224891
C17   C     C_R   0.811223 0.203585 0.529759 -0.069308
C18   C     C_R   0.187216 0.795430 0.488917 -0.124918
C19   C     C_R   0.780722 0.025654 0.579276 -0.114390
C20   C     C_R   0.848023 0.126918 0.560646 -0.141615
C21   C     C_R   0.706659 0.177488 0.516778 -0.169048
C22   C     C_R   0.637558 0.076711 0.539525 0.083943
C23   C     C_R   0.676012 0.000059 0.569338 0.068074
C24   C     C_R   0.531630 0.050177 0.532511 0.047033
C25   C     C_R   0.464512 0.945788 0.546403 -0.026878
C26   C     C_R   0.505951 0.871330 0.584407 0.290949
C27   C     C_R   0.610337 0.899179 0.592340 -0.240744
C28   C     C_R   0.490657 0.124697 0.514045 -0.179933
C29   C     C_R   0.387181 0.098152 0.504989 -0.144484
C30   C     C_R   0.319365 0.996425 0.507735 0.045465
C31   C     C_R   0.358559 0.920448 0.522145 0.076438
C32   C     C_R   0.213234 0.969196 0.491512 0.349274
C33   C     C_R   0.148324 0.868515 0.482737 -0.216239
C34   C     C_R   0.291703 0.822997 0.505137 -0.160677
H7    H     H_    0.640988 0.841949 0.620491 0.202275
H8    H     H_    0.320578 0.767899 0.502440 0.178704
H9    H     H_    0.067193 0.847125 0.472408 0.198660
H10   H     H_    0.361181 0.159189 0.490485 0.188100
H11   H     H_    0.810716 0.967417 0.603087 0.169411
H12   H     H_    0.680895 0.237462 0.487961 0.159720
N1    N     N_R   0.795410 0.560790 0.443550 -0.229746
N2    N     N_R   0.204590 0.439170 0.556520 -0.215085
C35   C     C_R   0.709774 0.655954 0.342245 -0.268451
C36   C     C_R   0.791952 0.627967 0.368805 0.029820
C37   C     C_R   0.717139 0.517199 0.493841 0.433686
C38   C     C_R   0.625849 0.533201 0.463139 -0.101566
C39   C     C_R   0.626857 0.609506 0.389638 0.105916
C40   C     C_R   0.535073 0.478387 0.503941 0.095656
C41   C     C_R   0.454977 0.513216 0.481911 0.112477
C42   C     C_R   0.463331 0.595507 0.412214 -0.163147
C43   C     C_R   0.545918 0.639919 0.365145 -0.128902
C44   C     C_R   0.518319 0.384892 0.560383 -0.162568
C45   C     C_R   0.434928 0.335249 0.605263 -0.086839
C46   C     C_R   0.361629 0.374834 0.593730 0.027664
C47   C     C_R   0.368207 0.461903 0.528567 -0.033816
C48   C     C_R   0.278131 0.325001 0.641997 0.258068
C49   C     C_R   0.199660 0.358550 0.620518 0.053107
C50   C     C_R   0.285951 0.491884 0.511848 0.083039
H13   H     H_    0.547343 0.700191 0.310012 0.163780
H14   H     H_    0.283464 0.555442 0.462595 0.127761
H15   H     H_    0.133864 0.320258 0.654982 0.171195
H16   H     H_    0.426992 0.263201 0.646960 0.209002
H17   H     H_    0.710719 0.713064 0.284524 0.170225
H18   H     H_    0.854839 0.662432 0.330949 0.155375
H19   H     H_    0.566423 0.345326 0.567495 0.180837
H20   H     H_    0.035946 0.367540 0.100391 0.167479
N3    N     N_R   0.173029 0.489704 0.126473 0.140034
O9    O     O_R   0.236411 0.583834 0.108546 -0.313630
O10   O     O_R   0.199999 0.429066 0.190832 -0.308089
H21   H     H_    0.983372 0.644872 0.040438 0.179333
H22   H     H_    0.928587 0.145163 0.571055 0.188270
N4    N     N_R   0.078944 0.369804 0.953963 0.130353
O11   O     O_R   0.151798 0.374554 0.916984 -0.266191
O12   O     O_R   0.007396 0.281229 0.975437 -0.341861
N5    N     N_R   0.446130 0.771152 0.626476 0.118437
O13   O     O_R   0.383017 0.759696 0.678042 -0.282093
O14   O     O_R   0.464982 0.693518 0.623649 -0.348326
H23   H     H_    0.536762 0.204868 0.508541 0.135922
N6    N     N_R   0.169931 0.041475 0.485970 0.120173
O15   O     O_R   0.089275 0.037318 0.430998 -0.335525
O16   O     O_R   0.199466 0.098902 0.545639 -0.336672
N7    N     N_R   0.735367 0.474102 0.583717 0.123756
O17   O     O_R   0.734208 0.518135 0.645118 -0.280612
O18   O     O_R   0.741556 0.385923 0.604959 -0.364186
N8    N     N_R   0.809821 0.445798 0.887192 0.157213
O19   O     O_R   0.750437 0.379331 0.837148 -0.255356
O20   O     O_R   0.788173 0.522371 0.887782 -0.316490
H24   H     H_    0.405503 0.625192 0.390228 0.141287
N9    N     N_R   0.271905 0.241529 0.712692 0.140688
O21   O     O_R   0.184773 0.166732 0.725066 -0.280890
O22   O     O_R   0.348647 0.248749 0.773374 -0.275154
N10   N     N_R   0.117259 0.687965 0.894146 0.138365
O23   O     O_R   0.208011 0.702822 0.934492 -0.279063
O24   O     O_R   0.106889 0.748790 0.821838 -0.291146

loop_
_geom_bond_atom_site_label_1
_geom_bond_atom_site_label_2
_geom_bond_distance
_ccdc_geom_bond_type
C12   H5    1.108227 S    
N8    O19   1.301319 A    
C32   N6    1.438177 S    
C25   C26   1.429268 A    
N6    O15   1.301352 A    
C11   C14   1.463967 S    
C7    H3    1.112306 S    
Cu1   Cu2   2.708267 S    
C29   C30   1.396669 A    
Cu1   O7    1.927400 S    
N9    O22   1.301357 A    
C21   C22   1.406357 A    
C50   H14   1.075520 S    
C44   H19   1.070713 S    
C40   C44   1.405470 A    
C4    C8    1.422360 S    
C15   C16   1.198113 T    
C10   H20   1.114087 S    
O4    C2    1.300485 A    
O7    C4    1.300681 A    
C1    C17   1.472830 S    
N7    O17   1.301217 A    
C17   C20   1.399965 A    
N10   O23   1.301355 A    
C26   N5    1.438234 S    
O5    C3    1.304902 A    
C38   C40   1.435269 A    
C47   C50   1.415420 A    
C21   H12   1.074964 S    
C5    C9    1.572341 S    
C36   H18   1.081534 S    
C19   C20   1.394278 A    
C44   C45   1.382755 A    
C34   H8    1.079755 S    
C10   C11   1.565781 S    
C46   C47   1.423862 A    
Cu1   N2    2.034698 S    
C5    C10   1.562882 S    
C42   C43   1.394677 A    
C8    C14   1.198823 T    
C35   C36   1.393742 A    
N8    O20   1.301555 A    
C9    C15   1.465566 S    
C45   H16   1.081692 S    
C45   C46   1.396046 A    
O3    Cu1   1.923970 S    
C31   C34   1.401224 A    
C30   C32   1.418620 A    
C20   H22   1.083097 S    
C39   C43   1.397557 A    
C18   C34   1.395097 A    
C7    C11   1.554176 S    
C19   H11   1.083864 S    
C42   H24   1.076908 S    
C5    H6    1.107594 S    
C11   C12   1.556338 S    
O3    C2    1.299503 A    
C13   N10   1.472687 S    
N5    O13   1.301666 A    
C6    C7    1.558245 S    
N1    C36   1.358373 A    
C23   C27   1.392405 A    
C12   C13   1.557569 S    
C41   C47   1.438275 A    
C17   C21   1.399716 A    
O1    C1    1.306804 A    
C19   C23   1.405153 A    
C38   C39   1.411070 A    
Cu2   N1    2.034342 S    
N5    O14   1.301670 A    
N3    O9    1.300831 A    
Cu2   O8    1.923972 S    
C25   C31   1.426994 A    
C48   N9    1.438016 S    
C10   N3    1.470231 S    
Cu2   O6    1.941244 S    
C32   C33   1.400072 A    
N3    O10   1.301182 A    
N4    O12   1.301298 A    
C29   H10   1.081470 S    
C13   H4    1.108682 S    
N7    O18   1.300663 A    
C43   H13   1.084051 S    
C26   C27   1.397232 A    
C35   H17   1.083665 S    
C28   C29   1.386215 A    
N2    C50   1.360070 A    
Cu1   O5    1.929509 S    
C30   C31   1.420888 A    
C24   C25   1.421364 A    
C18   C33   1.399015 A    
C6    C9    1.572335 S    
O1    Cu1   1.941245 S    
O2    Cu2   1.929509 S    
O8    C4    1.299832 A    
C48   C49   1.393263 A    
O6    C3    1.305390 A    
O4    Cu2   1.927400 S    
N6    O16   1.301416 A    
N1    C37   1.377991 A    
N9    O21   1.301428 A    
C35   C39   1.400875 A    
C40   C41   1.427720 A    
O2    C1    1.304771 A    
C3    C18   1.470075 S    
C22   C24   1.423570 A    
C37   N7    1.434397 S    
C27   H7    1.084450 S    
C22   C23   1.414897 A    
C33   H9    1.083335 S    
C12   H21   1.113694 S    
C7    H2    1.113602 S    
N10   O24   1.301334 A    
C37   C38   1.428240 A    
C28   H23   1.073799 S    
C6    N8    1.472214 S    
C24   C28   1.413807 A    
C2    C16   1.421043 S    
N4    O11   1.301360 A    
C6    H1    1.108212 S    
C41   C42   1.413648 A    
C9    C13   1.569035 S    
C49   H15   1.082068 S    
C46   C48   1.415925 A    
N2    C49   1.352462 A    
C5    N4    1.472836 S    
