data_mof_unit_940.cif
_audit_creation_date              2012-12-10T19:45:54-0500
_audit_creation_method            fapswitch 2.2
_symmetry_space_group_name_H-M    P1
_symmetry_Int_Tables_number       1
_space_group_crystal_system       triclinic
_cell_length_a                    10.868661
_cell_length_b                    14.930937
_cell_length_c                    14.202765
_cell_angle_alpha                 90.188542
_cell_angle_beta                  104.139527
_cell_angle_gamma                 90.520362
_cell_volume                      2234.85910252

loop_
_atom_site_label
_atom_site_type_symbol
_atom_type_description
_atom_site_fract_x
_atom_site_fract_y
_atom_site_fract_z
_atom_type_partial_charge
C1    C     C_R   0.505586 0.327319 0.500933 0.884994
C2    C     C_R   0.499985 0.671968 0.499888 0.925591
C3    C     C_R   0.558249 0.046947 0.500365 0.036174
C4    C     C_R   0.551830 0.949867 0.497041 0.037179
C5    C     C_R   0.388935 0.470601 0.085242 0.255033
C6    C     C_R   0.548218 0.574384 0.904152 0.280103
C7    C     C_R   0.397542 0.464633 0.186384 0.384838
C8    C     C_R   0.558680 0.568339 0.806696 0.400790
C9    C     C_R   0.598660 0.537008 0.221586 0.482393
C10   C     C_R   0.436214 0.434177 0.783251 0.511163
C11   C     C_R   0.600002 0.533613 0.122618 -0.396628
C12   C     C_R   0.438963 0.432144 0.883276 -0.414019
C13   C     C_R   0.493971 0.501989 0.052103 -0.004388
C14   C     C_R   0.493636 0.502938 0.945397 -0.026875
C15   C     C_R   0.259373 0.500901 0.459479 0.951128
C16   C     C_R   0.740766 0.500258 0.540560 0.918389
C17   C     C_2   0.123350 0.501461 0.436228 -0.349988
C18   C     C_2   0.876962 0.504085 0.563836 -0.401025
C19   C     C_2   0.067341 0.510770 0.508965 -0.200459
C20   C     C_2   0.933081 0.501834 0.490630 -0.117886
C21   C     C_R   0.548161 0.089351 0.585879 -0.298181
C22   C     C_R   0.451364 0.909855 0.428511 -0.291984
C23   C     C_R   0.539641 0.182014 0.589949 0.475284
C24   C     C_R   0.434681 0.817354 0.426753 0.461137
C25   C     C_R   0.526257 0.231121 0.503441 -0.160407
C26   C     C_R   0.512566 0.767252 0.500577 -0.128625
C27   C     C_R   0.541370 0.188488 0.418721 -0.319054
C28   C     C_R   0.613265 0.806459 0.568765 -0.313673
C29   C     C_R   0.559888 0.096978 0.417191 0.037283
C30   C     C_R   0.635317 0.897770 0.566401 0.035693
H1    H     H_    0.879943 0.492785 0.415695 0.233036
H2    H     H_    0.120820 0.522457 0.583496 0.180694
H3    H     H_    0.684275 0.556305 0.101652 0.224051
H4    H     H_    0.399048 0.374843 0.911924 0.227333
H5    H     H_    0.930664 0.511054 0.638940 0.136721
H6    H     H_    0.069524 0.491407 0.361571 0.170276
H7    H     H_    0.544957 0.050239 0.649394 0.156383
H8    H     H_    0.384946 0.950766 0.377534 0.147140
H9    H     H_    0.539720 0.226314 0.353510 0.177943
H10   H     H_    0.676776 0.765083 0.621294 0.182531
N1    N     N_R   0.500000 0.499980 0.252470 -0.182866
N2    N     N_R   0.500000 0.500020 0.747530 -0.196447
O1    O     O_R   0.500010 0.369070 0.579480 -0.518627
O2    O     O_R   0.499990 0.630930 0.420520 -0.597423
O3    O     O_R   0.500010 0.369060 0.420520 -0.635148
O4    O     O_R   0.499990 0.630940 0.579480 -0.578806
O5    O     O_R   0.317810 0.500010 0.549800 -0.628368
O6    O     O_R   0.682190 0.499990 0.450200 -0.564536
O7    O     O_R   0.317810 0.500000 0.390840 -0.550903
O8    O     O_R   0.682190 0.500000 0.609160 -0.634921
Zn1   Zn    Zn3+2 0.500000 0.500010 0.606140 1.002554
Zn2   Zn    Zn3+2 0.500000 0.499990 0.393860 1.005742
O9    O     O_3   0.539274 0.224074 0.677003 -0.557317
C31   C     C_3   0.658655 0.212438 0.743097 0.128345
H11   H     H_    0.738818 0.224257 0.708084 0.120659
H12   H     H_    0.665594 0.143736 0.773872 0.137939
C32   C     C_3   0.673413 0.278966 0.826455 -0.775116
H13   H     H_    0.764703 0.267609 0.880428 0.190997
H14   H     H_    0.673569 0.348385 0.798716 0.246551
H15   H     H_    0.594451 0.270331 0.862738 0.261964
O10   O     O_3   0.337384 0.775058 0.358957 -0.610671
C33   C     C_3   0.342309 0.798064 0.263309 0.126272
H16   H     H_    0.441015 0.810700 0.256145 0.121199
H17   H     H_    0.284706 0.858843 0.240132 0.147665
C34   C     C_3   0.286847 0.721293 0.194871 -0.838688
H18   H     H_    0.187000 0.707988 0.197377 0.262570
H19   H     H_    0.289375 0.738675 0.119384 0.190608
H20   H     H_    0.343221 0.659818 0.216463 0.255403
C35   C     C_1   0.578639 0.055758 0.329544 0.134409
N3    N     N_1   0.593581 0.022668 0.259428 -0.228245
C36   C     C_1   0.743920 0.936234 0.634690 0.139105
N4    N     N_1   0.830849 0.967050 0.689404 -0.224718
O11   O     O_3   0.277715 0.444738 0.020060 -0.615358
C37   C     C_3   0.198133 0.519922 0.999058 0.153622
H21   H     H_    0.240624 0.571523 0.959861 0.117779
H22   H     H_    0.180519 0.549978 0.066492 0.159046
C38   C     C_3   0.070948 0.491033 0.934210 -0.860220
H23   H     H_    0.024172 0.441356 0.972418 0.262304
H24   H     H_    0.009064 0.550263 0.915747 0.194279
H25   H     H_    0.084392 0.460641 0.866074 0.245886
O12   O     O_3   0.594030 0.649680 0.958791 -0.609064
C39   C     C_3   0.495295 0.712595 0.946695 0.132988
H26   H     H_    0.408301 0.682734 0.962680 0.111525
H27   H     H_    0.471900 0.739080 0.871263 0.169005
C40   C     C_3   0.537988 0.790358 0.016818 -0.847597
H28   H     H_    0.625282 0.821901 0.003906 0.260303
H29   H     H_    0.462078 0.841291 0.006162 0.211610
H30   H     H_    0.557490 0.766117 0.092782 0.237414
O13   O     O_3   0.297230 0.429847 0.218735 -0.568321
C41   C     C_3   0.294860 0.335676 0.208469 0.164568
H31   H     H_    0.391020 0.306373 0.234556 0.114639
H32   H     H_    0.255932 0.316062 0.131286 0.172187
C42   C     C_3   0.209242 0.295707 0.267995 -0.821390
H33   H     H_    0.111626 0.322161 0.242498 0.250319
H34   H     H_    0.205965 0.221656 0.259978 0.203637
H35   H     H_    0.246197 0.313019 0.345939 0.255088
O14   O     O_3   0.621654 0.634952 0.769154 -0.574105
C43   C     C_3   0.754463 0.628151 0.807949 0.155241
H36   H     H_    0.798754 0.606415 0.749186 0.149294
H37   H     H_    0.783195 0.579225 0.868529 0.112321
C44   C     C_3   0.809896 0.719498 0.844522 -0.823157
H38   H     H_    0.914630 0.714889 0.870539 0.196007
H39   H     H_    0.787296 0.769562 0.785487 0.249812
H40   H     H_    0.770803 0.742494 0.905520 0.285928
O15   O     O_3   0.700583 0.573541 0.288628 -0.591264
C45   C     C_3   0.700055 0.667543 0.278224 0.102709
H41   H     H_    0.604053 0.695718 0.273273 0.141143
H42   H     H_    0.732514 0.686503 0.212470 0.149443
C46   C     C_3   0.790876 0.709286 0.366516 -0.786837
H43   H     H_    0.888621 0.684717 0.372455 0.259596
H44   H     H_    0.790593 0.783342 0.359481 0.208913
H45   H     H_    0.761058 0.691358 0.433533 0.253034
O16   O     O_3   0.380078 0.365019 0.722347 -0.526590
C47   C     C_3   0.248152 0.359322 0.715925 0.129506
H46   H     H_    0.197467 0.365271 0.638290 0.166030
H47   H     H_    0.210532 0.413036 0.755712 0.100621
C48   C     C_3   0.215456 0.268003 0.751115 -0.818003
H48   H     H_    0.262838 0.259417 0.829053 0.247385
H49   H     H_    0.111231 0.262038 0.741760 0.205261
H50   H     H_    0.246894 0.214171 0.708393 0.274192

loop_
_geom_bond_atom_site_label_1
_geom_bond_atom_site_label_2
_ccdc_geom_bond_type
C24   O10   S    
C10   N2    A    
O11   C37   S    
C19   C20   S    
C15   O5    A    
O1    Zn1   S    
C16   O6    A    
C30   C36   S    
C41   H31   S    
C40   H28   S    
C2    O4    A    
C42   H33   S    
C37   H22   S    
C16   O8    A    
C48   H49   S    
C32   H14   S    
C27   C29   A    
C45   H41   S    
C28   H10   S    
C9    O15   S    
C22   H8    S    
O14   C43   S    
C3    C29   A    
C33   H17   S    
C1    O1    A    
C7    N1    A    
C27   H9    S    
C34   H19   S    
C37   C38   S    
C17   H6    S    
C18   H5    S    
N1    Zn2   S    
C5    C13   A    
N2    Zn1   S    
O2    Zn2   S    
C40   H29   S    
C44   H39   S    
C6    O12   S    
C13   C14   S    
C1    C25   S    
O10   C33   S    
C19   H2    S    
C23   O9    S    
C29   C35   S    
C38   H24   S    
C31   H12   S    
C37   H21   S    
C44   H38   S    
C11   H3    S    
C48   H50   S    
C2    O2    A    
C5    C7    A    
C32   H15   S    
O5    Zn1   S    
O3    Zn2   S    
C38   H23   S    
O4    Zn1   S    
C39   H26   S    
O12   C39   S    
C46   H45   S    
C47   H47   S    
C8    O14   S    
C33   H16   S    
C6    C14   A    
C4    C22   A    
C41   H32   S    
C34   H20   S    
O8    Zn1   S    
C2    C26   S    
C9    C11   A    
C10   O16   S    
C10   C12   A    
C16   C18   S    
C12   C14   A    
C34   H18   S    
C42   H35   S    
C39   H27   S    
C21   C23   A    
C20   H1    S    
C22   C24   A    
C3    C21   A    
C12   H4    S    
C3    C4    S    
C39   C40   S    
C40   H30   S    
C41   C42   S    
O16   C47   S    
C38   H25   S    
C15   C17   S    
C31   H11   S    
C33   C34   S    
C26   C28   A    
C24   C26   A    
O7    Zn2   S    
C8    N2    A    
C6    C8    A    
O9    C31   S    
C9    N1    A    
C25   C27   A    
C43   C44   S    
O15   C45   S    
C43   H37   S    
C46   H44   S    
C36   N4    T    
C46   H43   S    
C11   C13   A    
C1    O3    A    
C32   H13   S    
C45   H42   S    
C28   C30   A    
C17   C19   D    
C18   C20   D    
C47   H46   S    
C15   O7    A    
C5    O11   S    
C35   N3    T    
C47   C48   S    
O6    Zn2   S    
C23   C25   A    
C21   H7    S    
C42   H34   S    
C43   H36   S    
C44   H40   S    
O13   C41   S    
C48   H48   S    
C45   C46   S    
C4    C30   A    
C31   C32   S    
C7    O13   S    
