data_mof_unit_147.cif
_audit_creation_date              2012-12-11T15:49:23-0500
_audit_creation_method            fapswitch 2.2
_symmetry_space_group_name_H-M    P1
_symmetry_Int_Tables_number       1
_space_group_crystal_system       triclinic
_cell_length_a                    8.291326
_cell_length_b                    19.023608
_cell_length_c                    26.965751
_cell_angle_alpha                 94.889358
_cell_angle_beta                  93.135092
_cell_angle_gamma                 85.311247
_cell_volume                      4218.79334136

loop_
_atom_site_label
_atom_site_type_symbol
_atom_type_description
_atom_site_fract_x
_atom_site_fract_y
_atom_site_fract_z
_atom_type_partial_charge
Ba1   Ba    Ba6+2 0.854000 0.466860 0.523710 1.811391
Ba2   Ba    Ba6+2 0.335820 0.533080 0.476290 1.825312
C1    C     C_3   0.689646 0.207836 0.661362 -0.381897
C2    C     C_3   0.666249 0.278510 0.638737 0.356039
C3    C     C_3   0.483773 0.669245 0.629387 0.332738
C4    C     C_3   0.469490 0.715537 0.678432 0.515353
C5    C     C_3   0.007962 0.711179 0.337109 0.360704
C6    C     C_3   0.937384 0.771589 0.306558 1.102000
C7    C     C_3   0.509806 0.724701 0.360652 0.582130
C8    C     C_3   0.485629 0.794455 0.336333 0.529454
C9    C     C_R   0.988599 0.450357 0.178412 0.593664
C10   C     C_R   0.946353 0.576663 0.180598 0.620739
C11   C     C_2   0.767415 0.554610 0.272070 -0.067140
C12   C     C_3   0.199969 0.243758 0.655174 0.376773
C13   C     C_3   0.746549 0.574128 0.327024 0.018582
C14   C     C_1   0.980952 0.490040 0.343263 -0.044989
C15   C     C_2   0.018651 0.485000 0.295520 -0.104712
C16   C     C_2   0.905326 0.517728 0.256699 0.220125
C17   C     C_R   0.025621 0.509813 0.103056 -0.116043
C18   C     C_R   0.028495 0.447147 0.127756 -0.031254
C19   C     C_R   0.070355 0.382243 0.101196 -0.044749
C20   C     C_R   0.981298 0.575295 0.129413 -0.031089
C21   C     C_2   0.850815 0.527410 0.360174 -0.209633
C22   C     C_2   0.339880 0.473502 0.640159 -0.229840
C23   C     C_3   0.164283 0.188758 0.692150 0.126836
C24   C     C_R   0.125431 0.437511 0.972593 -0.060166
C25   C     C_R   0.125383 0.567482 0.978018 0.063311
C26   C     C_R   0.142119 0.500947 0.949629 0.015393
C27   C     C_R   0.134139 0.373060 0.942329 -0.137115
C28   C     C_R   0.164862 0.370245 0.891897 0.644432
C29   C     C_R   0.189149 0.432137 0.869080 -0.111688
C30   C     C_R   0.177763 0.497609 0.897998 -0.158576
C31   C     C_R   0.203169 0.559657 0.875379 -0.027553
C32   C     C_R   0.237436 0.555901 0.824176 0.600693
C33   C     C_R   0.224843 0.430110 0.818097 0.633624
C34   C     C_3   0.162200 0.311734 0.415670 0.310471
C35   C     C_2   0.427607 0.449896 0.728981 -0.091397
C36   C     C_3   0.448242 0.429601 0.674116 -0.019351
C37   C     C_1   0.210822 0.511649 0.657112 0.028995
C38   C     C_2   0.175448 0.518649 0.705054 -0.086967
C39   C     C_2   0.290221 0.487315 0.743947 0.216794
C40   C     C_R   0.099324 0.440337 0.024749 0.050463
C41   C     C_R   0.066013 0.506774 0.051792 0.045683
C42   C     C_R   0.070280 0.570096 0.027767 0.014798
C43   C     C_R   0.104538 0.378782 0.050966 -0.092638
C44   C     C_R   0.969275 0.637218 0.103364 0.151668
C45   C     C_3   0.098014 0.238907 0.402909 -0.151456
C46   C     C_R   0.169358 0.628115 0.955633 0.110426
C47   C     C_R   0.201390 0.623866 0.904887 -0.074006
C48   C     C_R   0.010062 0.633625 0.053462 -0.106721
C49   C     C_R   0.402779 0.299036 0.523931 0.317883
C50   C     C_R   0.539365 0.276314 0.497277 -0.005306
C51   C     C_R   0.590385 0.203988 0.492031 -0.233539
C52   C     C_R   0.502246 0.153765 0.512329 0.042806
C53   C     C_R   0.359093 0.177631 0.536729 -0.172354
C54   C     C_R   0.308971 0.250073 0.542080 -0.045978
C55   C     C_R   0.553288 0.030678 0.542903 0.133801
C56   C     C_3   0.002793 0.684439 0.582700 0.213179
C57   C     C_R   0.600032 0.958280 0.533699 -0.147211
C58   C     C_R   0.645452 0.929514 0.486295 0.005647
C59   C     C_R   0.643991 0.975028 0.447777 0.678126
C60   C     C_R   0.598258 0.047427 0.456768 -0.169664
C61   C     C_R   0.552125 0.076392 0.504208 0.016666
C62   C     C_R   0.837710 0.826134 0.455507 0.658715
C63   C     C_R   0.885134 0.753139 0.452581 -0.076195
C64   C     C_R   0.649401 0.731547 0.496179 0.028754
C65   C     C_R   0.599118 0.803699 0.498559 -0.239196
C66   C     C_R   0.691756 0.852032 0.477998 -0.016679
C67   C     C_3   0.960763 0.762506 0.600246 0.508699
C68   C     C_R   0.786024 0.706202 0.470671 0.269806
C69   C     C_3   0.692396 0.373642 0.374699 0.856105
C70   C     C_3   0.702874 0.350956 0.318937 -0.081564
H1    H     H_    0.717632 0.272579 0.601252 0.070867
H2    H     H_    0.130749 0.218382 0.364544 0.124103
H3    H     H_    0.963585 0.244184 0.403716 0.106829
H4    H     H_    0.891910 0.661036 0.566664 0.046553
H5    H     H_    0.093636 0.680751 0.553739 0.068921
H6    H     H_    0.861021 0.766040 0.626469 0.101811
H7    H     H_    0.815962 0.381012 0.390495 -0.111905
H8    H     H_    0.815286 0.184480 0.657111 0.138973
H9    H     H_    0.782779 0.301275 0.313999 0.074534
H10   H     H_    0.758261 0.392177 0.300285 0.070029
H11   H     H_    0.533447 0.291892 0.634328 -0.069043
H12   H     H_    0.606256 0.171156 0.641675 0.089883
H13   H     H_    0.360571 0.667818 0.611459 0.026243
H14   H     H_    0.371047 0.698545 0.699958 0.000502
H15   H     H_    0.584890 0.710767 0.701302 0.031559
H16   H     H_    0.662480 0.214482 0.701427 0.133658
H17   H     H_    0.905343 0.690321 0.354390 -0.030723
H18   H     H_    0.034246 0.792784 0.286651 0.070664
H19   H     H_    0.642008 0.714103 0.368102 -0.427445
H20   H     H_    0.450106 0.730581 0.396780 0.025676
H21   H     H_    0.546138 0.835883 0.360221 0.091297
H22   H     H_    0.539218 0.788596 0.299290 0.120193
H23   H     H_    0.133594 0.458499 0.284451 0.119126
H24   H     H_    0.076142 0.333248 0.119201 0.131959
H25   H     H_    0.510992 0.425447 0.756090 0.092723
H26   H     H_    0.113297 0.323402 0.956385 0.113777
H27   H     H_    0.138582 0.326777 0.033910 0.082157
H28   H     H_    0.682548 0.578942 0.245305 0.111977
H29   H     H_    0.301625 0.218938 0.633196 -0.032168
H30   H     H_    0.231144 0.671419 0.889060 0.127364
H31   H     H_    0.062320 0.546613 0.716413 0.100080
H32   H     H_    0.984585 0.681411 0.034751 0.108228
H33   H     H_    0.828326 0.532839 0.399571 0.160788
H34   H     H_    0.357963 0.464874 0.600563 0.137314
H35   H     H_    0.492536 0.822504 0.518752 0.134923
H36   H     H_    0.602627 0.924516 0.564181 0.147386
H37   H     H_    0.696672 0.186874 0.471241 0.109379
H38   H     H_    0.595807 0.080831 0.426116 0.109428
H39   H     H_    0.282492 0.140025 0.549409 0.109057
H40   H     H_    0.094294 0.147813 0.670759 0.114950
H41   H     H_    0.295796 0.305996 0.421486 0.005537
H42   H     H_    0.107219 0.336039 0.450296 0.087459
N1    N     N_R   0.947608 0.514659 0.204399 -0.435885
N2    N     N_R   0.248865 0.491489 0.796169 -0.434808
O1    O     O_2   0.913240 0.537010 0.617740 -0.458161
O2    O     O_3   0.624793 0.321017 0.398172 -0.681889
O3    O     O_3   0.059546 0.258098 0.624569 -0.596583
O4    O     O_2   0.276450 0.462960 0.382230 -0.390418
O5    O     O_3   0.044470 0.462980 0.442430 -0.461156
O6    O     O_3   0.519740 0.589470 0.411120 -0.411454
O7    O     O_3   0.123553 0.350770 0.374361 -0.665996
O8    O     O_3   0.632420 0.583650 0.524140 -0.401034
O9    O     O_3   0.111040 0.625070 0.435230 -0.437353
O10   O     O_2   0.220435 0.750736 0.465935 -0.456847
O11   O     O_3   0.126803 0.736771 0.372029 -0.557615
O12   O     O_3   0.145240 0.536960 0.557560 -0.449089
O13   O     O_3   0.557280 0.416300 0.475860 -0.351509
O14   O     O_2   0.376710 0.670070 0.522470 -0.495437
O15   O     O_3   0.591283 0.698956 0.599855 -0.630897
O16   O     O_2   0.422219 0.532892 0.321448 -0.472701
O17   O     O_3   0.443007 0.670460 0.329130 -0.618471
O18   O     O_2   0.988371 0.395689 0.199143 -0.585252
O19   O     O_2   0.234401 0.373520 0.793076 -0.562245
O20   O     O_2   0.916837 0.633364 0.204287 -0.501745
O21   O     O_2   0.259261 0.609878 0.804758 -0.592053
O22   O     O_3   0.669960 0.410470 0.588880 -0.465367
O23   O     O_2   0.777909 0.466635 0.677989 -0.481734
O24   O     O_3   0.064659 0.649391 0.623944 -0.700887
O25   O     O_3   0.745053 0.330120 0.669581 -0.579104
O26   O     O_2   0.812980 0.329910 0.477500 -0.497133
O27   O     O_3   0.078660 0.374870 0.564770 -0.393173
O28   O     O_2   0.977915 0.250241 0.530587 -0.479583
P1    P     P_3+3 0.082480 0.557670 0.610090 1.009511
P2    P     P_3+3 0.635220 0.340300 0.462910 1.085462
P3    P     P_3+3 0.109711 0.282383 0.566190 1.038861
P4    P     P_3+3 0.107220 0.442270 0.389900 1.035293
P5    P     P_3+3 0.085985 0.717174 0.432084 1.129781
P6    P     P_3+3 0.661163 0.412845 0.653592 0.991334
P7    P     P_3+3 0.562258 0.672539 0.536062 1.035908
P8    P     P_3+3 0.532135 0.589057 0.346502 1.064571
N3    N     N_3   0.163946 0.188984 0.438180 -0.511551
H43   H     H_    0.283015 0.173031 0.428961 0.171500
H44   H     H_    0.099321 0.143811 0.432361 0.215772
F1    F     F_    0.908468 0.800171 0.560347 -0.755511
N4    N     N_3   0.099554 0.795482 0.625154 -0.407424
H45   H     H_    0.198106 0.786533 0.602205 0.218693
H46   H     H_    0.129742 0.772034 0.658426 0.197906
F2    F     F_    0.598519 0.436688 0.380899 -0.707766
N5    N     N_3   0.543728 0.339740 0.294716 -0.463351
H47   H     H_    0.491771 0.300050 0.311508 0.207178
H48   H     H_    0.468103 0.386263 0.299767 0.235841
N6    N     N_3   0.545726 0.598063 0.640668 -0.575309
H49   H     H_    0.547404 0.565076 0.607753 0.179883
H50   H     H_    0.665169 0.599867 0.654907 0.195094
F3    F     F_    0.436629 0.785846 0.669336 -0.688016
N7    N     N_3   0.312930 0.152063 0.712201 -0.454743
H51   H     H_    0.374927 0.124740 0.682820 0.169481
H52   H     H_    0.388681 0.188648 0.729989 0.191330
N8    N     N_3   0.081667 0.654093 0.304148 -0.482308
H53   H     H_    0.169543 0.673871 0.283940 0.219905
H54   H     H_    0.141017 0.616640 0.326340 0.188257
F4    F     F_    0.821423 0.747472 0.271882 -0.704718
F5    F     F_    0.866870 0.825699 0.337571 -0.653524
F6    F     F_    0.323156 0.815818 0.330349 -0.677272
N9    N     N_3   0.249226 0.310080 0.680622 -0.513327
H55   H     H_    0.341205 0.299826 0.707653 0.169527
H56   H     H_    0.150448 0.337621 0.697911 0.225279
F7    F     F_    0.170815 0.305936 0.865664 -0.657513
N10   N     N_3   0.911255 0.704406 0.126735 -0.403024
H57   H     H_    0.808072 0.723100 0.106321 0.182920
H58   H     H_    0.000344 0.739853 0.124949 0.197404
N11   N     N_3   0.199850 0.692635 0.984812 -0.508310
H59   H     H_    0.128187 0.734010 0.969545 0.181328
H60   H     H_    0.321290 0.702116 0.981848 0.188618
N12   N     N_3   0.510636 0.057494 0.592028 -0.516961
H61   H     H_    0.608059 0.044455 0.616708 0.194366
H62   H     H_    0.411951 0.031332 0.601485 0.192050
F8    F     F_    0.682138 0.949392 0.401034 -0.626159
N13   N     N_3   0.066223 0.219646 0.733330 -0.438276
H63   H     H_    0.136671 0.250684 0.758366 0.271660
H64   H     H_    0.970161 0.252601 0.719637 0.217812
F9    F     F_    0.939422 0.871767 0.440588 -0.605404
F10   F     F_    0.831060 0.635991 0.468080 -0.725325
F11   F     F_    0.353758 0.368803 0.528668 -0.727888

loop_
_geom_bond_atom_site_label_1
_geom_bond_atom_site_label_2
_ccdc_geom_bond_type
C25   C46   A    
N8    H53   S    
C48   H32   S    
N4    H45   S    
C5    N8    S    
O26   P2    D    
O15   P7    S    
C17   C18   A    
Ba1   O12   S    
C53   C54   A    
C34   H42   S    
C7    H19   S    
C69   H7    S    
N5    H47   S    
C67   H6    S    
C6    F5    S    
C56   H4    S    
C5    C6    S    
C64   C68   A    
N10   H57   S    
O22   P6    S    
O27   P3    S    
C69   F2    S    
N8    H54   S    
C35   C36   S    
C11   C16   D    
C62   C66   A    
C44   N10   S    
N6    H49   S    
Ba1   Ba2   S    
Ba1   O13   S    
C49   F11   S    
C28   C29   A    
O10   P5    D    
C6    F4    S    
O12   P1    S    
C55   C57   A    
C52   C61   S    
C8    H22   S    
O3    P3    S    
C63   C68   A    
C21   H33   S    
C10   C20   A    
C22   C37   D    
N11   H59   S    
C34   C45   S    
O1    P1    D    
C49   C54   A    
C3    O15   S    
C42   C48   A    
Ba1   O26   S    
C23   H40   S    
C52   C53   A    
Ba1   P1    S    
C25   C42   A    
C56   O24   S    
N11   H60   S    
C14   C15   D    
N9    H56   S    
C62   F9    S    
C67   N4    S    
C70   N5    S    
C15   H23   S    
N3    H44   S    
C9    N1    Am   
C7    C8    S    
C70   H9    S    
C56   H5    S    
C10   N1    Am   
C3    H13   S    
C13   C21   S    
N7    H52   S    
C64   C65   A    
C57   C58   A    
N4    H46   S    
C63   P5    S    
Ba1   P2    S    
O17   P8    S    
C1    H12   S    
O28   P3    D    
C34   H41   S    
C7    H20   S    
C35   H25   S    
C13   P8    S    
N5    H48   S    
C17   C41   A    
O25   P6    S    
C55   C61   A    
C19   C43   A    
Ba2   O6    S    
C23   N7    S    
C8    F6    S    
C9    C18   A    
C67   F1    S    
N12   H62   S    
C65   C66   A    
C3    N6    S    
O2    P2    S    
C17   C20   A    
C43   H27   S    
N10   H58   S    
C33   O19   D    
C47   H30   S    
C46   N11   S    
Ba2   O4    S    
C68   F10   S    
C12   H29   S    
C45   N3    S    
C8    H21   S    
C51   C52   A    
Ba2   P4    S    
C4    H15   S    
C49   C50   A    
C58   C59   A    
C40   C43   A    
O6    P8    S    
O24   P1    S    
C41   C42   A    
N13   H64   S    
C27   C28   A    
Ba1   O27   S    
N12   H61   S    
C22   C36   S    
C29   C30   A    
C60   H38   S    
C26   C30   A    
C37   P1    S    
C60   C61   A    
C15   C16   S    
C2    H1    S    
O5    P4    S    
C33   N2    Am   
Ba1   O1    S    
O7    P4    S    
O13   P2    S    
O9    P5    S    
N9    H55   S    
C27   H26   S    
N7    H51   S    
C20   C44   A    
O8    P7    S    
O4    P4    D    
C14   C21   D    
C11   C13   S    
C23   N13   S    
C59   F8    S    
O16   P8    D    
C29   C33   A    
C9    O18   D    
C22   H34   S    
C40   C41   A    
C39   N2    S    
C1    C2    S    
C2    O25   S    
C50   C51   A    
C24   C40   A    
Ba2   O5    S    
C51   H37   S    
N13   H63   S    
C4    F3    S    
C46   C47   A    
C50   P2    S    
C32   O21   D    
C69   O2    S    
C53   H39   S    
C1    H16   S    
C45   H2    S    
Ba2   O13   S    
C16   N1    S    
C56   C67   S    
C19   H24   S    
Ba2   O8    S    
C44   C48   A    
O23   P6    D    
C24   C26   A    
C57   H36   S    
C4    H14   S    
Ba2   O12   S    
C14   P4    S    
C30   C31   A    
C54   P3    S    
N6    H50   S    
Ba1   O8    S    
C45   H3    S    
C64   P7    S    
C62   C63   A    
C38   H31   S    
C65   H35   S    
C3    C4    S    
C2    H11   S    
C11   H28   S    
C70   H10   S    
C34   O7    S    
C1    H8    S    
Ba2   O14   S    
C31   C32   A    
C12   C23   S    
C35   C39   D    
C59   C60   A    
Ba1   O5    S    
C55   N12   S    
C12   N9    S    
C37   C38   D    
Ba2   O9    S    
C69   C70   S    
C6    H18   S    
C18   C19   A    
C58   C66   S    
C24   C27   A    
C12   O3    S    
C10   O20   D    
C31   C47   A    
O14   P7    D    
C28   F7    S    
C38   C39   S    
C5    O11   S    
N3    H43   S    
C32   N2    Am   
C36   P6    S    
O11   P5    S    
Ba1   O22   S    
C7    O17   S    
C25   C26   A    
C5    H17   S    
