data_mof_unit_1688.cif
_audit_creation_date              2012-12-10T17:34:36-0500
_audit_creation_method            fapswitch 2.2
_symmetry_space_group_name_H-M    P1
_symmetry_Int_Tables_number       1
_space_group_crystal_system       triclinic
_cell_length_a                    15.428638
_cell_length_b                    15.365103
_cell_length_c                    19.532567
_cell_angle_alpha                 77.442902
_cell_angle_beta                  98.932657
_cell_angle_gamma                 111.04602
_cell_volume                      4203.00990172

loop_
_atom_site_label
_atom_site_type_symbol
_atom_type_description
_atom_site_fract_x
_atom_site_fract_y
_atom_site_fract_z
_atom_type_partial_charge
C1    C     C_R   0.747651 0.541859 0.529202 0.538940
C2    C     C_2   0.541751 0.491836 0.028334 -0.123395
C3    C     C_2   0.479044 0.508285 0.976141 -0.068355
C4    C     C_R   0.252318 0.459403 0.471171 0.518610
C5    C     C_R   0.488728 0.486936 0.762894 0.004577
C6    C     C_R   0.963391 0.535826 0.642587 0.239970
C7    C     C_R   0.847212 0.556386 0.546875 -0.005286
C8    C     C_R   0.105346 0.428179 0.387192 0.252131
C9    C     C_R   0.012330 0.423083 0.372454 -0.068150
C10   C     C_R   0.968693 0.448612 0.417897 -0.093594
C11   C     C_R   0.016737 0.480235 0.479920 0.046499
C12   C     C_R   0.533654 0.498682 0.100407 0.034949
C13   C     C_R   0.103039 0.465950 0.502567 -0.005978
C14   C     C_R   0.976917 0.516712 0.523292 -0.007328
C15   C     C_R   0.011084 0.514504 0.595678 0.005938
C16   C     C_R   0.453997 0.248243 0.529172 0.570332
C17   C     C_R   0.090113 0.488075 0.619667 -0.059629
C18   C     C_R   0.136068 0.466046 0.573889 -0.098546
C19   C     C_R   0.902862 0.553151 0.497918 0.206403
C20   C     C_R   0.879122 0.550407 0.618217 -0.106811
C21   C     C_R   0.151950 0.448007 0.454072 0.011172
C22   C     C_R   0.445909 0.017189 0.641000 -0.091113
C23   C     C_R   0.613413 0.543628 0.141424 -0.081532
C24   C     C_R   0.434533 0.145340 0.546959 0.013253
C25   C     C_R   0.589125 0.905111 0.391342 -0.087282
C26   C     C_R   0.591941 0.998787 0.371311 0.259171
C27   C     C_R   0.559666 0.038855 0.415242 -0.032155
C28   C     C_R   0.545669 0.751363 0.472651 0.563679
C29   C     C_R   0.526301 0.986754 0.480334 -0.021708
C30   C     C_R   0.545529 0.901186 0.506754 0.004655
C31   C     C_R   0.483779 0.021740 0.522967 0.005872
C32   C     C_R   0.479046 0.980268 0.595312 -0.065754
C33   C     C_R   0.513105 0.905999 0.623063 -0.073266
C34   C     C_R   0.606177 0.551191 0.209937 -0.090553
C35   C     C_R   0.550811 0.869367 0.580492 0.258879
C36   C     C_R   0.447583 0.097381 0.497736 0.119014
C37   C     C_R   0.426838 0.101173 0.618190 0.225409
C38   C     C_R   0.563929 0.854567 0.458441 0.016129
C39   C     C_R   0.488962 0.487824 0.688250 0.566995
C40   C     C_R   0.512242 0.511822 0.311732 0.528759
C41   C     C_R   0.519381 0.511419 0.238273 0.043693
C42   C     C_R   0.439821 0.465514 0.197292 -0.074950
C43   C     C_R   0.446808 0.459530 0.128617 -0.078193
C44   C     C_R   0.566841 0.513897 0.877215 -0.120193
C45   C     C_R   0.571495 0.506894 0.808022 0.233241
C46   C     C_R   0.403711 0.473310 0.787781 -0.124257
C47   C     C_R   0.398662 0.478129 0.857414 0.274118
C48   C     C_R   0.481365 0.499032 0.902867 -0.001611
H1    H     H_    0.836410 0.555437 0.655293 0.218576
H2    H     H_    0.861646 0.744695 0.365374 0.382357
H3    H     H_    0.124379 0.400593 0.208955 0.384066
H4    H     H_    0.973531 0.402381 0.324077 0.203399
H5    H     H_    0.194706 0.443512 0.596527 0.146122
H6    H     H_    0.330525 0.255532 0.675579 0.357626
H7    H     H_    0.774540 0.515933 0.873825 0.362019
H8    H     H_    0.515866 0.880281 0.679389 0.170118
H9    H     H_    0.441519 0.984366 0.696010 0.179893
H10   H     H_    0.255202 0.074445 0.445812 0.355822
H11   H     H_    0.708824 0.054281 0.210944 0.389672
H12   H     H_    0.117617 0.483469 0.674146 0.213760
H13   H     H_    0.733589 0.764353 0.595637 0.385692
H14   H     H_    0.340892 0.458872 0.752225 0.161155
H15   H     H_    0.423329 0.528269 0.988412 0.202735
H16   H     H_    0.680843 0.573528 0.120161 0.147221
H17   H     H_    0.668513 0.585746 0.241285 0.177384
H18   H     H_    0.600000 0.473460 0.019055 0.143372
H19   H     H_    0.384759 0.422802 0.098002 0.167857
H20   H     H_    0.896330 0.441835 0.404498 0.185813
H21   H     H_    0.605406 0.871238 0.354250 0.186364
H22   H     H_    0.563567 0.111700 0.398970 0.200150
H23   H     H_    0.631045 0.534019 0.910412 0.152204
H24   H     H_    0.372349 0.433870 0.218487 0.186195
H25   H     H_    0.223460 0.542155 0.920278 0.383991
H26   H     H_    0.132575 0.597640 0.791829 0.396997
O1    O     O_3   0.500000 0.500000 0.500000 -0.499274
O2    O     O_R   0.533750 0.444440 0.667550 -0.461249
O3    O     O_R   0.573150 0.573190 0.344350 -0.537735
O4    O     O_R   0.446010 0.535260 0.643730 -0.518969
O5    O     O_R   0.447090 0.447110 0.344370 -0.492363
O6    O     O_2   0.211503 0.422415 0.829911 -0.237184
O7    O     O_2   0.273046 0.384729 0.951942 -0.251986
O8    O     O_3   0.284678 0.559323 0.901591 -0.519790
O9    O     O_2   0.942041 0.569779 0.767960 -0.190116
O10   O     O_2   0.995524 0.437347 0.768873 -0.226696
O11   O     O_3   0.112802 0.608699 0.740897 -0.493481
O12   O     O_R   0.412670 0.287020 0.475980 -0.456090
O13   O     O_2   0.980969 0.642699 0.374897 -0.236286
O14   O     O_2   0.811766 0.558510 0.368466 -0.311959
O15   O     O_3   0.876098 0.717681 0.414856 -0.457876
O16   O     O_2   0.249318 0.492774 0.306467 -0.281600
O17   O     O_2   0.178118 0.320290 0.339727 -0.204257
O18   O     O_3   0.089188 0.409592 0.243627 -0.499097
O19   O     O_2   0.339541 0.071607 0.734138 -0.217775
O20   O     O_2   0.481805 0.209474 0.717407 -0.230504
O21   O     O_3   0.330155 0.217453 0.640534 -0.528891
O22   O     O_2   0.687667 0.437509 0.766908 -0.230593
O23   O     O_R   0.592640 0.718300 0.442410 -0.528760
O24   O     O_2   0.696080 0.598777 0.711796 -0.226297
O25   O     O_3   0.768505 0.572130 0.839991 -0.450178
O26   O     O_2   0.454721 0.202634 0.367524 -0.232825
O27   O     O_2   0.371697 0.031784 0.375532 -0.231268
O28   O     O_3   0.291947 0.132250 0.415158 -0.418673
O29   O     O_2   0.544961 0.064889 0.238816 -0.200094
O30   O     O_2   0.687506 0.164135 0.296608 -0.250012
O31   O     O_3   0.692062 0.014408 0.257344 -0.499904
O32   O     O_2   0.571689 0.707372 0.650304 -0.258968
O33   O     O_2   0.679691 0.853024 0.686522 -0.215697
O34   O     O_R   0.691640 0.476740 0.569450 -0.535046
O35   O     O_3   0.705741 0.812872 0.571066 -0.503516
O36   O     O_R   0.303050 0.517940 0.512160 -0.560748
O37   O     O_R   0.716100 0.590510 0.475920 -0.459410
O38   O     O_R   0.289200 0.414810 0.442470 -0.457515
O39   O     O_R   0.514260 0.299330 0.569480 -0.513253
O40   O     O_R   0.480430 0.695350 0.512130 -0.502431
S1    S     S_3+6 0.287928 0.457409 0.885548 0.035287
S2    S     S_3+6 0.001556 0.536176 0.733115 0.065996
S3    S     S_3+6 0.893407 0.616973 0.410707 0.036426
S4    S     S_3+6 0.159174 0.412319 0.318902 0.058602
S5    S     S_3+6 0.394783 0.149910 0.680636 0.061202
S6    S     S_3+6 0.682339 0.528549 0.779419 0.089051
S7    S     S_3+6 0.392845 0.115635 0.410946 0.059140
S8    S     S_3+6 0.629170 0.064094 0.288954 0.066973
S9    S     S_3+6 0.627664 0.808346 0.624228 0.056957
Zn1   Zn    Zn3+2 0.413740 0.413730 0.441720 1.094119
Zn2   Zn    Zn3+2 0.558890 0.431320 0.575310 1.064576
Zn3   Zn    Zn3+2 0.433530 0.561080 0.541290 1.009177
Zn4   Zn    Zn3+2 0.593840 0.593870 0.441680 1.027549

loop_
_geom_bond_atom_site_label_1
_geom_bond_atom_site_label_2
_ccdc_geom_bond_type
C28   O23   A    
C27   C29   A    
C41   C42   A    
C16   C24   S    
O33   S9    D    
O23   Zn4   S    
C2    C12   S    
C16   O39   A    
C22   H9    S    
C8    S4    S    
C47   S1    S    
C9    H4    S    
C12   C23   A    
C26   C27   A    
H11   O31   S    
C22   C32   A    
C13   C18   A    
C46   H14   S    
O16   S4    D    
O8    S1    S    
O13   S3    D    
C12   C43   A    
C31   C36   A    
H3    O18   S    
C11   C14   A    
O30   S8    D    
C3    C48   S    
C30   C38   A    
C44   H23   S    
O26   S7    D    
O18   S4    S    
C18   H5    S    
O25   S6    S    
C47   C48   A    
C8    C9    A    
O32   S9    D    
H10   O28   S    
O34   Zn2   S    
O28   S7    S    
C9    C10   A    
O3    Zn4   S    
C33   H8    S    
C6    C15   A    
H13   O35   S    
O10   S2    D    
O38   Zn1   S    
C16   O12   A    
O2    Zn2   S    
C34   C41   A    
O9    S2    D    
C34   H17   S    
C8    C21   A    
C40   O5    A    
O1    Zn1   S    
C39   O4    A    
C24   C37   A    
O35   S9    S    
C1    O34   A    
O21   S5    S    
C25   C26   A    
C22   C37   A    
C5    C45   A    
O27   S7    D    
O1    Zn2   S    
C29   C30   A    
C25   C38   A    
C20   H1    S    
O20   S5    D    
H2    O15   S    
C31   C32   A    
C37   S5    S    
O6    S1    D    
C28   C38   S    
C23   C34   A    
C10   H20   S    
O7    S1    D    
C42   H24   S    
C17   C18   A    
O17   S4    D    
C13   C21   A    
C24   C36   A    
C39   O2    A    
C6    S2    S    
H6    O21   S    
C27   H22   S    
C28   O40   A    
O36   Zn3   S    
C30   C35   A    
C45   S6    S    
C40   C41   S    
O15   S3    S    
C7    C19   A    
C5    C39   S    
O12   Zn1   S    
C25   H21   S    
C42   C43   A    
O4    Zn3   S    
H25   O8    S    
C44   C45   A    
C5    C46   A    
C15   C17   A    
C4    O36   A    
C46   C47   A    
C23   H16   S    
C1    C7    S    
C14   C19   A    
O22   S6    D    
O11   S2    S    
C2    H18   S    
O24   S6    D    
C3    H15   S    
C6    C20   A    
O5    Zn1   S    
O1    Zn3   S    
C32   C33   A    
C35   S9    S    
C2    C3    D    
C29   C31   A    
C1    O37   A    
O37   Zn4   S    
C4    C21   S    
C11   C13   A    
O40   Zn3   S    
C26   S8    S    
C33   C35   A    
O31   S8    S    
C36   S7    S    
O1    Zn4   S    
C40   O3    A    
H26   O11   S    
C4    O38   A    
C10   C11   A    
C17   H12   S    
O39   Zn2   S    
C19   S3    S    
C43   H19   S    
C7    C20   A    
H7    O25   S    
C14   C15   A    
O19   S5    D    
O14   S3    D    
O29   S8    D    
C44   C48   A    
