data_mof_unit_2755.cif
_audit_creation_date              2012-12-11T16:53:46-0500
_audit_creation_method            fapswitch 2.2
_symmetry_space_group_name_H-M    P1
_symmetry_Int_Tables_number       1
_space_group_crystal_system       triclinic
_cell_length_a                    14.881053
_cell_length_b                    14.797377
_cell_length_c                    16.99809
_cell_angle_alpha                 109.151712
_cell_angle_beta                  106.169303
_cell_angle_gamma                 107.962994
_cell_volume                      3048.54186159

loop_
_atom_site_label
_atom_site_type_symbol
_atom_type_description
_atom_site_fract_x
_atom_site_fract_y
_atom_site_fract_z
_atom_type_partial_charge
C1    C     C_R   0.095227 0.277644 0.033452 -0.111668
C2    C     C_R   0.064228 0.544428 0.265715 -0.055163
C3    C     C_R   0.278931 0.784992 0.175812 -0.109636
C4    C     C_R   0.935189 0.517708 0.746566 -0.095449
C5    C     C_R   0.731260 0.460064 0.042818 -0.082389
C6    C     C_R   0.335382 0.781396 0.253644 0.070173
C7    C     C_R   0.710376 0.541942 0.034174 0.020751
C8    C     C_R   0.972129 0.529082 0.276120 0.109135
C9    C     C_R   0.000440 0.815293 0.963280 -0.055057
C10   C     C_R   0.524284 0.656599 0.045871 0.148938
C11   C     C_R   0.472381 0.600406 0.084457 0.039456
C12   C     C_R   0.025781 0.577383 0.744008 0.053970
C13   C     C_R   0.527693 0.566324 0.140727 -0.188003
C14   C     C_R   0.618248 0.561249 0.135585 -0.159622
C15   C     C_R   0.651983 0.590020 0.074084 0.060058
C16   C     C_R   0.762562 0.200267 0.809980 -0.105882
C17   C     C_R   0.613620 0.651749 0.040994 0.096621
C18   C     C_3   0.584676 0.650351 0.948758 -0.391143
C19   C     C_3   0.486765 0.655150 0.953786 -0.527097
C20   C     C_R   0.959830 0.575712 0.361411 -0.016780
C21   C     C_R   0.030544 0.618131 0.676593 0.114443
C22   C     C_R   0.130257 0.706862 0.610543 -0.036393
C23   C     C_R   0.746528 0.194625 0.723672 0.045323
C24   C     C_R   0.125650 0.686184 0.684018 -0.190728
C25   C     C_R   0.939029 0.580795 0.599216 -0.179389
C26   C     C_R   0.943693 0.595584 0.523995 0.131343
C27   C     C_R   0.040356 0.656135 0.527473 -0.056662
C28   C     C_R   0.300054 0.593916 0.002031 -0.132690
C29   C     C_R   0.045304 0.655450 0.445753 0.352005
C30   C     C_R   0.861843 0.529156 0.361252 -0.218435
C31   C     C_R   0.853499 0.541758 0.442540 -0.199573
C32   C     C_R   0.704290 0.098446 0.637156 0.129044
C33   C     C_R   0.443923 0.853919 0.318944 0.112913
C34   C     C_R   0.360088 0.561669 0.053406 0.086369
C35   C     C_R   0.585848 0.030749 0.392489 -0.200743
C36   C     C_R   0.496042 0.949314 0.316647 -0.159610
C37   C     C_R   0.491131 0.834863 0.391631 -0.224389
C38   C     C_R   0.576357 0.918139 0.470050 0.170670
C39   C     C_R   0.620740 0.018307 0.471835 0.182259
C40   C     C_R   0.776536 0.297844 0.734402 -0.067635
C41   C     C_R   0.688574 0.107191 0.555247 -0.254028
C42   C     C_R   0.670927 0.997122 0.634172 -0.146817
C43   C     C_R   0.608346 0.906727 0.550322 -0.175140
C44   C     C_R   0.112768 0.065918 0.953665 0.078919
C45   C     C_R   0.273443 0.688984 0.252464 -0.022132
C46   C     C_R   0.020011 0.077085 0.927583 0.103707
C47   C     C_R   0.934686 0.992219 0.846005 -0.245835
C48   C     C_R   0.947421 0.908555 0.788065 -0.099836
C49   C     C_R   0.044496 0.906307 0.810887 0.143412
C50   C     C_R   0.123745 0.981810 0.897174 -0.077192
C51   C     C_3   0.236785 0.047080 0.926861 0.437870
C52   C     C_R   0.296249 0.498398 0.079074 -0.132296
C53   C     C_3   0.224984 0.140518 0.987815 -0.623807
C54   C     C_R   0.108038 0.601666 0.822796 -0.121794
C55   C     C_R   0.922141 0.190719 0.960716 -0.137630
C56   C     C_R   0.752941 0.568228 0.978067 -0.067570
C57   C     C_R   0.013017 0.176716 0.976160 0.064693
C58   C     C_R   0.891564 0.455396 0.190109 -0.144245
C59   C     C_R   0.084678 0.803552 0.011102 -0.192577
C60   C     C_R   0.914916 0.717654 0.926994 0.424047
H1    H     H_    0.177249 0.298596 0.061738 0.107511
H2    H     H_    0.856286 0.498083 0.704304 0.152483
H3    H     H_    0.568434 0.574225 0.892571 0.231652
H4    H     H_    0.484112 0.731015 0.958719 0.196644
H5    H     H_    0.415496 0.581405 0.900658 0.218999
H6    H     H_    0.791761 0.476341 0.298702 0.133379
H7    H     H_    0.205920 0.754282 0.616806 0.217519
H8    H     H_    0.778262 0.498900 0.440081 0.139574
H9    H     H_    0.197408 0.719417 0.744326 0.136998
H10   H     H_    0.864244 0.530477 0.592351 0.126222
H11   H     H_    0.718738 0.183908 0.555731 0.117498
H12   H     H_    0.811429 0.413719 0.175284 0.090226
H13   H     H_    0.736512 0.134161 0.824699 0.097157
H14   H     H_    0.687121 0.987383 0.696148 0.119860
H15   H     H_    0.620802 0.106774 0.392498 0.129151
H16   H     H_    0.576749 0.829700 0.549452 0.145868
H17   H     H_    0.455307 0.760145 0.392981 0.124146
H18   H     H_    0.860314 0.994353 0.822373 0.132353
H19   H     H_    0.883604 0.849465 0.722397 0.170159
H20   H     H_    0.287210 0.020533 0.966020 0.023718
H21   H     H_    0.269457 0.168093 0.062297 0.169272
H22   H     H_    0.326913 0.658221 0.984799 0.097841
H23   H     H_    0.165608 0.859687 0.039676 0.124491
H24   H     H_    0.235189 0.205155 0.966554 0.247505
H25   H     H_    0.772655 0.324853 0.682480 0.092641
H26   H     H_    0.320695 0.472601 0.130412 0.084983
H27   H     H_    0.188397 0.658198 0.849459 0.092552
H28   H     H_    0.844430 0.127599 0.927675 0.094262
H29   H     H_    0.296434 0.652171 0.294708 0.080763
H30   H     H_    0.755240 0.632066 0.960735 0.146978
H31   H     H_    0.793197 0.823067 0.873901 0.333765
H32   H     H_    0.106203 0.881244 0.523436 0.341575
H33   H     H_    0.463862 0.964877 0.259942 0.116378
H34   H     H_    0.142758 0.589709 0.318058 0.162057
H35   H     H_    0.126702 0.039031 0.731870 0.349986
H36   H     H_    0.307862 0.837491 0.147765 0.079823
H37   H     H_    0.697866 0.411620 0.071901 0.098143
H38   H     H_    0.494961 0.530402 0.178444 0.124785
H39   H     H_    0.652416 0.522001 0.169726 0.120867
H40   H     H_    0.638510 0.723851 0.951604 0.227022
N1    N     N_R   0.055640 0.348550 0.045600 -0.047493
N2    N     N_R   0.811290 0.303400 0.871650 -0.047194
N3    N     N_R   0.205180 0.552990 0.997660 -0.040732
N4    N     N_R   0.814810 0.361830 0.823710 -0.036382
N5    N     N_R   0.201660 0.494570 0.045600 -0.044268
N6    N     N_R   0.068420 0.560530 0.871650 -0.046082
N7    N     N_R   0.948050 0.295860 0.997660 -0.042723
N8    N     N_R   0.185190 0.638170 0.176290 -0.047431
N9    N     N_R   0.798340 0.505430 0.954400 -0.032979
N10   N     N_R   0.931580 0.439470 0.128350 -0.046195
N11   N     N_R   0.051950 0.704140 0.002340 -0.064937
N12   N     N_R   0.944360 0.651450 0.954400 -0.097832
N13   N     N_R   0.039170 0.492150 0.176290 -0.061637
N14   N     N_R   0.188710 0.696600 0.128350 -0.038392
N15   N     N_R   0.794820 0.447010 0.002340 -0.048841
N16   N     N_R   0.960830 0.507850 0.823710 -0.049605
Ni1   Ni    Ni4+2 0.119330 0.493420 0.109950 0.211779
Ni2   Ni    Ni4+2 0.880670 0.506580 0.890050 0.317144
Ni3   Ni    Ni4+2 0.872590 0.372590 0.000000 0.235908
Ni4   Ni    Ni4+2 0.127410 0.627410 0.000000 0.205707
O1    O     O_2   0.834421 0.682298 0.752637 -0.328678
O2    O     O_2   0.730580 0.558687 0.794058 -0.295705
O3    O     O_3   0.740298 0.748957 0.849460 -0.535929
O4    O     O_2   0.244933 0.745688 0.471188 -0.303447
O5    O     O_2   0.118458 0.770892 0.362796 -0.288564
O6    O     O_3   0.173770 0.877473 0.536921 -0.448593
O7    O     O_2   0.378293 0.148720 0.877817 -0.235984
O8    O     O_2   0.257721 0.962381 0.770115 -0.290346
O9    O     O_3   0.187774 0.105382 0.781449 -0.496549
S1    S     S_3+6 0.802784 0.673223 0.827242 -0.074659
S2    S     S_3+6 0.147946 0.762292 0.451220 -0.045238
S3    S     S_3+6 0.267835 0.065325 0.836821 -0.002006

loop_
_geom_bond_atom_site_label_1
_geom_bond_atom_site_label_2
_ccdc_geom_bond_type
N1    N7    A    
C6    C45   A    
C27   C29   A    
N11   N12   A    
O1    S1    D    
C3    C6    A    
C14   H39   S    
C39   C41   A    
C20   C30   A    
C35   H15   S    
C26   C27   A    
C8    C20   S    
C53   H24   S    
C48   H19   S    
C59   H23   S    
C30   C31   A    
C2    N13   A    
C18   H3    S    
C10   C17   A    
C1    H1    S    
C23   C40   A    
C4    H2    S    
C55   H28   S    
C33   C36   A    
C53   H21   S    
C18   C19   S    
C29   S2    S    
N8    N14   A    
C13   H38   S    
C51   H20   S    
C8    C58   A    
O7    S3    D    
C36   H33   S    
C35   C36   A    
N9    Ni2   S    
C59   N11   A    
C32   C41   A    
C3    H36   S    
C4    C12   A    
C45   H29   S    
C19   H4    S    
C45   N8    A    
C41   H11   S    
O9    S3    S    
C56   H30   S    
C28   C34   A    
C26   C31   A    
H31   O3    S    
C13   C14   A    
C5    N15   A    
N5    Ni1   S    
C31   H8    S    
C18   H40   S    
C7    C56   A    
O8    S3    D    
N7    Ni3   S    
C44   C46   A    
C24   H9    S    
C50   C51   S    
N4    Ni2   S    
C20   C29   A    
C38   C39   A    
C42   H14   S    
C54   N6    A    
C28   H22   S    
C16   H13   S    
C2    H34   S    
C60   S1    S    
C5    C7    A    
C25   C26   A    
C37   H17   S    
C12   C21   S    
C33   C37   A    
O4    S2    D    
C55   N7    A    
N11   Ni4   S    
C9    C59   A    
C40   H25   S    
C35   C39   A    
C37   C38   A    
C60   N12   A    
C1    C57   A    
C40   N4    A    
O5    S2    D    
C47   C48   A    
C10   C19   S    
C17   C18   S    
C44   C53   S    
N3    N5    A    
N2    N4    A    
N10   N13   A    
C30   H6    S    
N13   Ni1   S    
C16   N2    A    
C48   C49   A    
C5    H37   S    
C52   N5    A    
C16   C23   A    
N15   Ni3   S    
C22   C27   A    
C55   C57   A    
C46   C57   S    
C22   C24   A    
C42   C43   A    
C1    N1    A    
C56   N9    A    
C44   C50   A    
C43   H16   S    
C15   C17   A    
C21   C25   A    
C46   C47   A    
N6    Ni4   S    
C58   N10   A    
N8    Ni1   S    
C4    N16   A    
C11   C34   S    
C2    C8    A    
C3    N14   A    
H32   O6    S    
N10   Ni3   S    
C51   S3    S    
C34   C52   A    
C6    C33   S    
C9    C60   A    
N1    Ni1   S    
C23   C32   S    
C52   H26   S    
C38   C43   A    
O3    S1    S    
N12   Ni2   S    
C11   C13   A    
C28   N3    A    
C58   H12   S    
C54   H27   S    
O6    S2    S    
C7    C15   S    
N3    Ni4   S    
N16   Ni2   S    
C19   H5    S    
C12   C54   A    
C22   H7    S    
C10   C11   A    
N9    N15   A    
C49   C50   A    
C21   C24   A    
N6    N16   A    
H35   O9    S    
C32   C42   A    
C14   C15   A    
C25   H10   S    
C47   H18   S    
C51   C53   S    
O2    S1    D    
N14   Ni4   S    
N2    Ni3   S    
