data_mof_unit_4520.cif
_audit_creation_date              2012-12-10T16:55:48-0500
_audit_creation_method            fapswitch 2.2
_symmetry_space_group_name_H-M    P1
_symmetry_Int_Tables_number       1
_space_group_crystal_system       triclinic
_cell_length_a                    7.77675
_cell_length_b                    8.442903
_cell_length_c                    10.485455
_cell_angle_alpha                 91.017401
_cell_angle_beta                  84.886617
_cell_angle_gamma                 93.947644
_cell_volume                      684.044030068

loop_
_atom_site_label
_atom_site_type_symbol
_atom_type_description
_atom_site_fract_x
_atom_site_fract_y
_atom_site_fract_z
_atom_type_partial_charge
C1    C     C_R   0.544939 0.793456 0.477818 0.860752
C2    C     C_3   0.500059 0.500052 0.877723 0.008302
C3    C     C_3   0.394529 0.377669 0.047161 -0.171012
C4    C     C_3   0.605468 0.622072 0.953043 -0.205434
C5    C     C_2   0.567068 0.953091 0.429819 -0.225251
C6    C     C_2   0.428861 0.043848 0.441340 -0.214274
C7    C     C_2   0.741885 0.009396 0.370925 0.423245
C8    C     C_2   0.249906 0.984745 0.415306 0.427918
C9    C     C_R   0.454159 0.205845 0.484507 0.863772
C10   C     C_R   0.500478 0.500183 0.742635 0.875542
C11   C     C_R   0.499495 0.499639 0.257376 0.880696
C12   C     C_3   0.337829 0.515830 0.969895 -0.138508
C13   C     C_3   0.662150 0.483916 0.030303 -0.110331
C14   C     C_3   0.443621 0.637824 0.047862 -0.160898
C15   C     C_3   0.556379 0.361926 0.952334 -0.162482
C16   C     C_3   0.499928 0.499703 0.122416 0.025538
H1    H     H_    0.205364 0.528844 0.941507 0.149748
H2    H     H_    0.139031 0.039467 0.462965 0.046294
H3    H     H_    0.794557 0.470861 0.058800 0.159331
H4    H     H_    0.308874 0.278585 0.090527 0.150627
H5    H     H_    0.691247 0.721175 0.909868 0.140521
H6    H     H_    0.013527 0.380892 0.403724 0.203575
H7    H     H_    0.986482 0.619150 0.596226 0.184982
H8    H     H_    0.397862 0.749766 0.091696 0.180278
H9    H     H_    0.602314 0.249997 0.908604 0.139448
H10   H     H_    0.855636 0.952608 0.394417 0.083774
N1    N     N_2   0.950320 0.457950 0.465730 -0.157517
N2    N     N_2   0.049680 0.542050 0.534270 -0.163331
O1    O     O_R   0.389250 0.738570 0.508410 -0.573228
O2    O     O_2   0.225685 0.880153 0.335608 -0.565570
O3    O     O_R   0.610750 0.261430 0.491590 -0.574562
O4    O     O_R   0.678390 0.711620 0.486450 -0.645796
O5    O     O_R   0.321610 0.288380 0.513550 -0.650403
O6    O     O_R   0.355460 0.513510 0.697030 -0.623827
O7    O     O_R   0.644540 0.486490 0.302970 -0.602067
O8    O     O_R   0.644600 0.486560 0.675070 -0.628224
O9    O     O_R   0.355400 0.513440 0.324930 -0.607434
O10   O     O_2   0.758809 0.113240 0.290218 -0.563868
Zn1   Zn    Zn3+2 0.306940 0.517990 0.514670 0.966052
Zn2   Zn    Zn3+2 0.693060 0.482010 0.485330 0.973620

loop_
_geom_bond_atom_site_label_1
_geom_bond_atom_site_label_2
_ccdc_geom_bond_type
C12   H1    S    
C2    C4    S    
C4    H5    S    
C11   C16   S    
N1    Zn2   S    
C2    C12   S    
O1    Zn1   S    
C6    C9    S    
C11   O7    A    
O7    Zn2   S    
C8    O2    D    
C3    H4    S    
C10   O6    A    
H7    N2    S    
C9    O5    A    
C2    C15   S    
O5    Zn1   S    
C7    H10   S    
C1    C5    S    
C6    C8    S    
C1    O1    A    
C7    O10   D    
C12   C14   S    
C5    C7    S    
H6    N1    S    
C13   C15   S    
C4    C14   S    
C5    C6    D    
C14   C16   S    
C15   H9    S    
C13   H3    S    
O6    Zn1   S    
C2    C10   S    
O8    Zn2   S    
O4    Zn2   S    
C3    C15   S    
O3    Zn2   S    
O9    Zn1   S    
C13   C16   S    
C14   H8    S    
C4    C13   S    
C11   O9    A    
C9    O3    A    
C10   O8    A    
C3    C12   S    
N2    Zn1   S    
C1    O4    A    
C8    H2    S    
C3    C16   S    
N1    N2    D    
