data_mof_unit_4178.cif
_audit_creation_date              2012-12-10T18:04:49-0500
_audit_creation_method            fapswitch 2.2
_symmetry_space_group_name_H-M    P1
_symmetry_Int_Tables_number       1
_space_group_crystal_system       triclinic
_cell_length_a                    10.843873
_cell_length_b                    9.470141
_cell_length_c                    17.836358
_cell_angle_alpha                 90.251789
_cell_angle_beta                  90.208353
_cell_angle_gamma                 89.164122
_cell_volume                      1831.44493375

loop_
_atom_site_label
_atom_site_type_symbol
_atom_type_description
_atom_site_fract_x
_atom_site_fract_y
_atom_site_fract_z
_atom_type_partial_charge
C1    C     C_R   0.262183 0.501153 0.500235 0.884198
C2    C     C_R   0.737917 0.498392 0.500217 0.899650
C3    C     C_1   0.473973 0.491249 0.966777 0.013485
C4    C     C_1   0.475382 0.489560 0.033831 0.010035
C5    C     C_R   0.066578 0.408840 0.451029 0.177365
C6    C     C_R   0.934006 0.582912 0.552511 0.193854
C7    C     C_R   0.937579 0.401520 0.453984 0.141511
C8    C     C_R   0.062370 0.591194 0.549376 0.135486
C9    C     C_R   0.498706 0.499737 0.355220 0.843597
C10   C     C_R   0.495517 0.500533 0.644930 0.829568
C11   C     C_R   0.871921 0.493590 0.502392 -0.193521
C12   C     C_R   0.128340 0.503181 0.499084 -0.203297
C13   C     C_R   0.502776 0.622155 0.850356 0.230222
C14   C     C_R   0.533408 0.376495 0.152355 0.228466
C15   C     C_R   0.429301 0.607191 0.152701 0.257445
C16   C     C_R   0.440860 0.375237 0.845879 0.255739
C17   C     C_R   0.509434 0.626147 0.771466 0.094473
C18   C     C_R   0.544978 0.381809 0.230944 0.081169
C19   C     C_R   0.434215 0.611623 0.231907 0.073499
C20   C     C_R   0.441030 0.378299 0.766668 0.057109
C21   C     C_R   0.483060 0.501562 0.728648 -0.177205
C22   C     C_R   0.493259 0.498399 0.271656 -0.162366
C23   C     C_R   0.417796 0.075616 0.456838 -0.026715
C24   C     C_R   0.582420 0.924478 0.542997 -0.023908
C25   C     C_R   0.581781 0.073611 0.543443 -0.043560
C26   C     C_R   0.417175 0.926511 0.457310 -0.046001
C27   C     C_R   0.472973 0.496052 0.886505 -0.059308
C28   C     C_R   0.478405 0.490218 0.114116 -0.062773
Cu1   Cu    Cu3+1 0.500000 0.640660 0.500000 0.932313
Cu2   Cu    Cu3+1 0.500000 0.359340 0.500000 0.941121
H1    H     H_    0.352341 0.132906 0.422148 0.141010
H2    H     H_    0.648765 0.867315 0.577051 0.134065
H3    H     H_    0.646814 0.129378 0.578393 0.114580
H4    H     H_    0.350370 0.870987 0.423639 0.120713
N1    N     N_R   0.500000 0.852070 0.500000 -0.154478
N2    N     N_R   0.500000 0.147930 0.500000 -0.153686
O1    O     O_R   0.319640 0.618740 0.499990 -0.604930
O2    O     O_R   0.680360 0.381260 0.500010 -0.570964
O3    O     O_R   0.680360 0.618740 0.500010 -0.571650
O4    O     O_R   0.319640 0.381260 0.499990 -0.560545
O5    O     O_R   0.500000 0.618830 0.391250 -0.580025
O6    O     O_R   0.500000 0.381170 0.608750 -0.583796
O7    O     O_R   0.500000 0.618830 0.608750 -0.578024
O8    O     O_R   0.500000 0.381170 0.391250 -0.572564
N3    N     N_2   0.527677 0.745864 0.893616 -0.426589
H5    H     H_    0.581099 0.728807 0.940758 0.257395
C29   C     C_3   0.420209 0.833739 0.908457 -0.698500
H6    H     H_    0.351625 0.774400 0.941382 0.244591
H7    H     H_    0.377124 0.869465 0.855075 0.234882
H8    H     H_    0.447855 0.928288 0.941103 0.228532
N4    N     N_2   0.578466 0.256114 0.111827 -0.423615
H9    H     H_    0.621696 0.278393 0.061948 0.257886
C30   C     C_3   0.490627 0.143272 0.104768 -0.690992
H10   H     H_    0.409681 0.178814 0.071054 0.235372
H11   H     H_    0.459262 0.108958 0.160973 0.231669
H12   H     H_    0.534874 0.051336 0.076227 0.225020
N5    N     N_2   0.378296 0.721688 0.110364 -0.424644
H13   H     H_    0.401749 0.821291 0.128484 0.253606
C31   C     C_3   0.249504 0.707239 0.090558 -0.715463
H14   H     H_    0.218796 0.799615 0.056837 0.217944
H15   H     H_    0.191675 0.701981 0.141711 0.228985
H16   H     H_    0.235904 0.610165 0.056518 0.236699
N6    N     N_2   0.414197 0.248902 0.885831 -0.424154
H17   H     H_    0.447792 0.156778 0.862030 0.257545
C32   C     C_3   0.289174 0.239294 0.913431 -0.716150
H18   H     H_    0.279425 0.140240 0.945807 0.219043
H19   H     H_    0.222285 0.238585 0.866164 0.225204
H20   H     H_    0.266757 0.329568 0.951130 0.238247
C33   C     C_3   0.543401 0.764711 0.734555 -0.804329
H21   H     H_    0.571117 0.848380 0.774493 0.245359
H22   H     H_    0.623283 0.749450 0.696942 0.234831
H23   H     H_    0.463104 0.807282 0.702657 0.234318
C34   C     C_3   0.617851 0.265547 0.270123 -0.781184
H24   H     H_    0.674965 0.200614 0.231317 0.244452
H25   H     H_    0.683282 0.312555 0.310618 0.236681
H26   H     H_    0.554244 0.193504 0.299350 0.235767
C35   C     C_3   0.375059 0.735586 0.273328 -0.852457
H27   H     H_    0.313344 0.801937 0.238310 0.223521
H28   H     H_    0.315697 0.697878 0.319265 0.222636
H29   H     H_    0.448003 0.804886 0.296102 0.243135
C36   C     C_3   0.389543 0.253153 0.723672 -0.812398
H30   H     H_    0.334837 0.181093 0.758510 0.219088
H31   H     H_    0.324318 0.290487 0.679635 0.236060
H32   H     H_    0.465901 0.189726 0.698595 0.241384
N7    N     N_2   0.135288 0.322070 0.399950 -0.419768
H33   H     H_    0.102298 0.221954 0.391461 0.252364
C37   C     C_3   0.169068 0.390716 0.330923 -0.700845
H34   H     H_    0.085478 0.416701 0.297253 0.214969
H35   H     H_    0.230191 0.319363 0.297694 0.225620
H36   H     H_    0.219829 0.488779 0.343068 0.222513
N8    N     N_2   0.867663 0.656341 0.609985 -0.414211
H37   H     H_    0.903161 0.753160 0.624505 0.269114
C38   C     C_3   0.842038 0.569539 0.674635 -0.693237
H38   H     H_    0.927871 0.518116 0.695909 0.231473
H39   H     H_    0.774450 0.486971 0.659740 0.220047
H40   H     H_    0.803536 0.635552 0.720613 0.218973
N9    N     N_2   0.872868 0.306507 0.406285 -0.431408
H41   H     H_    0.902830 0.303767 0.351514 0.247983
C39   C     C_3   0.853958 0.167032 0.437029 -0.640048
H42   H     H_    0.936551 0.098601 0.428287 0.191606
H43   H     H_    0.774347 0.117716 0.408308 0.232983
H44   H     H_    0.834329 0.172343 0.498059 0.233407
N10   N     N_2   0.123504 0.685114 0.599329 -0.432568
H45   H     H_    0.176751 0.761457 0.574953 0.268089
C40   C     C_3   0.172305 0.625034 0.667987 -0.668102
H46   H     H_    0.125405 0.675627 0.716542 0.230501
H47   H     H_    0.272133 0.646450 0.672410 0.225658
H48   H     H_    0.158783 0.508942 0.670625 0.214157

loop_
_geom_bond_atom_site_label_1
_geom_bond_atom_site_label_2
_ccdc_geom_bond_type
C37   H34   S    
N6    C32   S    
C17   C33   S    
C38   H38   S    
C10   O6    A    
C34   H25   S    
C34   H24   S    
C14   C18   A    
C36   H30   S    
N5    H13   S    
C29   H7    S    
C35   H27   S    
C7    C11   A    
C40   H47   S    
C16   C20   A    
C9    C22   S    
C23   C26   A    
C6    N8    S    
Cu2   O2    S    
C33   H22   S    
N3    C29   S    
C19   C35   S    
C1    O4    A    
C36   H31   S    
C2    O3    A    
C26   H4    S    
C14   N4    S    
C31   H16   S    
C16   N6    S    
C1    O1    A    
C5    N7    S    
C16   C27   A    
C35   H28   S    
C31   H14   S    
C38   H39   S    
C20   C36   S    
Cu1   O7    S    
C15   N5    S    
Cu2   O8    S    
C1    C12   S    
C2    C11   S    
N9    C39   S    
N9    H41   S    
C29   H8    S    
C30   H11   S    
C10   C21   S    
C40   H48   S    
C31   H15   S    
C24   N1    A    
N7    C37   S    
N4    H9    S    
C19   C22   A    
C24   C25   A    
C5    C12   A    
N8    H37   S    
C5    C7    A    
C6    C8    A    
C32   H19   S    
N7    H33   S    
C17   C21   A    
N4    C30   S    
C23   H1    S    
C33   H23   S    
C15   C19   A    
C24   H2    S    
Cu1   Cu2   S    
N8    C38   S    
C2    O2    A    
C29   H6    S    
C8    C12   A    
C32   H20   S    
Cu1   O3    S    
Cu2   O4    S    
N10   C40   S    
C39   H43   S    
C23   N2    A    
C38   H40   S    
C37   H35   S    
C34   H26   S    
C3    C4    T    
C6    C11   A    
C36   H32   S    
C30   H12   S    
C9    O8    A    
C7    N9    S    
Cu1   O5    S    
C10   O7    A    
C18   C22   A    
Cu2   O6    S    
C30   H10   S    
Cu2   N2    S    
C18   C34   S    
C40   H46   S    
Cu1   N1    S    
C9    O5    A    
C39   H42   S    
C13   C17   A    
C3    C27   S    
C13   N3    S    
C35   H29   S    
C15   C28   A    
C33   H21   S    
C8    N10   S    
N5    C31   S    
C25   N2    A    
N6    H17   S    
N3    H5    S    
C26   N1    A    
C39   H44   S    
C20   C21   A    
C32   H18   S    
C4    C28   S    
C37   H36   S    
Cu1   O1    S    
N10   H45   S    
C13   C27   A    
C14   C28   A    
C25   H3    S    
