data_mof_unit_3983.cif
_audit_creation_date              2012-12-10T16:37:56-0500
_audit_creation_method            fapswitch 2.2
_symmetry_space_group_name_H-M    P1
_symmetry_Int_Tables_number       1
_space_group_crystal_system       triclinic
_cell_length_a                    28.102284
_cell_length_b                    18.391222
_cell_length_c                    17.15013
_cell_angle_alpha                 90.063916
_cell_angle_beta                  61.358175
_cell_angle_gamma                 89.482669
_cell_volume                      7778.69349515

loop_
_atom_site_label
_atom_site_type_symbol
_atom_type_description
_atom_site_fract_x
_atom_site_fract_y
_atom_site_fract_z
_atom_type_partial_charge
C1    C     C_R   0.705941 0.276464 0.673301 0.928142
C2    C     C_R   0.294060 0.723540 0.326697 0.928117
C3    C     C_R   0.298059 0.268186 0.323443 0.895732
C4    C     C_R   0.701940 0.731815 0.676557 0.895735
C5    C     C_R   0.205940 0.776462 0.673302 0.928097
C6    C     C_R   0.794061 0.223541 0.326696 0.928087
C7    C     C_R   0.798059 0.768185 0.323443 0.895722
C8    C     C_R   0.201940 0.231815 0.676557 0.895729
C9    C     C_R   0.906659 0.502032 0.479082 -0.080923
C10   C     C_R   0.093358 0.497968 0.520861 -0.080942
C11   C     C_R   0.406645 0.002031 0.479123 -0.080946
C12   C     C_R   0.593356 0.997972 0.520874 -0.080942
C13   C     C_R   0.071325 0.376329 0.582990 0.592006
C14   C     C_R   0.928687 0.623671 0.416960 0.591951
C15   C     C_R   0.881748 0.385419 0.552511 0.563655
C16   C     C_R   0.118266 0.614585 0.447456 0.563632
C17   C     C_R   0.571323 0.876337 0.583007 0.591981
C18   C     C_R   0.428680 0.123663 0.416983 0.591985
C19   C     C_R   0.381740 0.885416 0.552535 0.563642
C20   C     C_R   0.618265 0.114583 0.447455 0.563641
C21   C     C_R   0.722227 0.268963 0.952134 -0.000147
C22   C     C_R   0.277784 0.731050 0.047855 -0.000141
C23   C     C_R   0.281485 0.262333 0.043469 -0.001845
C24   C     C_R   0.718513 0.737670 0.956532 -0.001846
C25   C     C_R   0.222221 0.768950 0.952138 -0.000140
C26   C     C_R   0.777790 0.231063 0.047851 -0.000150
C27   C     C_R   0.781486 0.762332 0.043469 -0.001846
C28   C     C_R   0.218513 0.237671 0.956531 -0.001845
C29   C     C_R   0.778207 0.250939 0.906686 0.141913
C30   C     C_R   0.221803 0.749072 0.093301 0.141919
C31   C     C_R   0.231179 0.226159 0.087915 0.142218
C32   C     C_R   0.768818 0.773847 0.912087 0.142216
C33   C     C_R   0.278201 0.750927 0.906691 0.141911
C34   C     C_R   0.721810 0.249083 0.093297 0.141916
C35   C     C_R   0.731181 0.726155 0.087914 0.142217
C36   C     C_R   0.268818 0.273847 0.912087 0.142216
C37   C     C_R   0.806890 0.236117 0.954588 -0.108220
C38   C     C_R   0.193121 0.763894 0.045400 -0.108218
C39   C     C_R   0.197439 0.218799 0.047078 -0.111316
C40   C     C_R   0.802558 0.781207 0.952923 -0.111318
C41   C     C_R   0.306884 0.736105 0.954593 -0.108227
C42   C     C_R   0.693127 0.263904 0.045395 -0.108224
C43   C     C_R   0.697440 0.718796 0.047078 -0.111317
C44   C     C_R   0.302558 0.281206 0.952923 -0.111318
C45   C     C_R   0.640149 0.313298 0.949311 -0.107692
C46   C     C_R   0.359859 0.686712 0.050683 -0.107695
C47   C     C_R   0.361585 0.313695 0.045625 -0.110381
C48   C     C_R   0.638414 0.686306 0.954376 -0.110382
C49   C     C_R   0.140145 0.813290 0.949314 -0.107690
C50   C     C_R   0.859863 0.186719 0.050681 -0.107703
C51   C     C_R   0.861585 0.813696 0.045625 -0.110382
C52   C     C_R   0.138413 0.186306 0.954376 -0.110383
C53   C     C_R   0.616103 0.343309 0.899743 -0.068218
C54   C     C_R   0.383902 0.656697 0.100254 -0.068220
C55   C     C_R   0.385730 0.341151 0.096838 -0.080227
C56   C     C_R   0.614270 0.658849 0.903162 -0.080227
C57   C     C_R   0.116100 0.843305 0.899745 -0.068223
C58   C     C_R   0.883905 0.156701 0.100252 -0.068222
C59   C     C_R   0.885730 0.841151 0.096838 -0.080230
C60   C     C_R   0.114270 0.158849 0.903162 -0.080226
C61   C     C_R   0.638877 0.329508 0.810230 -0.291141
C62   C     C_R   0.361127 0.670500 0.189766 -0.291138
C63   C     C_R   0.365129 0.321806 0.185050 -0.252114
C64   C     C_R   0.634870 0.678195 0.814950 -0.252108
C65   C     C_R   0.138875 0.829504 0.810232 -0.291137
C66   C     C_R   0.861130 0.170502 0.189765 -0.291131
C67   C     C_R   0.865129 0.821805 0.185050 -0.252107
C68   C     C_R   0.134871 0.178195 0.814950 -0.252110
C69   C     C_R   0.688432 0.294950 0.765796 -0.108001
C70   C     C_R   0.311573 0.705060 0.234198 -0.107997
C71   C     C_R   0.320032 0.278205 0.226592 -0.116973
C72   C     C_R   0.679966 0.721797 0.773409 -0.116977
C73   C     C_R   0.188429 0.794944 0.765799 -0.107993
C74   C     C_R   0.811576 0.205063 0.234197 -0.107993
C75   C     C_R   0.820033 0.778204 0.226591 -0.116973
C76   C     C_R   0.179967 0.221797 0.773409 -0.116977
C77   C     C_R   0.719828 0.279921 0.810657 0.117293
C78   C     C_R   0.280180 0.720092 0.189334 0.117298
C79   C     C_R   0.293183 0.253446 0.177563 0.117876
C80   C     C_R   0.706815 0.746557 0.822438 0.117876
C81   C     C_R   0.219823 0.779912 0.810662 0.117282
C82   C     C_R   0.780183 0.220097 0.189331 0.117290
C83   C     C_R   0.793184 0.753444 0.177562 0.117875
C84   C     C_R   0.206815 0.246557 0.822438 0.117875
C85   C     C_R   0.696323 0.127471 0.518780 0.958357
C86   C     C_R   0.303677 0.872529 0.481218 0.958336
C87   C     C_R   0.309251 0.129913 0.462551 0.938393
C88   C     C_R   0.690749 0.870088 0.537448 0.938387
C89   C     C_R   0.196322 0.627471 0.518786 0.958348
C90   C     C_R   0.803687 0.372531 0.481192 0.958283
C91   C     C_R   0.809253 0.629915 0.462544 0.938376
C92   C     C_R   0.190748 0.370088 0.537448 0.938373
C93   C     C_R   0.694376 0.288161 0.903801 -0.014932
C94   C     C_R   0.305633 0.711852 0.096190 -0.014935
C95   C     C_R   0.311746 0.277301 0.089280 -0.007748
C96   C     C_R   0.688252 0.722702 0.910721 -0.007747
C97   C     C_R   0.194370 0.788150 0.903806 -0.014930
C98   C     C_R   0.805639 0.211862 0.096186 -0.014932
C99   C     C_R   0.811747 0.777300 0.089280 -0.007747
C100  C     C_R   0.188252 0.222702 0.910720 -0.007748
C101  C     C_R   0.610343 0.299836 0.040921 0.606235
C102  C     C_R   0.389666 0.700168 0.959072 0.606235
C103  C     C_R   0.387044 0.315688 0.951779 0.611025
C104  C     C_R   0.612954 0.684312 0.048221 0.611025
C105  C     C_R   0.110338 0.799833 0.040924 0.606241
C106  C     C_R   0.889671 0.200173 0.959071 0.606230
C107  C     C_R   0.887044 0.815689 0.951779 0.611024
C108  C     C_R   0.112954 0.184314 0.048221 0.611026
C109  C     C_R   0.635797 0.268302 0.085831 0.045598
C110  C     C_R   0.364214 0.731701 0.914157 0.045609
C111  C     C_R   0.358484 0.299221 0.905570 0.050401
C112  C     C_R   0.641515 0.700780 0.094431 0.050401
C113  C     C_R   0.135791 0.768298 0.085836 0.045599
C114  C     C_R   0.864221 0.231701 0.914151 0.045606
C115  C     C_R   0.858484 0.799222 0.905570 0.050401
C116  C     C_R   0.141514 0.200784 0.094431 0.050401
C117  C     C_R   0.774441 0.254663 0.768237 -0.121737
C118  C     C_R   0.225566 0.745347 0.231751 -0.121749
C119  C     C_R   0.250381 0.202811 0.210224 -0.172362
C120  C     C_R   0.749616 0.797195 0.789778 -0.172355
C121  C     C_R   0.274437 0.754657 0.768243 -0.121756
C122  C     C_R   0.725570 0.245349 0.231748 -0.121769
C123  C     C_R   0.750383 0.702807 0.210223 -0.172360
C124  C     C_R   0.249616 0.297194 0.789777 -0.172356
C125  C     C_R   0.802537 0.240984 0.814799 -0.202694
C126  C     C_R   0.197470 0.759020 0.185188 -0.202717
C127  C     C_R   0.219965 0.190324 0.166942 -0.183353
C128  C     C_R   0.780030 0.809683 0.833061 -0.183346
C129  C     C_R   0.302534 0.740979 0.814803 -0.202689
C130  C     C_R   0.697474 0.259026 0.185186 -0.202701
C131  C     C_R   0.719968 0.690320 0.166940 -0.183351
C132  C     C_R   0.280031 0.309682 0.833060 -0.183348
C133  C     C_R   0.072859 0.101898 0.935715 0.952918
C134  C     C_R   0.927140 0.898103 0.064285 0.952919
C135  C     C_R   0.927561 0.102542 0.064144 0.968057
C136  C     C_R   0.072441 0.897459 0.935855 0.968051
C137  C     C_R   0.572859 0.601897 0.935715 0.952916
C138  C     C_R   0.427140 0.398102 0.064285 0.952917
C139  C     C_R   0.427560 0.602541 0.064144 0.968055
C140  C     C_R   0.572442 0.397460 0.935855 0.968053
C141  C     C_R   0.569593 0.119234 0.444821 0.008544
C142  C     C_R   0.430412 0.880765 0.555166 0.008555
C143  C     C_R   0.474243 0.123867 0.430122 -0.013414
C144  C     C_R   0.525761 0.876132 0.569865 -0.013403
C145  C     C_R   0.069598 0.619233 0.444810 0.008531
C146  C     C_R   0.930423 0.380756 0.555128 0.008584
C147  C     C_R   0.974253 0.623869 0.430097 -0.013433
C148  C     C_R   0.025773 0.376117 0.569822 -0.013393
C149  C     C_R   0.556164 0.181506 0.412095 -0.144589
C150  C     C_R   0.443846 0.818485 0.587874 -0.144572
C151  C     C_R   0.508084 0.184490 0.407127 -0.116031
C152  C     C_R   0.491927 0.815501 0.592843 -0.116016
C153  C     C_R   0.056171 0.681503 0.412083 -0.144605
C154  C     C_R   0.943851 0.318447 0.587850 -0.144399
C155  C     C_R   0.008092 0.684488 0.407108 -0.116042
C156  C     C_R   0.991938 0.315461 0.592798 -0.115932
C157  C     C_R   0.486813 0.062134 0.465727 0.011555
C158  C     C_R   0.513188 0.937871 0.534270 0.011545
C159  C     C_R   0.533929 0.060477 0.474904 0.012909
C160  C     C_R   0.466072 0.939527 0.525092 0.012898
C161  C     C_R   0.986826 0.562131 0.465690 0.011576
C162  C     C_R   0.013202 0.437862 0.534222 0.011495
C163  C     C_R   0.033938 0.560473 0.474877 0.012924
C164  C     C_R   0.966089 0.439521 0.525039 0.012825
C165  C     C_R   0.953167 0.501351 0.490038 -0.042256
C166  C     C_R   0.046858 0.498646 0.509882 -0.042261
C167  C     C_R   0.453151 0.001353 0.490086 -0.042278
C168  C     C_R   0.546849 0.998652 0.509914 -0.042276
C169  C     C_R   0.872712 0.441196 0.504370 -0.034742
C170  C     C_R   0.127302 0.558808 0.495591 -0.034695
C171  C     C_R   0.107218 0.435788 0.554147 -0.040222
C172  C     C_R   0.892794 0.564214 0.445808 -0.040202
C173  C     C_R   0.372700 0.941193 0.504405 -0.034695
C174  C     C_R   0.627302 0.058809 0.495591 -0.034693
C175  C     C_R   0.607218 0.935791 0.554155 -0.040211
C176  C     C_R   0.392783 0.064210 0.445840 -0.040201
C177  C     C_R   0.831102 0.438740 0.479965 -0.083632
C178  C     C_R   0.168908 0.561263 0.520005 -0.083630
C179  C     C_R   0.157632 0.435371 0.554798 -0.067068
C180  C     C_R   0.842374 0.564632 0.445175 -0.067076
C181  C     C_R   0.331090 0.938738 0.479998 -0.083629
C182  C     C_R   0.668911 0.061263 0.519999 -0.083627
C183  C     C_R   0.657634 0.935372 0.554796 -0.067078
C184  C     C_R   0.342366 0.064629 0.445201 -0.067073
C185  C     C_R   0.816565 0.500274 0.450586 -0.302500
C186  C     C_R   0.183443 0.499728 0.549384 -0.302515
C187  C     C_R   0.316553 0.000272 0.450622 -0.302519
C188  C     C_R   0.683448 0.999728 0.549376 -0.302516
H1    H     H_    0.001648 0.266333 0.617337 0.208710
H2    H     H_    0.998381 0.733589 0.382572 0.208795
H3    H     H_    0.917430 0.271719 0.609084 0.178427
H4    H     H_    0.082584 0.728200 0.390874 0.178540
H5    H     H_    0.501643 0.766393 0.617365 0.208765
H6    H     H_    0.498373 0.233590 0.382589 0.208780
H7    H     H_    0.417438 0.771777 0.609071 0.178521
H8    H     H_    0.582578 0.228206 0.390881 0.178530
H9    H     H_    0.781784 0.499554 0.439188 0.191824
H10   H     H_    0.218221 0.500447 0.560790 0.191832
H11   H     H_    0.281773 0.999553 0.439223 0.191839
H12   H     H_    0.718227 0.000447 0.560777 0.191839
H13   H     H_    0.618088 0.347371 0.774105 0.202893
H14   H     H_    0.381915 0.652634 0.225892 0.202893
H15   H     H_    0.383545 0.343264 0.223090 0.204103
H16   H     H_    0.616454 0.656735 0.776910 0.204104
H17   H     H_    0.118087 0.847370 0.774106 0.202892
H18   H     H_    0.881916 0.152634 0.225893 0.202893
H19   H     H_    0.883545 0.843264 0.223090 0.204107
H20   H     H_    0.116455 0.156735 0.776910 0.204105
H21   H     H_    0.798447 0.244551 0.698705 0.236147
H22   H     H_    0.201559 0.755463 0.301281 0.236149
H23   H     H_    0.240800 0.168663 0.266642 0.180331
H24   H     H_    0.759194 0.831344 0.733361 0.180327
H25   H     H_    0.298442 0.744545 0.698712 0.236163
H26   H     H_    0.701562 0.255455 0.301279 0.236162
H27   H     H_    0.740804 0.668659 0.266639 0.180327
H28   H     H_    0.259195 0.331343 0.733360 0.180328
H29   H     H_    0.843098 0.218611 0.777875 0.163367
H30   H     H_    0.156906 0.781381 0.222109 0.163375
H31   H     H_    0.189255 0.148962 0.193678 0.169709
H32   H     H_    0.810739 0.851048 0.806326 0.169708
H33   H     H_    0.343098 0.718613 0.777878 0.163377
H34   H     H_    0.656908 0.281385 0.222111 0.163371
H35   H     H_    0.689259 0.648955 0.193675 0.169708
H36   H     H_    0.310740 0.351047 0.806325 0.169708
O1    O     O_R   0.746490 0.236330 0.638080 -0.637843
O2    O     O_R   0.253510 0.763670 0.361920 -0.637831
O3    O     O_R   0.253510 0.236330 0.361920 -0.656305
O4    O     O_R   0.746490 0.763670 0.638080 -0.656298
O5    O     O_R   0.246490 0.736330 0.638080 -0.637843
O6    O     O_R   0.753510 0.263670 0.361920 -0.637843
O7    O     O_R   0.753510 0.736330 0.361920 -0.656306
O8    O     O_R   0.246490 0.263670 0.638080 -0.656300
O9    O     O_R   0.674170 0.186160 0.516270 -0.574942
O10   O     O_R   0.325830 0.813840 0.483730 -0.574936
O11   O     O_R   0.325830 0.186160 0.483730 -0.572320
O12   O     O_R   0.674170 0.813840 0.516270 -0.572315
O13   O     O_R   0.174170 0.686160 0.516270 -0.574932
O14   O     O_R   0.825830 0.313840 0.483730 -0.574945
O15   O     O_R   0.825830 0.686160 0.483730 -0.572319
O16   O     O_R   0.174170 0.313840 0.516270 -0.572315
O17   O     O_R   0.739960 0.127620 0.525000 -0.651790
O18   O     O_R   0.260040 0.872380 0.475000 -0.651794
O19   O     O_R   0.260040 0.127620 0.475000 -0.651460
O20   O     O_R   0.739960 0.872380 0.525000 -0.651461
O21   O     O_R   0.239960 0.627620 0.525000 -0.651790
O22   O     O_R   0.760040 0.372380 0.475000 -0.651771
O23   O     O_R   0.760040 0.627620 0.475000 -0.651454
O24   O     O_R   0.239960 0.372380 0.525000 -0.651456
O25   O     O_R   0.680700 0.294870 0.629350 -0.626907
O26   O     O_R   0.319300 0.705130 0.370650 -0.626919
O27   O     O_R   0.319300 0.294870 0.370650 -0.590342
O28   O     O_R   0.680700 0.705130 0.629350 -0.590340
O29   O     O_R   0.180700 0.794870 0.629350 -0.626920
O30   O     O_R   0.819300 0.205130 0.370650 -0.626928
O31   O     O_R   0.819300 0.794870 0.370650 -0.590335
O32   O     O_R   0.180700 0.205130 0.629350 -0.590341
O33   O     O_R   0.062020 0.072840 0.007170 -0.577272
O34   O     O_R   0.937980 0.927160 0.992830 -0.577268
O35   O     O_R   0.937980 0.072840 0.992830 -0.590691
O36   O     O_R   0.062020 0.927160 0.007170 -0.590690
O37   O     O_R   0.562020 0.572840 0.007170 -0.577272
O38   O     O_R   0.437980 0.427160 0.992830 -0.577268
O39   O     O_R   0.437980 0.572840 0.992830 -0.590692
O40   O     O_R   0.562020 0.427160 0.007170 -0.590694
O41   O     O_R   0.947860 0.073950 0.109290 -0.614918
O42   O     O_R   0.052140 0.926050 0.890710 -0.614915
O43   O     O_R   0.052140 0.073950 0.890710 -0.614419
O44   O     O_R   0.947860 0.926050 0.109290 -0.614421
O45   O     O_R   0.447860 0.573950 0.109290 -0.614915
O46   O     O_R   0.552140 0.426050 0.890710 -0.614913
O47   O     O_R   0.552140 0.573950 0.890710 -0.614421
O48   O     O_R   0.447860 0.426050 0.109290 -0.614425
Zn1   Zn    Zn3+2 0.792340 0.208750 0.507670 1.004374
Zn2   Zn    Zn3+2 0.207660 0.791250 0.492330 1.004393
Zn3   Zn    Zn3+2 0.207660 0.208750 0.492330 1.017763
Zn4   Zn    Zn3+2 0.792340 0.791250 0.507670 1.017778
Zn5   Zn    Zn3+2 0.292340 0.708750 0.507670 1.004391
Zn6   Zn    Zn3+2 0.707660 0.291250 0.492330 1.004396
Zn7   Zn    Zn3+2 0.707660 0.708750 0.492330 1.017768
Zn8   Zn    Zn3+2 0.292340 0.291250 0.507670 1.017767
Zn9   Zn    Zn3+2 0.505960 0.500000 0.080520 1.079113
Zn10  Zn    Zn3+2 0.494040 0.500000 0.919480 1.079119
Zn11  Zn    Zn3+2 0.005960 1.000000 0.080520 1.079117
Zn12  Zn    Zn3+2 0.994040 0.000000 0.919480 1.079120
F1    F     F_    0.077532 0.321810 0.631006 -0.645768
F2    F     F_    0.922472 0.678201 0.368958 -0.645771
F3    F     F_    0.841082 0.341243 0.606219 -0.705315
F4    F     F_    0.158930 0.658770 0.393773 -0.705342
F5    F     F_    0.577533 0.821817 0.631018 -0.645783
F6    F     F_    0.422469 0.178180 0.368971 -0.645793
F7    F     F_    0.341080 0.841229 0.606220 -0.705349
F8    F     F_    0.658928 0.158766 0.393768 -0.705349
F9    F     F_    0.555282 0.303442 0.082618 -0.630100
F10   F     F_    0.444726 0.696555 0.917377 -0.630100
F11   F     F_    0.441757 0.322038 0.903788 -0.627111
F12   F     F_    0.558241 0.677961 0.096212 -0.627112
F13   F     F_    0.055278 0.803446 0.082622 -0.630097
F14   F     F_    0.944733 0.196555 0.917376 -0.630096
F15   F     F_    0.941757 0.822040 0.903788 -0.627112
F16   F     F_    0.058241 0.177962 0.096212 -0.627115
I1    I     I_    0.586796 0.194482 0.186785 -0.257852
I2    I     I_    0.413222 0.805494 0.813180 -0.257848
I3    I     I_    0.408350 0.280423 0.765744 -0.289827
I4    I     I_    0.591648 0.719576 0.234257 -0.289835
I5    I     I_    0.086791 0.694496 0.186785 -0.257885
I6    I     I_    0.913254 0.305455 0.813114 -0.257868
I7    I     I_    0.908350 0.780427 0.765743 -0.289826
I8    I     I_    0.091647 0.219587 0.234254 -0.289850

loop_
_geom_bond_atom_site_label_1
_geom_bond_atom_site_label_2
_ccdc_geom_bond_type
C154  H3    S    
C85   C182  S    
C35   C131  A    
O12   Zn7   S    
C9    C169  A    
O13   Zn2   S    
C34   C42   A    
C181  C187  A    
C138  O48   A    
C139  O45   A    
C27   C99   A    
C170  C178  A    
C85   O9    A    
C175  C183  A    
C42   C109  A    
C24   C96   A    
C149  H8    S    
C1    O1    A    
C87   O11   A    
C30   C38   A    
O3    Zn3   S    
O27   Zn8   S    
C136  O36   A    
C15   F3    S    
C147  C155  A    
C7    O31   A    
C14   C172  A    
C143  C151  A    
C64   H16   S    
C90   C177  S    
C11   C167  A    
O40   Zn9   S    
C82   C98   A    
C149  C151  A    
O45   Zn9   S    
C73   C81   A    
C161  C163  A    
C162  C164  A    
C90   O14   A    
C158  C168  A    
C84   C100  A    
O26   Zn5   S    
C4    O28   A    
C57   C65   A    
O47   Zn10  S    
C37   C114  A    
C27   C35   A    
C10   C171  A    
C21   C29   A    
C8    O32   A    
C81   C121  A    
C114  I6    S    
C121  H25   S    
C24   C32   A    
C146  C154  A    
C86   O18   A    
C120  C128  A    
C106  F14   S    
C13   F1    S    
C63   C71   A    
C36   C44   A    
C10   C170  A    
C2    O2    A    
C12   C174  A    
O42   Zn12  S    
C176  C184  A    
C164  C165  A    
C48   C96   A    
O1    Zn1   S    
O7    Zn7   S    
O31   Zn4   S    
C148  C162  A    
O8    Zn8   S    
C183  C188  A    
C101  F9    S    
C108  C116  A    
C21   C93   A    
O43   Zn12  S    
C78   C94   A    
O5    Zn5   S    
C112  I4    S    
C89   O21   A    
C49   C97   A    
C21   C42   A    
C22   C41   A    
C51   C107  A    
C24   C43   A    
C185  H9    S    
C82   C122  A    
C161  C165  A    
C17   C175  A    
C18   C176  A    
C120  H24   S    
C139  O39   A    
C69   C77   A    
C31   C127  A    
C45   C93   A    
C174  C182  A    
C71   C79   A    
C137  O47   A    
C179  C186  A    
C18   F6    S    
C62   C70   A    
C11   C176  A    
C63   H15   S    
O6    Zn6   S    
C17   C144  A    
C151  H6    S    
C105  C113  A    
C18   C143  A    
C78   C118  A    
O28   Zn7   S    
C3    O27   A    
O29   Zn2   S    
C36   C132  A    
C1    O25   A    
C65   H17   S    
C188  H12   S    
C66   C74   A    
C8    C76   S    
C49   C57   A    
C124  C132  A    
C136  O42   A    
C5    O29   A    
C52   C60   A    
C59   C67   A    
C53   C61   A    
C141  C159  A    
C20   C174  A    
C23   C95   A    
C55   C63   A    
C86   C181  S    
C56   C64   A    
O14   Zn1   S    
C35   C43   A    
C128  H32   S    
C156  H1    S    
C45   C53   A    
C22   C94   A    
C171  C179  A    
C169  C177  A    
C133  O43   A    
C50   C98   A    
O44   Zn11  S    
C20   F8    S    
C104  C112  A    
C145  C163  A    
C146  C164  A    
C14   C147  A    
C52   C100  A    
C16   C145  A    
C178  C186  A    
C25   C38   A    
C54   C139  S    
C46   C94   A    
C27   C40   A    
C10   C166  A    
C91   C180  S    
C182  C188  A    
C89   C178  S    
O46   Zn10  S    
C60   C68   A    
C92   O24   A    
O37   Zn9   S    
C25   C97   A    
C6    O6    A    
C67   C75   A    
O19   Zn3   S    
C92   O16   A    
C22   C30   A    
C20   C141  A    
C115  I7    S    
C15   C146  A    
C103  F11   S    
C58   C135  S    
C68   C76   A    
O2    Zn2   S    
C59   C134  S    
C119  H23   S    
C184  C187  A    
C32   C128  A    
C117  H21   S    
C72   C80   A    
C107  F15   S    
C56   C137  S    
O34   Zn12  S    
C14   F2    S    
C5    O5    A    
O23   Zn7   S    
C150  H7    S    
O24   Zn8   S    
C126  H30   S    
C13   C171  A    
C140  O40   A    
O33   Zn11  S    
C131  H35   S    
C117  C125  A    
C25   C33   A    
C119  C127  A    
C123  H27   S    
C76   C84   A    
C80   C120  A    
C127  H31   S    
C102  F10   S    
C7    O7    A    
O9    Zn6   S    
C86   O10   A    
O39   Zn10  S    
O41   Zn11  S    
C47   C55   A    
O35   Zn12  S    
C29   C125  A    
C40   C115  A    
C101  C109  A    
C177  C185  A    
C103  C111  A    
O17   Zn1   S    
C62   H14   S    
C162  C166  A    
C138  O38   A    
C79   C119  A    
C68   H20   S    
C153  C155  A    
C154  C156  A    
C172  C180  A    
C133  O33   A    
C173  C181  A    
C157  C159  A    
C83   C99   A    
C158  C160  A    
C74   C82   A    
O30   Zn1   S    
C6    C74   S    
C91   O23   A    
C116  I8    S    
C134  O44   A    
C109  I1    S    
C47   C103  A    
C50   C58   A    
C89   O13   A    
C130  H34   S    
C163  C166  A    
C147  C161  A    
C38   C113  A    
C49   C105  A    
C54   C62   A    
C28   C39   A    
C1    C69   S    
C23   C44   A    
C122  H26   S    
C187  H11   S    
C80   C96   A    
C3    C71   S    
C19   C173  A    
C79   C95   A    
C155  H2    S    
C46   C54   A    
C85   O17   A    
C45   C101  A    
C19   C142  A    
C157  C167  A    
C102  C110  A    
C3    O3    A    
C4    C72   S    
O36   Zn11  S    
C33   C129  A    
O48   Zn9   S    
C123  C131  A    
C132  H36   S    
C135  O35   A    
C121  C129  A    
C88   O20   A    
O16   Zn3   S    
C26   C37   A    
C104  F12   S    
C33   C41   A    
C142  C150  A    
C9    C165  A    
C75   C83   A    
O38   Zn10  S    
C90   O22   A    
C77   C93   A    
C140  O46   A    
C4    O4    A    
C44   C111  A    
C16   C170  A    
C28   C36   A    
C144  C152  A    
C39   C116  A    
C29   C37   A    
C50   C106  A    
C186  H10   S    
C9    C172  A    
C148  C156  A    
C83   C123  A    
C2    C70   S    
C60   C133  S    
C23   C31   A    
C125  H29   S    
C30   C126  A    
C70   C78   A    
C53   C140  S    
C141  C149  A    
C159  C168  A    
C46   C102  A    
C6    O30   A    
C55   C138  S    
C17   F5    S    
C152  H5    S    
C106  C114  A    
O11   Zn8   S    
C92   C179  S    
C77   C117  A    
C2    O26   A    
C66   H18   S    
C48   C104  A    
C65   C73   A    
O25   Zn6   S    
C15   C169  A    
C160  C167  A    
O22   Zn6   S    
C61   H13   S    
C26   C34   A    
C113  I5    S    
O32   Zn3   S    
C16   F4    S    
C134  O34   A    
C145  C153  A    
C28   C100  A    
C32   C40   A    
C52   C108  A    
O10   Zn5   S    
O15   Zn4   S    
C5    C73   S    
C105  F13   S    
C58   C66   A    
C143  C157  A    
C108  F16   S    
C51   C99   A    
C88   O12   A    
C11   C173  A    
O18   Zn2   S    
C129  H33   S    
C87   C184  S    
C88   C183  S    
C7    C75   S    
C87   O19   A    
C57   C136  S    
C107  C115  A    
C26   C98   A    
C12   C175  A    
C41   C110  A    
C110  I2    S    
C150  C152  A    
C51   C59   A    
C43   C112  A    
C144  C158  A    
C67   H19   S    
O20   Zn4   S    
C124  H28   S    
C61   C69   A    
C48   C56   A    
C142  C160  A    
C19   F7    S    
C12   C168  A    
O21   Zn5   S    
C84   C124  A    
C118  H22   S    
C8    O8    A    
C81   C97   A    
C111  I3    S    
C31   C39   A    
C64   C72   A    
O4    Zn4   S    
C180  C185  A    
C34   C130  A    
C91   O15   A    
C135  O41   A    
C47   C95   A    
C118  C126  A    
C13   C148  A    
C122  C130  A    
C137  O37   A    
C153  H4    S    
