data_mof_unit_198.cif
_audit_creation_date              2012-12-11T16:39:17-0500
_audit_creation_method            fapswitch 2.2
_symmetry_space_group_name_H-M    P1
_symmetry_Int_Tables_number       1
_space_group_crystal_system       monoclinic
_cell_length_a                    24.562918
_cell_length_b                    6.953625
_cell_length_c                    22.065522
_cell_angle_alpha                 90.0
_cell_angle_beta                  99.080206
_cell_angle_gamma                 90.0
_cell_volume                      3721.59090072

loop_
_atom_site_label
_atom_site_type_symbol
_atom_type_description
_atom_site_fract_x
_atom_site_fract_y
_atom_site_fract_z
_atom_type_partial_charge
O1    O     O_R   0.188680 0.380540 0.689820 -0.549341
O2    O     O_R   0.811320 0.619460 0.310180 -0.548488
O3    O     O_R   0.311320 0.880540 0.810180 -0.549341
O4    O     O_R   0.688680 0.119460 0.189820 -0.548488
O5    O     O_R   0.300940 0.707710 0.691860 -0.505720
O6    O     O_R   0.699060 0.292290 0.308140 -0.506059
O7    O     O_R   0.199060 0.207710 0.808140 -0.505723
O8    O     O_R   0.800940 0.792290 0.191860 -0.506058
C1    C     C_R   0.317650 0.541470 0.676688 0.803860
C2    C     C_R   0.682217 0.458509 0.323184 0.798684
C3    C     C_R   0.182350 0.041470 0.823312 0.803857
C4    C     C_R   0.817783 0.958509 0.176816 0.798684
O9    O     O_R   0.188460 0.710090 0.682560 -0.546433
O10   O     O_R   0.811540 0.289910 0.317440 -0.546693
O11   O     O_R   0.311540 0.210090 0.817440 -0.546437
O12   O     O_R   0.688460 0.789910 0.182560 -0.546693
O13   O     O_R   0.198040 0.882940 0.800810 -0.537085
O14   O     O_R   0.801960 0.117060 0.199190 -0.536016
O15   O     O_R   0.301960 0.382940 0.699190 -0.537085
O16   O     O_R   0.698040 0.617060 0.300810 -0.536016
C5    C     C_R   0.168396 0.541192 0.666110 0.715110
C6    C     C_R   0.831808 0.458802 0.333682 0.714562
C7    C     C_R   0.331604 0.041192 0.833890 0.715106
C8    C     C_R   0.668192 0.958802 0.166318 0.714561
O17   O     O_3   0.253280 0.547850 0.788810 -0.359442
O18   O     O_3   0.746720 0.452150 0.211190 -0.358251
O19   O     O_3   0.246720 0.047850 0.711190 -0.359438
O20   O     O_3   0.753280 0.952150 0.288810 -0.358251
V1    V     V_3+5 0.249390 0.821720 0.742800 1.565955
V2    V     V_3+5 0.750610 0.178280 0.257200 1.566740
V3    V     V_3+5 0.250610 0.321720 0.757200 1.565949
V4    V     V_3+5 0.749390 0.678280 0.242800 1.566739
C9    C     C_R   0.440742 0.845045 0.960294 -0.119352
C10   C     C_R   0.542288 0.153735 0.061827 -0.118330
C11   C     C_R   0.059258 0.345046 0.539706 -0.119352
C12   C     C_R   0.957712 0.653735 0.438173 -0.118330
H1    H     H_    0.449333 0.709512 0.983979 0.106573
H2    H     H_    0.519642 0.287773 0.056726 0.107244
H3    H     H_    0.050666 0.209512 0.516021 0.106572
H4    H     H_    0.980357 0.787773 0.443274 0.107244
C13   C     C_R   0.394518 0.856449 0.914322 -0.124373
C14   C     C_R   0.589001 0.142442 0.107108 -0.136650
C15   C     C_R   0.105482 0.356449 0.585678 -0.124375
C16   C     C_R   0.910999 0.642442 0.392892 -0.136650
H5    H     H_    0.369562 0.728878 0.903512 0.121901
H6    H     H_    0.601101 0.268746 0.134699 0.117388
H7    H     H_    0.130438 0.228878 0.596488 0.121902
H8    H     H_    0.898899 0.768746 0.365301 0.117388
C17   C     C_R   0.380288 0.030422 0.883311 -0.038797
C18   C     C_R   0.619030 0.970067 0.117411 -0.042327
C19   C     C_R   0.119712 0.530423 0.616689 -0.038798
C20   C     C_R   0.880970 0.470067 0.382589 -0.042327
C21   C     C_R   0.413562 0.192697 0.899378 -0.141885
C22   C     C_R   0.601224 0.809422 0.080903 -0.127790
C23   C     C_R   0.086438 0.692697 0.600622 -0.141887
C24   C     C_R   0.898776 0.309422 0.419097 -0.127790
H9    H     H_    0.404073 0.328613 0.876113 0.115000
H10   H     H_    0.623335 0.674400 0.087429 0.117106
H11   H     H_    0.095927 0.828613 0.623887 0.115001
H12   H     H_    0.876665 0.174400 0.412571 0.117106
C25   C     C_R   0.460333 0.180613 0.944673 -0.110564
C26   C     C_R   0.554962 0.821515 0.034889 -0.116395
C27   C     C_R   0.039667 0.680613 0.555327 -0.110564
C28   C     C_R   0.945038 0.321515 0.465111 -0.116394
H13   H     H_    0.485703 0.307586 0.954253 0.104832
H14   H     H_    0.543575 0.695853 0.006808 0.106723
H15   H     H_    0.014297 0.807585 0.545747 0.104832
H16   H     H_    0.956425 0.195853 0.493192 0.106723
C29   C     C_R   0.474678 0.006592 0.976001 0.091221
C30   C     C_R   0.524563 0.993762 0.024735 0.090417
C31   C     C_R   0.025322 0.506592 0.523999 0.091221
C32   C     C_R   0.975437 0.493762 0.475265 0.090417
C33   C     C_R   0.099105 0.154623 0.952285 -0.137806
C34   C     C_R   0.902209 0.845844 0.048776 -0.136528
C35   C     C_R   0.400894 0.654623 0.547715 -0.137809
C36   C     C_R   0.597791 0.345844 0.451224 -0.136526
H17   H     H_    0.097759 0.258733 0.988548 0.235527
H18   H     H_    0.903958 0.741620 0.012635 0.215764
H19   H     H_    0.402241 0.758732 0.511452 0.235527
H20   H     H_    0.596042 0.241620 0.487364 0.215768
C37   C     C_R   0.140457 0.167823 0.915078 0.457098
C38   C     C_R   0.860621 0.831940 0.085653 0.463072
C39   C     C_R   0.359543 0.667822 0.584922 0.457098
C40   C     C_R   0.639379 0.331940 0.414347 0.463071
C41   C     C_R   0.141620 0.032273 0.866946 -0.245736
C42   C     C_R   0.858878 0.967822 0.133574 -0.238743
C43   C     C_R   0.358380 0.532273 0.633054 -0.245736
C44   C     C_R   0.641122 0.467822 0.366426 -0.238742
C45   C     C_R   0.102250 0.883392 0.859803 -0.221679
C46   C     C_R   0.898094 0.117214 0.140972 -0.219797
C47   C     C_R   0.397750 0.383392 0.640197 -0.221681
C48   C     C_R   0.601906 0.617214 0.359028 -0.219798
H21   H     H_    0.102839 0.778492 0.823648 0.193550
H22   H     H_    0.897211 0.222038 0.177089 0.192577
H23   H     H_    0.397161 0.278492 0.676352 0.193550
H24   H     H_    0.602789 0.722038 0.322911 0.192577
C49   C     C_R   0.061703 0.869138 0.897989 0.502656
C50   C     C_R   0.938889 0.132087 0.103129 0.425087
C51   C     C_R   0.438297 0.369138 0.602012 0.502657
C52   C     C_R   0.561111 0.632087 0.396871 0.425087
C53   C     C_R   0.059715 0.007845 0.944146 -0.121011
C54   C     C_R   0.941349 0.993394 0.057091 -0.114139
C55   C     C_R   0.440285 0.507845 0.555854 -0.121011
C56   C     C_R   0.558651 0.493395 0.442909 -0.114141
C57   C     C_1   0.018012 0.002648 0.984082 0.211155
C58   C     C_1   0.983239 0.999257 0.017403 0.188012
C59   C     C_1   0.481988 0.502648 0.515918 0.211157
C60   C     C_1   0.516760 0.499257 0.482597 0.188016
S1    S     S_3+6 0.191030 0.349813 0.932854 0.048322
O21   O     O_2   0.179716 0.508731 0.886449 -0.333829
O22   O     O_2   0.189364 0.430671 0.995727 -0.290467
O23   O     O_3   0.254071 0.257804 0.930956 -0.511156
H25   H     H_    0.278983 0.370572 0.933646 0.353622
S2    S     S_3+6 0.810567 0.648401 0.067776 0.042850
O24   O     O_2   0.813065 0.566070 0.005268 -0.302347
O25   O     O_2   0.821731 0.490880 0.114681 -0.331803
O26   O     O_3   0.747223 0.739020 0.068627 -0.511811
H26   H     H_    0.722386 0.625962 0.064019 0.352652
S3    S     S_3+6 0.308969 0.849812 0.567146 0.048320
O27   O     O_2   0.320284 0.008731 0.613550 -0.333825
O28   O     O_2   0.310635 0.930669 0.504272 -0.290472
O29   O     O_3   0.245929 0.757802 0.569044 -0.511158
H27   H     H_    0.221015 0.870568 0.566345 0.353624
S4    S     S_3+6 0.689432 0.148401 0.432224 0.042851
O30   O     O_2   0.686935 0.066070 0.494732 -0.302346
O31   O     O_2   0.678269 0.990880 0.385319 -0.331803
O32   O     O_3   0.752777 0.239020 0.431373 -0.511811
H28   H     H_    0.777614 0.125962 0.435981 0.352653
S5    S     S_3+6 0.014296 0.675943 0.887713 0.044215
O33   O     O_2   0.022537 0.555019 0.833412 -0.319003
O34   O     O_2   0.022741 0.553710 0.944561 -0.304073
O35   O     O_3   0.949736 0.764135 0.876842 -0.489237
H29   H     H_    0.925878 0.652491 0.882125 0.387721
S6    S     S_3+6 0.986213 0.325588 0.113963 0.059728
O36   O     O_2   0.978811 0.446593 0.056889 -0.276545
O37   O     O_2   0.977016 0.448640 0.167453 -0.325218
O38   O     O_3   0.050982 0.239516 0.126166 -0.463195
H30   H     H_    0.052190 0.151052 0.161536 0.347195
S7    S     S_3+6 0.485704 0.175944 0.612288 0.044212
O39   O     O_2   0.477464 0.055020 0.666588 -0.319008
O40   O     O_2   0.477259 0.053710 0.555439 -0.304069
O41   O     O_3   0.550264 0.264136 0.623158 -0.489240
H31   H     H_    0.574122 0.152488 0.617883 0.387724
S8    S     S_3+6 0.513787 0.825588 0.386037 0.059728
O42   O     O_2   0.521189 0.946593 0.443111 -0.276544
O43   O     O_2   0.522984 0.948641 0.332548 -0.325218
O44   O     O_3   0.449018 0.739516 0.373834 -0.463195
H32   H     H_    0.447810 0.651053 0.338463 0.347196

loop_
_geom_bond_atom_site_label_1
_geom_bond_atom_site_label_2
_ccdc_geom_bond_type
O17   V3    S    
C51   C55   A    
O18   V4    S    
C43   C47   A    
O19   V1    S    
O13   V1    S    
C57   C58   T    
O3    C7    A    
O44   H32   S    
C10   C14   A    
O1    V3    S    
O15   V3    S    
C36   C40   A    
S6    O38   S    
S2    O24   D    
O4    V2    S    
C3    C41   S    
O1    C5    A    
C2    C44   S    
C18   C22   A    
C28   H16   S    
O9    V1    S    
C34   C38   A    
C23   H11   S    
S1    O22   D    
O16   V4    S    
C11   H3    S    
O4    C8    A    
S7    O41   S    
C7    C17   S    
C35   C55   A    
C48   H24   S    
C26   C30   A    
O2    V4    S    
C14   H6    S    
C39   S3    S    
O3    V1    S    
C21   C25   A    
C1    O15   A    
C52   C56   A    
C44   C48   A    
C2    O16   A    
O35   H29   S    
C23   C27   A    
O2    C6    A    
C59   C60   T    
C24   C28   A    
O14   V2    S    
C11   C15   A    
C10   C30   A    
C9    C29   A    
C34   C54   A    
S5    O35   S    
C16   C20   A    
C56   C60   S    
O11   C7    A    
C11   C31   A    
O12   C8    A    
O17   V1    S    
C51   S7    S    
O10   V2    S    
S8    O44   S    
C33   C37   A    
O23   H25   S    
C46   H22   S    
O5    V1    S    
S3    O28   D    
C8    C18   S    
C27   H15   S    
C53   C57   S    
O7    V3    S    
C26   H14   S    
O19   V3    S    
O8    V4    S    
C36   H20   S    
O20   V4    S    
C38   S2    S    
S8    O43   D    
C42   C46   A    
S1    O23   S    
C21   H9    S    
S6    O37   D    
C22   C26   A    
C38   C42   A    
C9    H1    S    
C24   H12   S    
C45   C49   A    
O7    C3    A    
C36   C56   A    
O5    C1    A    
C12   H4    S    
O8    C4    A    
O9    C5    A    
C13   H5    S    
S3    O27   D    
C14   C18   A    
S4    O32   S    
O6    V2    S    
C27   C31   A    
O18   V2    S    
C15   H7    S    
C52   S8    S    
C12   C16   A    
C40   S4    S    
O32   H28   S    
C5    C19   S    
C48   C52   A    
S4    O31   D    
S5    O33   D    
C22   H10   S    
S3    O29   S    
C25   C29   A    
C3    O13   A    
C41   C45   A    
C10   H2    S    
C40   C44   A    
C37   S1    S    
S8    O42   D    
C39   C43   A    
O6    C2    A    
S2    O25   D    
S7    O39   D    
O11   V3    S    
S6    O36   D    
O12   V4    S    
C13   C17   A    
O38   H30   S    
C50   S6    S    
C4    C42   S    
C9    C13   A    
O10   C6    A    
O20   V2    S    
C49   S5    S    
C31   C32   S    
C16   H8    S    
C50   C54   A    
S1    O21   D    
C1    C43   S    
S7    O40   D    
C35   C39   A    
C20   C24   A    
C15   C19   A    
C17   C21   A    
C33   C53   A    
C54   C58   S    
C6    C20   S    
C19   C23   A    
C28   C32   A    
C45   H21   S    
C29   C30   S    
C37   C41   A    
S2    O26   S    
C47   H23   S    
C25   H13   S    
C34   H18   S    
C4    O14   A    
C33   H17   S    
O41   H31   S    
C55   C59   S    
C47   C51   A    
O29   H27   S    
O26   H26   S    
C35   H19   S    
C46   C50   A    
C49   C53   A    
C12   C32   A    
S4    O30   D    
S5    O34   D    
