data_mof_unit_3955.cif
_audit_creation_date              2012-12-10T20:07:01-0500
_audit_creation_method            fapswitch 2.2
_symmetry_space_group_name_H-M    P1
_symmetry_Int_Tables_number       1
_space_group_crystal_system       triclinic
_cell_length_a                    19.120852
_cell_length_b                    18.444094
_cell_length_c                    10.667188
_cell_angle_alpha                 90.111499
_cell_angle_beta                  90.342092
_cell_angle_gamma                 89.133134
_cell_volume                      3761.45888225

loop_
_atom_site_label
_atom_site_type_symbol
_atom_type_description
_atom_site_fract_x
_atom_site_fract_y
_atom_site_fract_z
_atom_type_partial_charge
C1    C     C_R   0.365181 0.500481 0.503961 0.787126
C2    C     C_R   0.635092 0.499247 0.501073 0.801354
C3    C     C_R   0.711469 0.497964 0.518684 -0.222953
C4    C     C_R   0.289887 0.502065 0.529299 -0.210449
C5    C     C_R   0.962729 0.575390 0.635879 -0.164474
C6    C     C_R   0.037584 0.445605 0.599568 -0.157640
C7    C     C_R   0.035474 0.575616 0.636235 -0.164856
C8    C     C_R   0.965309 0.445406 0.598669 -0.164636
C9    C     C_R   0.072986 0.510929 0.614611 0.106254
C10   C     C_R   0.927420 0.510510 0.613510 0.109338
C11   C     C_R   0.542556 0.725491 0.580976 0.047419
C12   C     C_R   0.462154 0.274630 0.411597 0.046613
C13   C     C_R   0.457323 0.726468 0.418987 0.047218
C14   C     C_R   0.537004 0.273351 0.589149 0.014703
C15   C     C_R   0.543179 0.801556 0.582542 -0.198424
C16   C     C_R   0.460988 0.198581 0.410161 -0.185493
C17   C     C_R   0.456390 0.802544 0.417415 -0.193889
C18   C     C_R   0.537834 0.197289 0.590320 -0.181431
C19   C     C_R   0.499696 0.841050 0.499991 0.131477
C20   C     C_R   0.499421 0.158827 0.500048 0.178866
C21   C     C_R   0.524045 0.960803 0.394408 -0.074249
C22   C     C_R   0.473931 0.038845 0.605140 -0.088135
C23   C     C_R   0.474839 0.961750 0.605403 -0.072487
C24   C     C_R   0.524652 0.037872 0.394629 -0.086477
C25   C     C_R   0.499289 0.077236 0.499909 -0.055279
C26   C     C_R   0.499544 0.922527 0.499949 -0.068111
C27   C     C_R   0.500165 0.499756 0.260612 0.884464
C28   C     C_R   0.500033 0.500322 0.739523 0.873321
C29   C     C_R   0.370940 0.506558 0.128880 -0.166314
C30   C     C_R   0.629631 0.494260 0.871439 -0.119054
C31   C     C_R   0.371923 0.521399 0.869781 -0.173042
C32   C     C_R   0.629339 0.487774 0.131788 -0.159333
C33   C     C_R   0.308178 0.516552 0.063646 -0.109254
C34   C     C_R   0.692700 0.489284 0.937338 -0.052994
C35   C     C_R   0.308752 0.524944 0.934216 -0.102051
C36   C     C_R   0.692531 0.485555 0.067434 -0.133823
C37   C     C_R   0.435967 0.509343 0.934416 0.076274
C38   C     C_R   0.564824 0.494224 0.066288 0.078887
C39   C     C_R   0.435694 0.504834 0.064960 0.078607
C40   C     C_R   0.564916 0.496344 0.935429 0.056502
C41   C     C_R   0.500315 0.501892 0.871836 -0.181094
C42   C     C_R   0.500194 0.498779 0.128500 -0.182176
C43   C     C_R   0.743488 0.444970 0.598424 -0.015075
C44   C     C_R   0.246266 0.556863 0.474846 -0.008923
C45   C     C_R   0.261343 0.452051 0.616395 -0.026596
C46   C     C_R   0.752066 0.555516 0.470955 -0.026864
C47   C     C_R   0.812402 0.453959 0.636936 -0.173124
C48   C     C_R   0.175926 0.560984 0.508983 -0.122143
C49   C     C_R   0.190692 0.457821 0.646439 -0.156647
C50   C     C_R   0.821920 0.561126 0.508611 -0.125620
C51   C     C_R   0.851923 0.510738 0.591148 0.017730
C52   C     C_R   0.148273 0.511628 0.593395 0.006820
H1    H     H_    0.741436 0.481191 0.118725 0.143976
H2    H     H_    0.260171 0.533712 0.883460 0.147760
H3    H     H_    0.741790 0.488194 0.887340 0.158316
H4    H     H_    0.259114 0.518257 0.113766 0.145970
H5    H     H_    0.368302 0.499671 0.229278 0.110496
H6    H     H_    0.632058 0.497362 0.770476 0.125985
H7    H     H_    0.370149 0.528656 0.769394 0.122669
H8    H     H_    0.631570 0.484411 0.232851 0.114873
H9    H     H_    0.836697 0.414376 0.699101 0.176097
H10   H     H_    0.141435 0.600865 0.465404 0.183372
H11   H     H_    0.168242 0.420559 0.713058 0.181886
H12   H     H_    0.854214 0.602969 0.468943 0.180524
H13   H     H_    0.934087 0.625972 0.648450 0.152234
H14   H     H_    0.065717 0.395385 0.580565 0.154648
H15   H     H_    0.062422 0.626369 0.648910 0.153992
H16   H     H_    0.939206 0.394954 0.578527 0.146818
H17   H     H_    0.576136 0.695143 0.644512 0.135874
H18   H     H_    0.432549 0.305057 0.342219 0.137780
H19   H     H_    0.423884 0.696900 0.355420 0.133083
H20   H     H_    0.565843 0.302716 0.659840 0.145441
H21   H     H_    0.577427 0.829421 0.647239 0.166402
H22   H     H_    0.430298 0.170927 0.339648 0.157150
H23   H     H_    0.422043 0.831186 0.352686 0.169981
H24   H     H_    0.568096 0.168626 0.661172 0.161107
N1    N     N_R   0.500000 0.689440 0.500000 -0.103531
N2    N     N_R   0.500000 0.310560 0.500000 -0.106511
O1    O     O_R   0.398180 0.560840 0.499970 -0.620043
O2    O     O_R   0.601820 0.439160 0.500030 -0.631825
O3    O     O_R   0.601820 0.560840 0.500030 -0.617924
O4    O     O_R   0.398180 0.439160 0.499970 -0.622665
O5    O     O_R   0.499990 0.560810 0.316770 -0.620701
O6    O     O_R   0.500010 0.439190 0.683230 -0.624840
O7    O     O_R   0.500010 0.560810 0.683230 -0.612495
O8    O     O_R   0.499990 0.439190 0.316770 -0.613533
Zn1   Zn    Zn3+2 0.500000 0.581210 0.500000 0.960822
Zn2   Zn    Zn3+2 0.500000 0.418790 0.500000 0.952044
C53   C     C_2   0.708477 0.378089 0.640907 0.384324
H25   H     H_    0.675239 0.347934 0.577915 0.107646
O9    O     O_2   0.719388 0.353767 0.745739 -0.574941
C54   C     C_2   0.271605 0.608526 0.378518 0.399987
H26   H     H_    0.321651 0.600650 0.333603 0.072072
O10   O     O_2   0.236063 0.660999 0.346739 -0.553058
C55   C     C_2   0.303649 0.395271 0.682858 0.423720
H27   H     H_    0.359393 0.400604 0.696789 0.104950
O11   O     O_2   0.275945 0.341629 0.726030 -0.549668
C56   C     C_2   0.724107 0.607757 0.376206 0.426172
H28   H     H_    0.676082 0.597073 0.325569 0.081110
O12   O     O_2   0.755100 0.663404 0.352111 -0.538887
C57   C     C_2   0.553265 0.919450 0.286947 0.936399
O13   O     O_2   0.606881 0.883308 0.300737 -0.587987
O14   O     O_R   0.518273 0.920111 0.171566 -0.736586
H29   H     H_    0.542934 0.889249 0.106132 0.361138
C58   C     C_2   0.442085 0.079837 0.711285 0.913492
O15   O     O_2   0.461203 0.067998 0.818944 -0.538406
O16   O     O_R   0.390907 0.133051 0.687244 -0.773562
H30   H     H_    0.373823 0.157904 0.766445 0.366790
C59   C     C_2   0.445747 0.921453 0.712830 0.938430
O17   O     O_2   0.391838 0.887421 0.699369 -0.596434
O18   O     O_R   0.481177 0.920684 0.827781 -0.737493
H31   H     H_    0.456561 0.890733 0.893249 0.361362
C60   C     C_2   0.556273 0.077706 0.288415 0.914912
O19   O     O_2   0.536454 0.066817 0.180970 -0.537556
O20   O     O_R   0.608002 0.128807 0.312180 -0.789402
H32   H     H_    0.624900 0.153044 0.232942 0.356379

loop_
_geom_bond_atom_site_label_1
_geom_bond_atom_site_label_2
_ccdc_geom_bond_type
O5    Zn1   S    
C21   C26   A    
C57   O13   D    
C49   H11   S    
C28   O6    A    
C50   H12   S    
C14   C18   A    
C55   H27   S    
C6    C9    A    
O1    Zn1   S    
C24   C60   S    
C15   C19   A    
C58   O16   S    
C3    C43   A    
C43   C53   S    
C16   H22   S    
C32   C36   A    
C38   C42   A    
C48   C52   A    
C59   O18   S    
O8    Zn2   S    
C20   C25   S    
O20   H32   S    
C29   C33   A    
C28   C41   S    
C23   C26   A    
C31   H7    S    
C19   C26   S    
C36   H1    S    
C11   N1    A    
C33   C35   A    
C11   C15   A    
C12   C16   A    
C22   C25   A    
C12   N2    A    
O16   H30   S    
C32   C38   A    
C53   O9    D    
C18   C20   A    
C44   C54   S    
C21   C57   S    
C33   H4    S    
C46   C56   S    
C34   H3    S    
C57   O14   S    
C35   H2    S    
C9    C52   S    
C10   C51   S    
C39   C42   A    
C4    C45   A    
O7    Zn1   S    
C23   C59   S    
C13   N1    A    
C30   C34   A    
C24   C25   A    
C5    H13   S    
C5    C7    A    
C6    C8    A    
C4    C44   A    
C1    O4    A    
C31   C37   A    
C27   O8    A    
C48   H10   S    
C45   C49   A    
C16   C20   A    
C49   C52   A    
C29   C39   A    
C54   O10   D    
C50   C51   A    
C30   C40   A    
O3    Zn1   S    
C8    C10   A    
C40   C41   A    
C15   H21   S    
C29   H5    S    
C8    H16   S    
C56   O12   D    
C11   H17   S    
C1    O1    A    
C31   C35   A    
C32   H8    S    
C45   C55   S    
C28   O7    A    
C60   O19   D    
N2    Zn2   S    
C7    C9    A    
C12   H18   S    
C18   H24   S    
O18   H31   S    
C14   H20   S    
O6    Zn2   S    
C47   H9    S    
C47   C51   A    
C55   O11   D    
C22   C58   S    
C13   H19   S    
C58   O15   D    
C46   C50   A    
C3    C46   A    
C13   C17   A    
C1    C4    S    
C27   O5    A    
C2    C3    S    
C5    C10   A    
C37   C39   A    
C59   O17   D    
C38   C40   A    
C27   C42   S    
O4    Zn2   S    
C30   H6    S    
C54   H26   S    
C17   C19   A    
C34   C36   A    
C14   N2    A    
C37   C41   A    
C2    O2    A    
C7    H15   S    
C6    H14   S    
N1    Zn1   S    
O2    Zn2   S    
C56   H28   S    
C21   C24   A    
O14   H29   S    
C17   H23   S    
C22   C23   A    
C2    O3    A    
C53   H25   S    
C43   C47   A    
C44   C48   A    
C60   O20   S    
