data_mof_unit_416.cif
_audit_creation_date              2012-12-11T15:48:00-0500
_audit_creation_method            fapswitch 2.2
_symmetry_space_group_name_H-M    P1
_symmetry_Int_Tables_number       1
_space_group_crystal_system       triclinic
_cell_length_a                    6.923275
_cell_length_b                    17.634166
_cell_length_c                    19.431853
_cell_angle_alpha                 108.559356
_cell_angle_beta                  89.153721
_cell_angle_gamma                 90.781848
_cell_volume                      2248.63931514

loop_
_atom_site_label
_atom_site_type_symbol
_atom_type_description
_atom_site_fract_x
_atom_site_fract_y
_atom_site_fract_z
_atom_type_partial_charge
O1    O     O_R   0.494330 0.415710 0.413720 -0.543643
O2    O     O_R   0.819360 0.430070 0.560210 -0.537156
O3    O     O_R   0.994320 0.584290 0.586280 -0.538402
C1    C     C_R   0.649414 0.416924 0.583572 0.758776
O4    O     O_R   0.823740 0.406290 0.412670 -0.548001
O5    O     O_R   0.998730 0.560340 0.437690 -0.540903
C2    C     C_R   0.654941 0.383086 0.384664 0.671752
O6    O     O_R   0.489920 0.439660 0.562310 -0.520147
O7    O     O_3   0.662330 0.550570 0.508380 -0.372675
V1    V     V_3+5 0.935370 0.490620 0.498440 1.438197
O8    O     O_R   0.328720 0.569930 0.439790 -0.549496
C3    C     C_R   0.161397 0.587436 0.420115 0.707265
O9    O     O_R   0.324340 0.593710 0.587330 -0.533478
C4    C     C_R   0.154721 0.617163 0.614929 0.736906
V2    V     V_3+5 0.435940 0.509380 0.501560 1.439467
O10   O     O_3   0.159110 0.449430 0.491620 -0.364167
C5    C     C_R   0.295382 0.741741 0.702199 -0.161751
H1    H     H_    0.420680 0.735099 0.666793 0.140164
C6    C     C_R   0.286237 0.807674 0.765659 0.155847
C7    C     C_R   0.123692 0.817763 0.813276 -0.085329
C8    C     C_R   0.970657 0.761983 0.793022 -0.149107
H2    H     H_    0.843844 0.767720 0.827550 0.150280
C9    C     C_R   0.979542 0.697468 0.728504 -0.108129
H3    H     H_    0.859316 0.655590 0.714986 0.140210
C10   C     C_R   0.143164 0.686143 0.682844 -0.073604
C11   C     C_R   0.005909 0.630014 0.324043 -0.240526
C12   C     C_R   0.156292 0.640661 0.373833 -0.136538
C13   C     C_R   0.297253 0.702011 0.379215 0.246273
C14   C     C_R   0.295587 0.747031 0.329736 0.009413
C15   C     C_R   0.141412 0.733762 0.279315 -0.018684
C16   C     C_R   0.995675 0.676393 0.277821 0.133500
C17   C     C_R   0.440650 0.805090 0.327994 0.210817
C18   C     C_R   0.429889 0.846384 0.277486 -0.223903
C19   C     C_R   0.276820 0.834116 0.229203 0.053836
C20   C     C_R   0.130483 0.778543 0.230438 0.078624
C21   C     C_R   0.972686 0.767861 0.182694 0.116110
C22   C     C_R   0.827948 0.711808 0.183302 -0.179019
C23   C     C_R   0.840331 0.665971 0.229870 -0.149409
C24   C     C_R   0.268091 0.877271 0.179854 -0.192806
C25   C     C_R   0.111129 0.867597 0.132666 -0.083159
C26   C     C_R   0.962529 0.813245 0.134981 -0.218416
H4    H     H_    0.895825 0.584712 0.320928 0.129239
H5    H     H_    0.542506 0.889286 0.276280 0.157625
H6    H     H_    0.382261 0.919770 0.179188 0.124669
H7    H     H_    0.840872 0.805195 0.098762 0.127571
H8    H     H_    0.705514 0.703022 0.147398 0.127200
H9    H     H_    0.726848 0.622701 0.228884 0.117916
C27   C     C_R   0.497143 0.199243 0.881523 -0.229690
C28   C     C_R   0.626688 0.136063 0.870936 -0.099639
C29   C     C_R   0.760951 0.119796 0.813273 -0.171998
C30   C     C_R   0.765682 0.165821 0.765572 0.060631
C31   C     C_R   0.634339 0.229733 0.777067 -0.001532
C32   C     C_R   0.500627 0.246215 0.835387 0.111813
C33   C     C_R   0.894910 0.148389 0.705631 0.279480
C34   C     C_R   0.893466 0.195155 0.659056 -0.231328
C35   C     C_R   0.765315 0.259079 0.670803 0.062610
C36   C     C_R   0.633771 0.276352 0.729571 0.014243
C37   C     C_R   0.501570 0.340029 0.740975 0.078134
C38   C     C_R   0.369119 0.354568 0.799481 -0.145598
C39   C     C_R   0.368815 0.308321 0.845828 -0.197077
C40   C     C_R   0.766364 0.305379 0.624029 -0.206641
C41   C     C_R   0.637807 0.369198 0.634474 -0.117000
C42   C     C_R   0.505695 0.387498 0.694024 0.090001
H10   H     H_    0.392813 0.211730 0.925819 0.120960
H11   H     H_    0.857514 0.069752 0.804785 0.171653
H12   H     H_    0.993560 0.181311 0.613396 0.134430
H13   H     H_    0.867722 0.291404 0.578724 0.133310
H14   H     H_    0.262670 0.401139 0.810172 0.166958
H15   H     H_    0.263992 0.321035 0.889920 0.128239
C43   C     C_R   0.811840 0.276157 0.281330 -0.157613
H16   H     H_    0.952684 0.295247 0.304349 0.115953
C44   C     C_R   0.800531 0.212380 0.216372 -0.148796
H17   H     H_    0.933293 0.184185 0.191474 0.117842
C45   C     C_R   0.620760 0.185357 0.184146 -0.042536
C46   C     C_R   0.452605 0.223880 0.218758 -0.158075
H18   H     H_    0.311769 0.204781 0.195735 0.115303
C47   C     C_R   0.463915 0.287663 0.283720 -0.149943
H19   H     H_    0.331164 0.315862 0.308626 0.117604
C48   C     C_R   0.643696 0.314691 0.315938 -0.043503
O11   O     O_R   0.774940 0.060470 0.937800 -0.538510
O12   O     O_R   0.440880 0.093730 0.087350 -0.548916
O13   O     O_R   0.266130 0.939630 0.062280 -0.541596
C49   C     C_R   0.609614 0.116975 0.115408 0.669933
O14   O     O_R   0.445480 0.069960 0.939820 -0.535506
O15   O     O_R   0.270770 0.915690 0.913690 -0.520605
C50   C     C_R   0.615597 0.085562 0.918790 0.755517
O16   O     O_R   0.770300 0.084410 0.086380 -0.544685
O17   O     O_3   0.602600 0.949510 0.991670 -0.357733
V3    V     V_3+5 0.329470 0.009370 0.001550 1.438706
O18   O     O_R   0.940760 0.906160 0.912560 -0.534918
C51   C     C_R   0.110587 0.884777 0.883285 0.733984
O19   O     O_R   0.936150 0.929930 0.060100 -0.544830
C52   C     C_R   0.103637 0.915147 0.081993 0.703767
V4    V     V_3+5 0.828930 0.990450 0.998310 1.442963
O20   O     O_3   0.105670 0.050490 0.008320 -0.376175
N1    N     N_2   0.022070 0.082144 0.690131 -0.521734
H20   H     H_    0.041364 0.053084 0.635330 0.271453
C53   C     C_3   0.204092 0.100196 0.727587 -0.510064
H21   H     H_    0.287971 0.143909 0.708414 0.199039
H22   H     H_    0.289406 0.044608 0.716281 0.223189
H23   H     H_    0.179644 0.124984 0.787131 0.205556
I1    I     I_    0.328166 0.491783 0.718101 -0.444912
I2    I     I_    0.519883 0.890556 0.778930 -0.446771
N2    N     N_2   0.432286 0.721834 0.436785 -0.500735
H24   H     H_    0.529684 0.678027 0.436238 0.279258
C54   C     C_3   0.355259 0.766129 0.507656 -0.422301
H25   H     H_    0.475223 0.784591 0.546977 0.201778
H26   H     H_    0.251493 0.728821 0.527183 0.150740
H27   H     H_    0.281591 0.820846 0.505342 0.218243
I3    I     I_    0.690724 0.838331 0.394645 -0.425541

loop_
_geom_bond_atom_site_label_1
_geom_bond_atom_site_label_2
_ccdc_geom_bond_type
C49   O16   A    
C34   C35   A    
C6    C7    A    
C25   C52   S    
C1    O6    A    
N2    C54   S    
O15   C51   A    
C47   H19   S    
C13   C14   A    
C11   C12   A    
C14   C15   A    
O13   V3    S    
C17   I3    S    
C15   C20   A    
C21   C22   A    
O14   C50   A    
C14   C17   A    
O5    C3    A    
C15   C16   A    
C27   H10   S    
C54   H25   S    
V2    O10   S    
O16   V4    S    
C1    C41   S    
C35   C36   A    
C19   C20   A    
C13   N2    S    
O11   C50   A    
C6    I2    S    
C20   C21   A    
N1    C53   S    
C9    H3    S    
O18   V4    S    
C43   H16   S    
O1    V2    S    
O7    V1    S    
C45   C49   S    
C33   N1    S    
O12   V3    S    
C38   C39   A    
O13   C52   A    
O9    C4    A    
C21   C26   A    
V4    O20   S    
O8    V2    S    
C42   I1    S    
N2    H24   S    
O12   C49   A    
C32   C39   A    
C29   C30   A    
C36   C37   A    
C47   C48   A    
C27   C32   A    
C7    C51   S    
O17   V4    S    
C45   C46   A    
C3    C12   S    
C30   C31   A    
C18   H5    S    
C44   C45   A    
C24   C25   A    
O4    C2    A    
O15   V3    S    
C37   C38   A    
C19   C24   A    
V3    O20   S    
O2    C1    A    
C46   H18   S    
C22   C23   A    
C38   H14   S    
C40   H13   S    
N1    H20   S    
C41   C42   A    
O19   V4    S    
C5    H1    S    
O17   V3    S    
C46   C47   A    
C23   H9    S    
O3    C4    A    
C27   C28   A    
C53   H21   S    
O6    V2    S    
C53   H22   S    
C8    C9    A    
O14   V3    S    
O11   V4    S    
O2    V1    S    
C34   H12   S    
C31   C32   A    
C11   H4    S    
C2    C48   S    
C37   C42   A    
C33   C34   A    
C25   C26   A    
C43   C48   A    
O1    C2    A    
C28   C50   S    
C44   H17   S    
O5    V1    S    
O8    C3    A    
C24   H6    S    
C53   H23   S    
C16   C23   A    
C30   C33   A    
C5    C10   A    
C17   C18   A    
O9    V2    S    
O7    V2    S    
O4    V1    S    
O3    V1    S    
V1    O10   S    
O18   C51   A    
C54   H26   S    
C39   H15   S    
O19   C52   A    
C5    C6    A    
C18   C19   A    
C9    C10   A    
C4    C10   S    
C40   C41   A    
C29   H11   S    
C31   C36   A    
C11   C16   A    
C7    C8    A    
C28   C29   A    
C12   C13   A    
C26   H7    S    
C35   C40   A    
C43   C44   A    
C22   H8    S    
C8    H2    S    
C54   H27   S    
