data_mof_unit_4907.cif
_audit_creation_date              2012-12-10T18:45:07-0500
_audit_creation_method            fapswitch 2.2
_symmetry_space_group_name_H-M    P1
_symmetry_Int_Tables_number       1
_space_group_crystal_system       triclinic
_cell_length_a                    10.697225
_cell_length_b                    9.821474
_cell_length_c                    10.643323
_cell_angle_alpha                 92.368188
_cell_angle_beta                  89.1944
_cell_angle_gamma                 89.911217
_cell_volume                      1117.14629238

loop_
_atom_site_label
_atom_site_type_symbol
_atom_type_description
_atom_site_fract_x
_atom_site_fract_y
_atom_site_fract_z
_atom_type_partial_charge
C1    C     C_R   0.259861 0.500187 0.501721 0.957897
C2    C     C_R   0.739848 0.499891 0.504789 0.957516
C3    C     C_R   0.934817 0.611768 0.563171 0.558255
C4    C     C_R   0.063105 0.612662 0.560828 0.556227
C5    C     C_R   0.585355 0.074901 0.568422 -0.027311
C6    C     C_R   0.415016 0.069086 0.431058 -0.016470
C7    C     C_R   0.585131 0.930916 0.568730 -0.065662
C8    C     C_R   0.415077 0.925055 0.430988 -0.019915
C9    C     C_R   0.508369 0.497191 0.259173 0.951041
C10   C     C_R   0.484630 0.504040 0.739971 0.966307
C11   C     C_R   0.648578 0.699166 0.109477 0.022809
C12   C     C_R   0.500697 0.768286 0.906684 -0.006895
C13   C     C_R   0.659354 0.829660 0.060485 -0.046739
C14   C     C_R   0.579781 0.866855 0.963626 -0.068554
C15   C     C_R   0.504985 0.631398 0.945284 -0.035166
C16   C     C_R   0.557876 0.606700 0.060921 -0.048410
C17   C     C_R   0.514128 0.491814 0.124231 -0.341495
C18   C     C_R   0.462398 0.515422 0.874161 -0.346109
C19   C     C_R   0.447418 0.388077 0.060350 0.537733
C20   C     C_R   0.426581 0.397472 0.934005 0.556776
C21   C     C_R   0.064513 0.386445 0.456538 -0.216372
C22   C     C_R   0.936475 0.385711 0.458556 -0.232170
C23   C     C_R   0.872130 0.498980 0.510191 -0.243801
C24   C     C_R   0.127392 0.500348 0.506247 -0.258594
H1    H     H_    0.114162 0.299521 0.414069 0.204606
H2    H     H_    0.887994 0.298508 0.416956 0.205347
H3    H     H_    0.653640 0.131902 0.622953 0.152205
H4    H     H_    0.347180 0.121436 0.375936 0.162635
H5    H     H_    0.652713 0.878627 0.624154 0.188847
H6    H     H_    0.347276 0.868018 0.375823 0.151735
N1    N     N_R   0.500000 0.857200 0.500000 -0.099489
N2    N     N_R   0.500000 0.142810 0.500000 -0.091075
O1    O     O_R   0.316770 0.614620 0.499990 -0.579840
O2    O     O_R   0.683230 0.614620 0.500010 -0.574156
O3    O     O_R   0.316800 0.385290 0.500000 -0.622081
O4    O     O_R   0.683200 0.385290 0.500000 -0.649677
O5    O     O_R   0.500010 0.614690 0.316770 -0.636451
O6    O     O_R   0.499990 0.614690 0.683230 -0.635983
O7    O     O_R   0.500040 0.385360 0.316770 -0.565361
O8    O     O_R   0.499960 0.385360 0.683230 -0.566828
Zn1   Zn    Zn3+2 0.500000 0.653120 0.500000 1.004964
Zn2   Zn    Zn3+2 0.500000 0.346880 0.500000 1.017824
F1    F     F_    0.401968 0.278245 0.119624 -0.626068
F2    F     F_    0.369506 0.292711 0.870280 -0.605112
C25   C     C_1   0.744881 0.652507 0.191502 0.195307
N3    N     N_1   0.824376 0.615908 0.254375 -0.199603
C26   C     C_1   0.400863 0.813474 0.827423 0.254810
N4    N     N_1   0.321222 0.850390 0.764645 -0.061044
C27   C     C_1   0.748884 0.926720 0.112614 0.211172
N5    N     N_1   0.820139 0.004155 0.154308 -0.167263
C28   C     C_1   0.583260 0.004484 0.919469 0.231091
N6    N     N_1   0.587057 0.114301 0.884358 -0.139593
F3    F     F_    0.872350 0.719685 0.618030 -0.636039
F4    F     F_    0.123873 0.721643 0.613320 -0.615782

loop_
_geom_bond_atom_site_label_1
_geom_bond_atom_site_label_2
_ccdc_geom_bond_type
C15   C18   A    
C6    N2    A    
C7    H5    S    
C13   C14   A    
C11   C13   A    
C11   C16   A    
C3    C23   A    
C19   C20   A    
C12   C15   A    
C10   O6    A    
C5    N2    A    
O1    Zn1   S    
C2    O2    A    
C9    O5    A    
C8    H6    S    
C21   C22   A    
C3    F3    S    
N2    Zn2   S    
O2    Zn1   S    
C10   C18   S    
C12   C26   S    
C13   C27   S    
C9    C17   S    
C20   F2    S    
C12   C14   A    
C27   N5    T    
O7    Zn2   S    
C18   C20   A    
C14   C28   S    
O5    Zn1   S    
C4    C24   A    
C11   C25   S    
C7    N1    A    
C1    O1    A    
C15   C16   A    
C26   N4    T    
C25   N3    T    
C9    O7    A    
C1    O3    A    
C1    C24   S    
C10   O8    A    
O6    Zn1   S    
C22   H2    S    
C21   C24   A    
C2    O4    A    
C2    C23   S    
C5    C7    A    
O3    Zn2   S    
C21   H1    S    
C22   C23   A    
C16   C17   A    
C6    C8    A    
N1    Zn1   S    
C17   C19   A    
C5    H3    S    
C8    N1    A    
O4    Zn2   S    
C4    F4    S    
C6    H4    S    
C3    C4    A    
C28   N6    T    
C19   F1    S    
O8    Zn2   S    
