data_mof_unit_1294.cif
_audit_creation_date              2012-10-26T19:02:34-0400
_audit_creation_method            fapswitch 2.2
_symmetry_space_group_name_H-M    P1
_symmetry_Int_Tables_number       1
_space_group_crystal_system       triclinic
_cell_length_a                    17.263118
_cell_length_b                    8.693168
_cell_length_c                    7.406699
_cell_angle_alpha                 103.131707
_cell_angle_beta                  88.7955
_cell_angle_gamma                 92.913783
_cell_volume                      1081.01523796

loop_
_atom_site_label
_atom_site_type_symbol
_atom_type_description
_atom_site_fract_x
_atom_site_fract_y
_atom_site_fract_z
_atom_type_partial_charge
C1    C     C_R   0.497664 0.199616 0.453484 0.551344
C2    C     C_R   0.777901 0.569397 0.604925 -0.154120
C3    C     C_R   0.142451 0.418761 0.403344 -0.138418
C4    C     C_R   0.857634 0.578870 0.597081 -0.138294
C5    C     C_R   0.103099 0.477424 0.569145 0.044693
C6    C     C_R   0.896960 0.520494 0.431163 0.044773
C7    C     C_R   0.144417 0.545121 0.733558 0.043236
C8    C     C_R   0.855611 0.453867 0.266487 0.043218
C9    C     C_R   0.226967 0.556481 0.725866 -0.000476
C10   C     C_R   0.773041 0.443546 0.273924 -0.000500
C11   C     C_2   0.018264 0.470208 0.563402 -0.142151
C12   C     C_R   0.502335 0.800384 0.546516 0.551304
C13   C     C_2   0.981797 0.527415 0.436857 -0.142078
C14   C     C_3   0.726445 0.368274 0.101789 -0.369503
C15   C     C_3   0.273524 0.633469 0.897466 -0.369669
C16   C     C_3   0.101455 0.609103 0.913978 -0.404869
C17   C     C_3   0.898554 0.389847 0.086042 -0.404959
C18   C     C_2   0.496517 0.031732 0.427258 -0.159049
C19   C     C_2   0.503480 0.968267 0.572743 -0.159072
C20   C     C_R   0.350688 0.502944 0.529471 0.544683
C21   C     C_R   0.649319 0.497029 0.470519 0.544727
C22   C     C_R   0.265553 0.497466 0.553253 0.010138
C23   C     C_R   0.734472 0.502053 0.446724 0.010053
C24   C     C_R   0.222177 0.428945 0.395356 -0.154152
Cu1   Cu    Cu3+1 0.508700 0.517250 0.683000 0.936133
Cu2   Cu    Cu3+1 0.491300 0.482750 0.317000 0.936106
H1    H     H_    0.250007 0.381517 0.263330 0.130445
H2    H     H_    0.560736 0.619674 0.041295 0.236402
H3    H     H_    0.693236 0.459508 0.058277 0.154903
H4    H     H_    0.761507 0.312956 0.980034 0.117256
H5    H     H_    0.686348 0.272764 0.131164 0.149929
H6    H     H_    0.306845 0.543092 0.942403 0.155345
H7    H     H_    0.313533 0.728580 0.866754 0.149549
H8    H     H_    0.238403 0.689789 0.018645 0.117216
H9    H     H_    0.037605 0.593689 0.904133 0.116594
H10   H     H_    0.119260 0.547860 0.021614 0.120846
H11   H     H_    0.114669 0.738220 0.960589 0.131715
H12   H     H_    0.750113 0.616484 0.737103 0.130460
H13   H     H_    0.962435 0.403617 0.096332 0.116715
H14   H     H_    0.884655 0.261057 0.038393 0.131784
H15   H     H_    0.881389 0.452303 0.978988 0.120470
H16   H     H_    0.014713 0.579218 0.336905 0.122359
H17   H     H_    0.985369 0.418389 0.663365 0.122223
H18   H     H_    0.889174 0.632237 0.722604 0.110793
H19   H     H_    0.110930 0.364686 0.278017 0.110940
H20   H     H_    0.489929 0.960008 0.287085 0.131584
H21   H     H_    0.510067 0.039992 0.712916 0.131579
H22   H     H_    0.439258 0.380338 0.958708 0.236478
N1    N     N_2   0.478180 0.456750 0.041980 -0.263269
N2    N     N_2   0.521820 0.543250 0.958020 -0.263276
O1    O     O_R   0.505650 0.286040 0.618880 -0.502522
O2    O     O_R   0.494350 0.713960 0.381120 -0.502537
O3    O     O_R   0.490960 0.256910 0.309800 -0.499335
O4    O     O_R   0.509040 0.743090 0.690200 -0.499329
O5    O     O_R   0.394600 0.516230 0.672450 -0.512439
O6    O     O_R   0.605400 0.483770 0.327550 -0.512489
O7    O     O_R   0.379910 0.487100 0.363380 -0.506742
O8    O     O_R   0.620090 0.512900 0.636620 -0.506744

loop_
_geom_bond_atom_site_label_1
_geom_bond_atom_site_label_2
_ccdc_geom_bond_type
C21   O6    A    
C2    C4    A    
Cu1   O1    S    
C11   H17   S    
Cu2   O2    S    
C10   C23   A    
C11   C13   D    
C2    H12   S    
C15   H8    S    
C13   H16   S    
C8    C17   S    
C24   H1    S    
C14   H5    S    
N1    N2    D    
C9    C15   S    
C3    H19   S    
C21   O8    A    
Cu1   Cu2   S    
C16   H10   S    
C6    C13   S    
C1    O1    A    
C1    C18   S    
C14   H4    S    
C20   O5    A    
C18   H20   S    
C12   C19   S    
C4    C6    A    
H22   N1    S    
C12   O2    A    
C20   C22   S    
C5    C11   S    
C22   C24   A    
C21   C23   S    
C16   H9    S    
C17   H13   S    
Cu2   O7    S    
C19   H21   S    
C9    C22   A    
C17   H15   S    
Cu1   O8    S    
C14   H3    S    
Cu2   O3    S    
C7    C9    A    
C15   H6    S    
Cu1   O4    S    
C8    C10   A    
C18   C19   D    
C10   C14   S    
Cu2   N1    S    
C2    C23   A    
C5    C7    A    
C1    O3    A    
Cu1   N2    S    
C7    C16   S    
C6    C8    A    
C4    H18   S    
C20   O7    A    
H2    N2    S    
C15   H7    S    
C12   O4    A    
Cu1   O5    S    
C16   H11   S    
C3    C24   A    
C3    C5    A    
C17   H14   S    
Cu2   O6    S    
