data_mof_unit_2457.cif
_audit_creation_date              2012-12-10T20:33:34-0500
_audit_creation_method            fapswitch 2.2
_symmetry_space_group_name_H-M    P1
_symmetry_Int_Tables_number       1
_space_group_crystal_system       triclinic
_cell_length_a                    14.11453
_cell_length_b                    10.75902
_cell_length_c                    9.949963
_cell_angle_alpha                 90.177035
_cell_angle_beta                  92.102436
_cell_angle_gamma                 91.142191
_cell_volume                      1509.6583533

loop_
_atom_site_label
_atom_site_type_symbol
_atom_type_description
_atom_site_fract_x
_atom_site_fract_y
_atom_site_fract_z
_atom_type_partial_charge
C1    C     C_R   0.498007 0.260568 0.499406 0.883767
C2    C     C_3   0.497839 0.073814 0.746946 -0.502539
C3    C     C_R   0.419668 0.466594 0.066644 0.094572
C4    C     C_R   0.329343 0.499804 0.497940 0.876993
C5    C     C_R   0.576181 0.540723 0.078405 -0.148836
C6    C     C_R   0.578297 0.539016 0.936009 0.107873
C7    C     C_R   0.420743 0.464119 0.924183 0.164812
C8    C     C_3   0.375929 0.337018 0.918494 -0.082080
C9    C     C_3   0.368747 0.343098 0.071770 -0.150108
C10   C     C_R   0.495987 0.739531 0.499775 0.881507
C11   C     C_R   0.670644 0.499909 0.501843 0.893326
C12   C     C_1   0.772177 0.498741 0.504308 -0.215603
C13   C     C_1   0.227759 0.499095 0.494144 -0.233069
C14   C     C_1   0.142413 0.498370 0.494061 -0.026863
C15   C     C_1   0.042537 0.497658 0.496273 -0.002532
C16   C     C_1   0.957283 0.497462 0.499068 -0.000390
C17   C     C_1   0.857459 0.497862 0.502394 -0.027475
C18   C     C_3   0.268099 0.351287 0.127216 -0.331388
C19   C     C_3   0.226631 0.221706 0.156723 -0.375776
C20   C     C_3   0.124011 0.228996 0.198786 -0.871679
C21   C     C_3   0.390129 0.872216 0.277877 -0.887813
C22   C     C_3   0.583087 0.891596 0.850507 -0.364008
C23   C     C_R   0.531851 0.065258 0.607737 0.094187
C24   C     C_3   0.550442 0.896531 0.995707 -0.355938
C25   C     C_3   0.633629 0.889611 0.097632 -0.869642
C26   C     C_3   0.674477 0.570276 0.881949 -0.371262
C27   C     C_3   0.736383 0.454352 0.878286 -0.316763
C28   C     C_3   0.840251 0.489726 0.858785 -0.887130
C29   C     C_3   0.284546 0.329697 0.829978 -0.824743
C30   C     C_R   0.496740 0.128785 0.496917 -0.136819
C31   C     C_R   0.458512 0.064857 0.384804 -0.229050
C32   C     C_R   0.450652 0.936121 0.386998 0.188031
C33   C     C_R   0.491635 0.872003 0.498605 -0.147781
C34   C     C_R   0.533424 0.937535 0.607885 0.025326
C35   C     C_3   0.504106 0.934015 0.751992 -0.082549
H1    H     H_    0.429113 0.115510 0.299757 0.149857
H2    H     H_    0.096388 0.134190 0.220932 0.250917
H3    H     H_    0.229520 0.160524 0.067048 0.226108
H4    H     H_    0.269178 0.178504 0.239619 0.215843
H5    H     H_    0.271213 0.404007 0.222385 0.224664
H6    H     H_    0.219632 0.403375 0.058721 0.210718
H7    H     H_    0.334576 0.813489 0.324025 0.238278
H8    H     H_    0.353795 0.940029 0.210700 0.215173
H9    H     H_    0.433720 0.813665 0.214184 0.262690
H10   H     H_    0.673027 0.802775 0.084352 0.248047
H11   H     H_    0.682647 0.970569 0.085852 0.256178
H12   H     H_    0.427821 0.267099 0.889522 0.150929
H13   H     H_    0.607015 0.891176 0.201176 0.266665
H14   H     H_    0.512427 0.984147 0.014224 0.230127
H15   H     H_    0.500695 0.817034 0.010980 0.217008
H16   H     H_    0.600063 0.795167 0.825517 0.201009
H17   H     H_    0.648543 0.949589 0.839361 0.208504
H18   H     H_    0.847087 0.553783 0.772490 0.271988
H19   H     H_    0.870717 0.536662 0.950593 0.255368
H20   H     H_    0.881280 0.404810 0.840007 0.252274
H21   H     H_    0.732111 0.402868 0.974719 0.207675
H22   H     H_    0.710806 0.390112 0.796836 0.241626
H23   H     H_    0.413242 0.273078 0.124790 0.152130
H24   H     H_    0.670707 0.620976 0.786475 0.219977
H25   H     H_    0.711392 0.638964 0.950157 0.163975
H26   H     H_    0.302895 0.311830 0.724400 0.248590
H27   H     H_    0.238883 0.250568 0.860347 0.230174
H28   H     H_    0.244201 0.417197 0.833454 0.241460
H29   H     H_    0.434548 0.885504 0.764503 0.169256
H30   H     H_    0.423198 0.104668 0.748342 0.187450
H31   H     H_    0.548929 0.126101 0.814783 0.198697
H32   H     H_    0.638236 0.570036 0.138280 0.160777
H33   H     H_    0.119577 0.287239 0.290599 0.268104
H34   H     H_    0.079129 0.269291 0.116536 0.260696
N1    N     N_R   0.499420 0.499140 0.142800 -0.118815
N2    N     N_R   0.499420 0.499180 0.857150 -0.124570
O1    O     O_R   0.500010 0.316790 0.614690 -0.613831
O2    O     O_R   0.500000 0.316760 0.385350 -0.618520
O3    O     O_R   0.373720 0.500020 0.614700 -0.589389
O4    O     O_R   0.373710 0.499980 0.385350 -0.610398
O5    O     O_R   0.500000 0.683240 0.614650 -0.626643
O6    O     O_R   0.499990 0.683210 0.385310 -0.601749
O7    O     O_R   0.626290 0.500020 0.614650 -0.612282
O8    O     O_R   0.626280 0.499980 0.385300 -0.597907
Zn1   Zn    Zn3+2 0.500010 0.500020 0.653130 0.918616
Zn2   Zn    Zn3+2 0.499990 0.499980 0.346870 0.924003

loop_
_geom_bond_atom_site_label_1
_geom_bond_atom_site_label_2
_ccdc_geom_bond_type
C2    C35   S    
C29   H28   S    
C19   C20   S    
C5    H32   S    
C2    H30   S    
C7    C8    S    
C22   C35   S    
C26   C27   S    
C5    C6    A    
C8    C29   S    
C19   H4    S    
C11   O7    A    
C34   C35   S    
C3    C7    A    
C7    N2    A    
C30   C31   A    
O7    Zn1   S    
C16   C17   S    
C15   C16   T    
C18   C19   S    
C4    C13   S    
N1    Zn2   S    
C18   H5    S    
C4    O4    A    
C21   H8    S    
C10   O5    A    
C10   O6    A    
C8    C9    S    
C12   C17   T    
C35   H29   S    
C26   H24   S    
C4    O3    A    
O3    Zn1   S    
C13   C14   T    
O2    Zn2   S    
N2    Zn1   S    
C28   H20   S    
C24   H15   S    
C6    N2    A    
C21   C32   S    
C29   H26   S    
C1    O1    A    
C23   C30   A    
C3    N1    A    
C24   C25   S    
C27   H22   S    
C18   H6    S    
O8    Zn2   S    
C28   H19   S    
C27   H21   S    
O4    Zn2   S    
C5    N1    A    
C3    C9    S    
C19   H3    S    
C21   H9    S    
C31   C32   A    
O6    Zn2   S    
C11   C12   S    
C23   C34   A    
C33   C34   A    
C25   H13   S    
C11   O8    A    
C22   C24   S    
C20   H34   S    
C25   H10   S    
C2    C23   S    
C22   H17   S    
C24   H14   S    
C29   H27   S    
C9    H23   S    
C31   H1    S    
C20   H33   S    
O5    Zn1   S    
C2    H31   S    
C28   H18   S    
C1    O2    A    
C32   C33   A    
C8    H12   S    
O1    Zn1   S    
C20   H2    S    
C6    C26   S    
C1    C30   S    
C10   C33   S    
C21   H7    S    
C9    C18   S    
C27   C28   S    
C14   C15   S    
C26   H25   S    
C25   H11   S    
C22   H16   S    
