data_mof_unit_2208.cif
_audit_creation_date              2012-12-11T16:04:50-0500
_audit_creation_method            fapswitch 2.2
_symmetry_space_group_name_H-M    P1
_symmetry_Int_Tables_number       1
_space_group_crystal_system       triclinic
_cell_length_a                    10.70557
_cell_length_b                    10.654819
_cell_length_c                    16.938618
_cell_angle_alpha                 98.677246
_cell_angle_beta                  98.669436
_cell_angle_gamma                 61.412553
_cell_volume                      1670.27117533

loop_
_atom_site_label
_atom_site_type_symbol
_atom_type_description
_atom_site_fract_x
_atom_site_fract_y
_atom_site_fract_z
_atom_type_partial_charge
C1    C     C_R   0.355219 0.774169 0.398375 0.535150
C2    C     C_3   0.414148 0.684495 0.252357 -0.118656
C3    C     C_3   0.349434 0.807812 0.318102 0.039054
C4    C     C_R   0.371941 0.347591 0.358410 0.540414
C5    C     C_3   0.410651 0.892793 0.287438 -0.144716
C6    C     C_3   0.269902 0.964337 0.234096 -0.081126
C7    C     C_3   0.209812 0.877981 0.266110 -0.073002
C8    C     C_3   0.272762 0.756162 0.199285 -0.096654
C9    C     C_3   0.332608 0.841985 0.167609 0.060708
C10   C     C_3   0.458904 0.260670 0.774605 0.010003
C11   C     C_3   0.399223 0.400843 0.734601 -0.102743
C12   C     C_3   0.749912 0.306975 0.246906 -0.137720
C13   C     C_3   0.336955 0.333415 0.662790 0.056900
C14   C     C_3   0.397336 0.195005 0.703193 0.007584
C15   C     C_3   0.255905 0.255322 0.741577 -0.106314
C16   C     C_R   0.775108 0.377813 0.401253 0.548389
C17   C     C_3   0.195127 0.396274 0.700534 -0.138412
C18   C     C_3   0.257167 0.462438 0.773803 -0.139147
C19   C     C_3   0.319084 0.321914 0.813320 0.056064
C20   C     C_1   0.818530 0.341317 0.709354 -0.048938
C21   C     C_1   0.845505 0.314516 0.777834 -0.056272
C22   C     C_1   0.338536 0.810752 0.709958 -0.055107
C23   C     C_3   0.828260 0.344210 0.323351 0.023250
C24   C     C_1   0.313476 0.838472 0.778675 -0.048418
C25   C     C_R   0.956413 0.285385 0.102406 0.566596
C26   C     C_R   0.319692 0.300355 0.119878 0.532159
C27   C     C_R   0.297301 0.886397 0.086888 0.536870
C28   C     C_R   0.357059 0.770140 0.627414 0.538187
C29   C     C_R   0.886114 0.299085 0.860645 0.545629
C30   C     C_R   0.308380 0.294560 0.892233 0.544786
C31   C     C_R   0.279977 0.884776 0.859085 0.542611
C32   C     C_R   0.366815 0.345206 0.584802 0.540616
C33   C     C_R   0.774285 0.379373 0.629497 0.544461
C34   C     C_3   0.974565 0.228037 0.299361 -0.134465
C35   C     C_1   0.346609 0.338055 0.274586 -0.073731
C36   C     C_1   0.334012 0.328294 0.203381 -0.075703
C37   C     C_3   0.897344 0.192252 0.221682 0.279838
C38   C     C_3   0.609652 0.185925 0.815340 -0.369057
C39   C     C_3   0.474559 0.042929 0.663795 -0.368291
C40   C     C_3   0.828652 0.016109 0.169087 0.021406
C41   C     C_3   0.816624 0.958649 0.243626 -0.286595
C42   C     C_3   0.693881 0.922031 0.230385 -0.460132
C43   C     C_3   0.985774 0.341539 0.257467 -0.174592
C44   C     C_3   0.838571 0.457980 0.282368 -0.112447
C45   C     C_3   0.763228 0.418675 0.205054 -0.152131
C46   C     C_3   0.910184 0.303073 0.181032 0.072904
C47   C     C_3   0.473876 0.771331 0.219559 -0.139103
Cr1   Cr    Cr6+3 0.608340 0.611040 0.520430 1.011232
Cr2   Cr    Cr6+3 0.287650 0.601120 0.489350 1.019117
Cr3   Cr    Cr6+3 0.604040 0.287870 0.490280 1.006384
Cr4   Cr    Cr6+3 0.054020 0.052700 0.970850 1.028673
Cr5   Cr    Cr6+3 0.059230 0.375120 0.993390 1.011952
Cr6   Cr    Cr6+3 0.374950 0.061200 0.992340 0.998329
H1    H     H_    0.651462 0.296661 0.246734 0.104337
H2    H     H_    0.081123 0.357322 0.259743 0.114404
H3    H     H_    0.813355 0.568777 0.308274 0.138030
H4    H     H_    0.680252 0.490187 0.162005 0.121977
H5    H     H_    0.472869 0.569139 0.262927 0.114612
H6    H     H_    0.580431 0.728017 0.197921 0.108891
H7    H     H_    0.463053 0.950786 0.326494 0.122677
H8    H     H_    0.687743 0.159789 0.771509 0.137789
H9    H     H_    0.624057 0.257483 0.866587 0.136702
H10   H     H_    0.628771 0.084634 0.837207 0.156111
H11   H     H_    0.499911 0.965388 0.708082 0.141406
H12   H     H_    0.215686 0.078981 0.222765 0.113156
H13   H     H_    0.405447 0.026392 0.611982 0.134644
H14   H     H_    0.575743 0.024692 0.642866 0.153836
H15   H     H_    0.855633 0.928914 0.119448 0.154112
H16   H     H_    0.725314 0.105672 0.147661 0.142062
H17   H     H_    0.917359 0.859790 0.256949 0.161097
H18   H     H_    0.799647 0.039192 0.296297 0.177338
H19   H     H_    0.590132 0.020939 0.224139 0.181732
H20   H     H_    0.696253 0.869299 0.282691 0.140860
H21   H     H_    0.705179 0.847207 0.175472 0.149177
H22   H     H_    0.106772 0.917413 0.291452 0.151860
H23   H     H_    0.217437 0.699330 0.161901 0.127525
H24   H     H_    0.458978 0.460416 0.730186 0.114710
H25   H     H_    0.196982 0.195010 0.746172 0.113672
H26   H     H_    0.087345 0.449980 0.668123 0.133514
H27   H     H_    0.201434 0.571794 0.804688 0.132260
H28   H     H_    0.056679 0.155074 0.342259 0.096311
O1    O     O_R   0.751220 0.499230 0.435170 -0.519677
O2    O     O_R   0.412990 0.180750 0.091610 -0.526101
O3    O     O_R   0.366620 0.943130 0.065760 -0.510823
O4    O     O_R   0.477220 0.727600 0.436870 -0.501677
O5    O     O_R   0.160510 0.906330 0.879210 -0.515159
O6    O     O_R   0.930190 0.179050 0.889450 -0.502017
O7    O     O_R   0.909140 0.398170 0.896710 -0.503582
O8    O     O_R   0.186190 0.363460 0.918830 -0.501223
O9    O     O_R   0.401670 0.173200 0.913310 -0.520408
O10   O     O_R   0.356120 0.936130 0.900470 -0.496963
O11   O     O_3   0.162740 0.163010 0.985530 -0.275404
O12   O     O_R   0.297880 0.469080 0.560050 -0.500398
O13   O     O_R   0.258650 0.745120 0.411470 -0.525720
O14   O     O_R   0.297070 0.467240 0.395960 -0.496256
O15   O     O_R   0.488830 0.252610 0.387790 -0.524689
O16   O     O_R   0.724400 0.302390 0.420980 -0.511255
O17   O     O_R   0.752100 0.501210 0.612190 -0.511242
O18   O     O_R   0.478040 0.729440 0.600970 -0.505552
O19   O     O_R   0.259530 0.747110 0.588490 -0.506518
O20   O     O_3   0.940916 0.052501 0.182867 -0.565438
O21   O     O_R   0.489720 0.254590 0.564810 -0.521847
O22   O     O_R   0.725220 0.304230 0.585080 -0.498164
O23   O     O_3   0.500010 0.500010 0.500020 -0.254577
O24   O     O_R   0.171830 0.913880 0.057510 -0.494834
O25   O     O_R   0.940690 0.186050 0.054730 -0.468080
O26   O     O_R   0.920470 0.405720 0.075010 -0.528900
O27   O     O_R   0.196690 0.370460 0.084120 -0.514090

loop_
_geom_bond_atom_site_label_1
_geom_bond_atom_site_label_2
_ccdc_geom_bond_type
C11   C18   S    
Cr3   O23   S    
C26   O2    A    
C34   C37   S    
C41   C42   S    
C13   C32   S    
C35   C36   T    
C8    H23   S    
C30   O9    A    
Cr2   O23   S    
C7    C8    S    
C45   C46   S    
C15   C19   S    
C39   H11   S    
C5    C47   S    
C12   C23   S    
C45   H4    S    
Cr6   O3    S    
C27   O3    A    
C18   C19   S    
C3    C7    S    
C5    C6    S    
C16   O16   A    
C15   H25   S    
C27   O24   A    
Cr1   O23   S    
C17   H26   S    
C33   O17   A    
C12   C37   S    
C29   O7    A    
C11   H24   S    
C14   C39   S    
C4    O15   A    
C6    H12   S    
Cr5   O26   S    
C8    C9    S    
Cr3   O16   S    
Cr6   O10   S    
C34   H28   S    
Cr2   O13   S    
C41   H18   S    
C38   H8    S    
C28   O19   A    
C32   O12   A    
C40   O20   S    
C4    C35   S    
Cr3   O22   S    
C31   O5    A    
C22   C28   S    
C13   C14   S    
Cr5   O8    S    
C6    C9    S    
C30   O8    A    
Cr4   O5    S    
C16   O1    A    
C25   O25   A    
C1    O4    A    
C42   H21   S    
C40   H16   S    
Cr5   O7    S    
Cr6   O2    S    
C10   C14   S    
Cr4   O6    S    
C1    O13   A    
C7    H22   S    
C21   C29   S    
C23   C44   S    
C1    C3    S    
C43   C44   S    
Cr4   O11   S    
C4    O14   A    
C44   H3    S    
C14   C15   S    
C10   C19   S    
Cr4   O24   S    
C23   C34   S    
Cr6   O11   S    
C42   H19   S    
C17   C18   S    
Cr2   O14   S    
C20   C33   S    
C28   O18   A    
C43   H2    S    
C40   C41   S    
C9    C47   S    
C16   C23   S    
C31   O10   A    
C39   H13   S    
C32   O21   A    
Cr5   O11   S    
C26   O27   A    
C44   C45   S    
C9    C27   S    
C38   H10   S    
C26   C36   S    
C15   C17   S    
Cr1   O18   S    
C42   H20   S    
C5    H7    S    
C33   O22   A    
C39   H14   S    
C2    C8    S    
C34   C43   S    
C12   C45   S    
C3    C5    S    
C2    H5    S    
Cr3   O21   S    
C6    C7    S    
C2    C47   S    
Cr1   O17   S    
C13   C17   S    
C10   C38   S    
C2    C3    S    
C24   C31   S    
Cr2   O19   S    
C37   O20   S    
C11   C13   S    
Cr3   O15   S    
Cr4   O25   S    
Cr1   O1    S    
C22   C24   T    
C43   C46   S    
C29   O6    A    
C10   C11   S    
C47   H6    S    
C20   C21   T    
Cr5   O27   S    
C18   H27   S    
C40   H15   S    
Cr6   O9    S    
Cr1   O4    S    
Cr2   O12   S    
C37   C46   S    
C19   C30   S    
C25   C46   S    
C25   O26   A    
C12   H1    S    
C41   H17   S    
C38   H9    S    
