data_mof_unit_3856.cif
_audit_creation_date              2012-12-11T14:17:31-0500
_audit_creation_method            fapswitch 2.2
_symmetry_space_group_name_H-M    P1
_symmetry_Int_Tables_number       1
_space_group_crystal_system       triclinic
_cell_length_a                    6.94385
_cell_length_b                    13.71648
_cell_length_c                    20.400696
_cell_angle_alpha                 102.077891
_cell_angle_beta                  90.997353
_cell_angle_gamma                 91.49779
_cell_volume                      1898.88696911

loop_
_atom_site_label
_atom_site_type_symbol
_atom_type_description
_atom_site_fract_x
_atom_site_fract_y
_atom_site_fract_z
_atom_type_partial_charge
O1    O     O_R   0.506860 0.599390 0.449240 -0.542784
O2    O     O_R   0.180220 0.594600 0.586780 -0.488413
O3    O     O_R   0.004500 0.400610 0.550760 -0.530221
C1    C     C_R   0.354235 0.621315 0.611508 0.779611
O4    O     O_R   0.177490 0.611290 0.451970 -0.539416
O5    O     O_R   0.001750 0.417420 0.414990 -0.552135
C2    C     C_R   0.347183 0.637757 0.435253 0.689297
O6    O     O_R   0.509610 0.582580 0.585010 -0.529419
O7    O     O_3   0.337420 0.436370 0.488020 -0.392178
V1    V     V_3+5 0.064680 0.511800 0.502220 1.605155
O8    O     O_R   0.671710 0.405400 0.413220 -0.549567
C3    C     C_R   0.838145 0.382666 0.387111 0.687847
O9    O     O_R   0.674440 0.388710 0.548030 -0.546057
C4    C     C_R   0.842550 0.361184 0.564060 0.754506
V2    V     V_3+5 0.564010 0.488200 0.497780 1.540502
O10   O     O_3   0.841140 0.563630 0.511980 -0.344512
C5    C     C_R   0.821375 0.112792 0.613485 0.432445
H1    H     H_    0.835966 0.163757 0.521110 0.152587
H2    H     H_    0.764635 0.991053 0.700075 0.227154
C6    C     C_R   0.848746 0.286557 0.606180 -0.168853
C7    C     C_R   0.929227 0.315693 0.929936 -0.117895
C8    C     C_R   0.984661 0.384297 0.891194 0.414623
C9    C     C_R   0.974452 0.357266 0.821666 -0.156970
C10   C     C_R   0.887421 0.265930 0.788039 0.051704
C11   C     C_R   0.846285 0.193000 0.826349 0.081380
C12   C     C_R   0.855672 0.242165 0.716749 -0.001944
C13   C     C_R   0.824951 0.140371 0.684243 0.038850
C14   C     C_R   0.793681 0.068610 0.723076 -0.024618
C15   C     C_R   0.793165 0.095467 0.792611 -0.145940
C16   C     C_R   0.848683 0.315810 0.676732 -0.100093
C17   C     C_R   0.839066 0.185684 0.575364 -0.223873
C18   C     C_R   0.870554 0.217675 0.897301 -0.192294
H3    H     H_    0.042718 0.407953 0.794736 0.185163
H4    H     H_    0.760304 0.037309 0.819629 0.107552
C19   C     C_2   0.998223 0.286850 0.286647 -0.050587
C20   C     C_2   0.838244 0.309431 0.322613 -0.262354
H5    H     H_    0.136301 0.320088 0.306649 0.153524
H6    H     H_    0.702452 0.270924 0.305575 0.207273
C21   C     C_2   0.000919 0.210541 0.222813 -0.184231
C22   C     C_2   0.862003 0.196418 0.174273 0.225536
H7    H     H_    0.128061 0.165504 0.214745 0.162398
C23   C     C_2   0.286625 0.844676 0.762400 -0.235146
C24   C     C_2   0.330278 0.816460 0.821308 0.153700
C25   C     C_2   0.252840 0.768761 0.698492 0.408668
C26   C     C_2   0.387197 0.701058 0.673871 -0.245849
C27   C     C_R   0.412196 0.887127 0.389575 -0.082239
H8    H     H_    0.396280 0.835878 0.481739 0.166574
H9    H     H_    0.429542 0.963521 0.416665 0.169327
C28   C     C_R   0.360130 0.715011 0.395777 -0.050584
C29   C     C_R   0.317712 0.687925 0.072529 -0.102613
C30   C     C_R   0.299694 0.612823 0.108416 -0.027992
C31   C     C_R   0.317105 0.635058 0.178123 -0.147952
C32   C     C_R   0.354532 0.734267 0.214168 0.078419
C33   C     C_R   0.374520 0.810647 0.176865 0.042076
C34   C     C_R   0.370474 0.760027 0.285744 0.072190
C35   C     C_R   0.408494 0.861533 0.318723 0.045138
C36   C     C_R   0.437085 0.935370 0.280386 -0.023491
C37   C     C_R   0.415287 0.909462 0.210663 -0.240531
C38   C     C_R   0.349064 0.687951 0.325925 -0.192494
C39   C     C_R   0.389776 0.814478 0.427489 -0.102544
C40   C     C_R   0.354565 0.786473 0.105898 -0.102857
H10   H     H_    0.324881 0.609736 0.304856 0.103532
H11   H     H_    0.302799 0.669332 0.018373 0.192765
H12   H     H_    0.300116 0.572467 0.201897 0.131407
H13   H     H_    0.271019 0.536577 0.082026 0.180301
H14   H     H_    0.435912 0.967645 0.182570 0.141192
O11   O     O_R   0.203230 0.917310 0.915020 -0.551656
O12   O     O_R   0.535500 0.888690 0.048040 -0.540719
O13   O     O_R   0.711080 0.082610 0.085000 -0.521312
C41   C     C_R   0.366167 0.863042 0.065470 0.706465
O14   O     O_R   0.532630 0.905370 0.913230 -0.537362
O15   O     O_R   0.708190 0.099410 0.949230 -0.544886
C42   C     C_R   0.360106 0.888087 0.885616 0.715432
O16   O     O_R   0.206120 0.900510 0.050790 -0.539713
O17   O     O_3   0.375360 0.063570 0.011990 -0.355477
V3    V     V_3+5 0.648170 0.988200 0.997780 1.548730
O18   O     O_R   0.038240 0.111390 0.951940 -0.522736
C43   C     C_R   0.870568 0.138470 0.935790 0.734182
O19   O     O_R   0.041120 0.094710 0.086750 -0.544902
C44   C     C_R   0.873903 0.117967 0.112604 0.696774
V4    V     V_3+5 0.148810 0.011930 0.002180 1.554765
O20   O     O_3   0.871750 0.936430 0.988010 -0.375346
Cl1   Cl    Cl    0.664448 0.276213 0.177444 -0.626319
C45   C     C_2   0.294563 0.951110 0.755926 0.824373
O21   O     O_2   0.374484 0.972953 0.707932 -0.493218
O22   O     O_R   0.208230 0.026495 0.801511 -0.650683
H15   H     H_    0.108001 0.999486 0.828773 0.248900
Cl2   Cl    Cl    0.313574 0.689996 0.827720 -0.563647
Cl3   Cl    Cl    0.045486 0.783410 0.650491 -0.564222
C46   C     C_2   0.586768 0.713072 0.704605 0.888636
O23   O     O_2   0.684783 0.640236 0.702575 -0.503150
O24   O     O_R   0.664107 0.807415 0.734704 -0.659192
H16   H     H_    0.792448 0.804300 0.758511 0.324499
C47   C     C_2   0.497077 0.040127 0.310863 0.741539
O25   O     O_2   0.424323 0.108871 0.290614 -0.566807
O26   O     O_R   0.642775 0.060114 0.360471 -0.658745
H17   H     H_    0.670845 0.134156 0.377079 0.283964
Cl4   Cl    Cl    0.793810 0.987585 0.569866 -0.585060
C48   C     C_2   0.810583 0.421087 0.707120 0.803925
O27   O     O_2   0.915887 0.487821 0.695294 -0.504134
O28   O     O_R   0.660270 0.442642 0.752194 -0.633085
H18   H     H_    0.658875 0.515477 0.775369 0.365315
C49   C     C_2   0.941605 0.346209 0.004146 0.839964
O29   O     O_2   0.851793 0.417689 0.032713 -0.506656
O30   O     O_R   0.059432 0.295533 0.041180 -0.652556
H19   H     H_    0.058852 0.325237 0.091048 0.305990
Cl5   Cl    Cl    0.083435 0.503254 0.927933 -0.565623

loop_
_geom_bond_atom_site_label_1
_geom_bond_atom_site_label_2
_ccdc_geom_bond_type
C40   C41   S    
C24   C42   S    
C34   C35   A    
O28   H18   S    
C34   C38   A    
O2    C1    A    
C19   C20   D    
O15   V3    S    
V4    O20   S    
C46   O23   D    
C21   H7    S    
C6    C16   A    
C32   C33   A    
C31   C32   A    
C12   C13   A    
C28   C39   A    
C24   Cl2   S    
C14   C15   A    
C19   H5    S    
C45   O22   S    
O5    C3    A    
O14   V3    S    
C8    Cl5   S    
C35   C36   A    
O13   V3    S    
C30   H13   S    
O15   C43   A    
H8    C39   S    
O8    V2    S    
C37   H14   S    
C9    H3    S    
C41   O16   A    
C9    C10   A    
C22   C44   S    
O11   C42   A    
C3    C20   S    
C5    Cl4   S    
C1    O6    A    
C11   C18   A    
O9    C4    A    
C29   H11   S    
C22   Cl1   S    
C23   C25   S    
C1    C26   S    
C32   C34   A    
C11   C15   A    
C7    C18   A    
C27   H9    S    
C30   C31   A    
C5    C13   A    
C4    C6    S    
C23   C45   S    
C10   C11   A    
C2    C28   S    
C31   H12   S    
V3    O20   S    
C21   C22   D    
O14   C42   A    
O22   H15   S    
O17   V4    S    
O18   C43   A    
C15   H4    S    
C19   C21   S    
O17   V3    S    
C26   C46   S    
C46   O24   S    
C48   O27   D    
O18   V4    S    
O26   H17   S    
C33   C37   A    
C29   C30   A    
C49   O30   S    
C45   O21   D    
C47   O26   S    
H2    C14   S    
O3    C4    A    
O1    V2    S    
C48   O28   S    
O11   V4    S    
O6    V2    S    
C36   C47   S    
O9    V2    S    
C5    C17   A    
C23   C24   D    
O16   V4    S    
O2    V1    S    
C49   O29   D    
C25   C26   D    
O4    C2    A    
O7    V1    S    
C38   H10   S    
C27   C39   A    
O1    C2    A    
C10   C12   A    
O5    V1    S    
O8    C3    A    
C12   C16   A    
C33   C40   A    
O12   V3    S    
O30   H19   S    
O19   V4    S    
C28   C38   A    
C20   H6    S    
O7    V2    S    
O4    V1    S    
O3    V1    S    
V1    O10   S    
C36   C37   A    
C16   C48   S    
O24   H16   S    
C47   O25   D    
C18   C43   S    
O19   C44   A    
C7    C49   S    
O12   C41   A    
C27   C35   A    
C13   C14   A    
C29   C40   A    
C8    C9    A    
O13   C44   A    
H1    C17   S    
C7    C8    A    
C25   Cl3   S    
V2    O10   S    
C6    C17   A    
