data_mof_unit_542.cif
_audit_creation_date              2012-12-10T19:11:33-0500
_audit_creation_method            fapswitch 2.2
_symmetry_space_group_name_H-M    P1
_symmetry_Int_Tables_number       1
_space_group_crystal_system       triclinic
_cell_length_a                    7.784302
_cell_length_b                    9.097066
_cell_length_c                    17.383419
_cell_angle_alpha                 90.000865
_cell_angle_beta                  86.08405
_cell_angle_gamma                 90.0
_cell_volume                      1228.12080932

loop_
_atom_site_label
_atom_site_type_symbol
_atom_type_description
_atom_site_fract_x
_atom_site_fract_y
_atom_site_fract_z
_atom_type_partial_charge
C1    C     C_R   0.500001 0.779976 0.499996 0.849510
C2    C     C_R   0.499999 0.220024 0.500002 0.846385
C3    C     C_1   0.500000 0.934635 0.499998 -0.175455
C4    C     C_1   0.500000 0.065367 0.499999 -0.176549
C5    C     C_R   0.477939 0.501767 0.650260 0.815545
C6    C     C_R   0.521938 0.498075 0.349733 0.815425
C7    C     C_R   0.466212 0.508614 0.734413 -0.095478
C8    C     C_R   0.532302 0.489113 0.265621 -0.097003
C9    C     C_R   0.616744 0.521355 0.773708 -0.199295
C10   C     C_R   0.380232 0.487478 0.226996 -0.195099
C11   C     C_R   0.606878 0.531002 0.853402 -0.231212
C12   C     C_R   0.387214 0.477494 0.147445 -0.238531
C13   C     C_R   0.446521 0.524861 0.895303 0.073483
C14   C     C_R   0.546527 0.469093 0.104777 0.082263
C15   C     C_R   0.294576 0.511800 0.856531 0.522516
C16   C     C_R   0.699888 0.463490 0.143155 0.531083
C17   C     C_R   0.305229 0.506274 0.775899 -0.281083
C18   C     C_R   0.692017 0.477521 0.223574 -0.279770
C19   C     C_2   0.436827 0.531189 0.979655 -0.186520
C20   C     C_2   0.554011 0.463545 0.020252 -0.197208
Cu1   Cu    Cu3+1 0.330920 0.500000 0.500000 0.999577
Cu2   Cu    Cu3+1 0.669080 0.500000 0.500000 0.999653
H1    H     H_    0.267144 0.474999 0.119707 0.180061
H2    H     H_    0.724850 0.545101 0.882137 0.188477
H3    H     H_    0.742403 0.525782 0.742908 0.174230
H4    H     H_    0.255100 0.493943 0.258159 0.174009
N1    N     N_1   0.923170 0.500000 0.500010 -0.053852
N2    N     N_1   0.076830 0.500000 0.499990 -0.053907
O1    O     O_R   0.357240 0.711600 0.500000 -0.576721
O2    O     O_R   0.642760 0.288400 0.500000 -0.578045
O3    O     O_R   0.642760 0.711600 0.500000 -0.576862
O4    O     O_R   0.357240 0.288400 0.500000 -0.578075
O5    O     O_R   0.340660 0.500000 0.613590 -0.589497
O6    O     O_R   0.659340 0.500000 0.386410 -0.589257
O7    O     O_R   0.626230 0.500000 0.613600 -0.590223
O8    O     O_R   0.373770 0.500000 0.386400 -0.590644
O9    O     O_3   0.135949 0.510189 0.897627 -0.581309
C21   C     C_3   0.067682 0.366735 0.895621 -0.338215
H5    H     H_    0.158729 0.283953 0.916861 0.160893
H6    H     H_    0.031399 0.337555 0.836766 0.159444
H7    H     H_    0.948879 0.362412 0.934406 0.203013
O10   O     O_3   0.857524 0.456846 0.101377 -0.579589
C22   C     C_3   0.929649 0.316434 0.111295 -0.381046
H8    H     H_    0.839862 0.227354 0.095984 0.162163
H9    H     H_    0.968789 0.301388 0.171125 0.171401
H10   H     H_    0.047285 0.306242 0.071942 0.198965
H11   H     H_    0.810501 0.479196 0.252817 0.166587
H12   H     H_    0.187755 0.499812 0.746068 0.167096
H13   H     H_    0.660149 0.404526 0.990694 0.172642
H14   H     H_    0.329442 0.590085 0.008347 0.196026

loop_
_geom_bond_atom_site_label_1
_geom_bond_atom_site_label_2
_ccdc_geom_bond_type
C2    C4    S    
C22   H8    S    
C15   C17   A    
C20   H13   S    
C16   O10   S    
C9    C11   A    
C19   C20   D    
C12   H1    S    
C17   H12   S    
C2    O2    A    
C18   H11   S    
C10   H4    S    
C1    O1    A    
C9    H3    S    
C22   H9    S    
Cu1   O8    S    
Cu1   Cu2   S    
C21   H6    S    
Cu2   O7    S    
C11   C13   A    
C19   H14   S    
O9    C21   S    
C10   C12   A    
C5    O7    A    
C8    C10   A    
C22   H10   S    
Cu1   N2    S    
C12   C14   A    
C7    C9    A    
Cu2   N1    S    
C13   C15   A    
C21   H5    S    
Cu2   O6    S    
Cu1   O4    S    
C14   C16   A    
Cu1   O5    S    
Cu2   O3    S    
C13   C19   S    
C3    C4    T    
C14   C20   S    
C11   H2    S    
C1    O3    A    
C21   H7    S    
C2    O4    A    
O10   C22   S    
N1    N2    T    
C5    C7    S    
C15   O9    S    
C6    C8    S    
Cu2   O2    S    
C1    C3    S    
Cu1   O1    S    
C16   C18   A    
C8    C18   A    
C6    O6    A    
C6    O8    A    
C7    C17   A    
C5    O5    A    
