data_mof_unit_1452.cif
_audit_creation_date              2013-03-05T15:40:10-0500
_audit_creation_method            fapswitch 2.2
_symmetry_space_group_name_H-M    P1
_symmetry_Int_Tables_number       1
_space_group_crystal_system       triclinic
_cell_length_a                    10.890952
_cell_length_b                    10.854653
_cell_length_c                    15.468693
_cell_angle_alpha                 96.437806
_cell_angle_beta                  75.291179
_cell_angle_gamma                 99.00206
_cell_volume                      1741.93268481

loop_
_atom_site_label
_atom_site_type_symbol
_atom_site_description
_atom_site_fract_x
_atom_site_fract_y
_atom_site_fract_z
_atom_type_partial_charge
Zn1   Zn    Zn3+2 0.580150 0.419820 0.574680 1.076087
Zn2   Zn    Zn3+2 0.401380 0.373730 0.437510 1.009292
Zn3   Zn    Zn3+2 0.631680 0.593260 0.413140 1.043636
Zn4   Zn    Zn3+2 0.386790 0.613180 0.574670 0.989522
O1    O     O_3   0.500000 0.500000 0.500000 -0.522374
O2    O     O_R   0.212140 0.566330 0.564260 -0.632660
O3    O     O_R   0.764730 0.456770 0.540270 -0.584889
O4    O     O_R   0.412790 0.208310 0.468260 -0.645948
O5    O     O_R   0.610350 0.768590 0.427210 -0.588183
O6    O     O_R   0.463530 0.379110 0.309170 -0.666895
O7    O     O_R   0.388210 0.611730 0.699360 -0.649723
O8    O     O_R   0.624720 0.532760 0.292120 -0.617759
O9    O     O_R   0.523540 0.476390 0.699360 -0.617013
O10   O     O_R   0.537910 0.240570 0.564270 -0.592839
O11   O     O_R   0.438950 0.782540 0.540270 -0.664840
O12   O     O_R   0.222350 0.398740 0.468260 -0.626363
O13   O     O_R   0.800790 0.578160 0.427210 -0.635748
C1    C     C_R   0.159264 0.478953 0.518326 0.811131
C2    C     C_R   0.842044 0.520681 0.480295 0.944547
C3    C     C_R   0.467354 0.167600 0.521054 0.934158
C4    C     C_R   0.529734 0.833490 0.479197 0.786556
C5    C     C_R   0.556656 0.442265 0.258766 0.877045
C6    C     C_R   0.445040 0.552777 0.741838 0.908458
C7    C     C_R   0.600537 0.263455 0.032911 0.232026
H1    H     H_    0.499557 0.193753 0.894723 0.179599
C8    C     C_R   0.575616 0.414727 0.162410 -0.145420
C9    C     C_R   0.415338 0.706578 0.872247 -0.326892
C10   C     C_R   0.430875 0.750290 0.958024 0.603451
C11   C     C_R   0.470726 0.671295 0.007414 -0.200920
C12   C     C_R   0.481479 0.544147 0.977819 -0.025929
C13   C     C_R   0.452203 0.497441 0.894775 -0.013043
C14   C     C_R   0.523043 0.462908 0.027344 0.085952
C15   C     C_R   0.544957 0.340638 0.989651 -0.082449
C16   C     C_R   0.499533 0.292404 0.914188 -0.256810
C17   C     C_R   0.444663 0.367284 0.869426 0.543128
C18   C     C_R   0.539173 0.497725 0.114514 -0.293879
C19   C     C_R   0.608386 0.297847 0.122077 0.394045
C20   C     C_R   0.430354 0.582830 0.838991 -0.105288
H2    H     H_    0.512626 0.584253 0.150506 0.157761
H3    H     H_    0.400430 0.771468 0.828831 0.172293
H4    H     H_    0.494505 0.713861 0.068400 0.168934
C21   C     C_2   0.978258 0.531564 0.476594 -0.469896
H5    H     H_    0.043022 0.600466 0.434989 0.140013
C22   C     C_2   0.023883 0.463103 0.525955 0.187931
C23   C     C_2   0.543887 0.967762 0.469433 0.149003
C24   C     C_2   0.459671 0.035174 0.525936 -0.449966
H6    H     H_    0.383112 0.992622 0.578046 0.148165
O14   O     O_3   0.655708 0.220976 0.167932 -0.579821
C25   C     C_3   0.554180 0.136603 0.214420 -0.052432
H7    H     H_    0.462048 0.130036 0.193848 0.108653
H8    H     H_    0.537251 0.162791 0.287411 0.182526
H9    H     H_    0.583530 0.041652 0.202852 0.227532
N1    N     N_R   0.948957 0.358247 0.572232 0.230963
O15   O     O_R   0.960606 0.342180 0.651714 -0.358609
O16   O     O_R   0.896669 0.264840 0.527448 -0.300294
N2    N     N_R   0.646358 0.023482 0.399718 0.200702
O17   O     O_R   0.686230 0.959205 0.324246 -0.369672
O18   O     O_R   0.707687 0.133850 0.413733 -0.342498
N3    N     N_R   0.652328 0.153664 0.985440 0.234200
O19   O     O_R   0.719127 0.158245 0.902868 -0.344543
O20   O     O_R   0.643289 0.052694 0.025840 -0.318865
O21   O     O_3   0.426184 0.874310 0.991191 -0.572407
C26   C     C_3   0.318495 0.919729 0.977624 -0.258313
H10   H     H_    0.230132 0.850713 0.992908 0.167598
H11   H     H_    0.337563 0.948588 0.908372 0.149623
H12   H     H_    0.300811 0.004477 0.023755 0.197474
O22   O     O_3   0.371706 0.318919 0.807602 -0.614178
C27   C     C_3   0.386443 0.194863 0.773041 -0.227931
H13   H     H_    0.337357 0.172291 0.717498 0.178062
H14   H     H_    0.338777 0.128244 0.824719 0.145757
H15   H     H_    0.489037 0.183369 0.744839 0.189467

loop_
_geom_bond_atom_site_label_1
_geom_bond_atom_site_label_2
_geom_bond_distance
_ccdc_geom_bond_type
Zn4   O7    1.934620 S    
C26   H11   1.109391 S    
C8    C19   1.406175 A    
C27   H15   1.112755 S    
O21   C26   1.411303 S    
Zn3   O5    1.934707 S    
O8    C5    1.278005 A    
C6    C20   1.474732 S    
Zn2   O12   1.940983 S    
C9    H3    1.082010 S    
O3    C2    1.271146 A    
C7    C15   1.416423 A    
C13   C20   1.418784 A    
C17   O22   1.401526 S    
H1    C16   1.079386 S    
C16   C17   1.409077 A    
C25   H9    1.108672 S    
C11   H4    1.076742 S    
C14   C15   1.418911 A    
Zn4   O11   1.929876 S    
C7    C19   1.408373 A    
Zn3   O8    1.929317 S    
C26   H12   1.109495 S    
N3    O19   1.301631 A    
Zn1   O3    1.933260 S    
N1    O15   1.300910 A    
O6    C5    1.267756 A    
C19   O14   1.384890 S    
C12   C14   1.421947 A    
C2    C21   1.456552 S    
O5    C4    1.273500 A    
O4    C3    1.274706 A    
C21   C22   1.348184 D    
C7    N3    1.442706 S    
Zn1   O1    1.956835 S    
Zn4   O1    1.948393 S    
C14   C18   1.406103 A    
O7    C6    1.284163 A    
O14   C25   1.416169 S    
O13   C2    1.286621 A    
N2    O18   1.301245 A    
Zn3   O13   1.942260 S    
C4    C23   1.462206 S    
N1    O16   1.301652 A    
C12   C13   1.421334 A    
O2    C1    1.273488 A    
C13   C17   1.418572 A    
N3    O20   1.300014 A    
Zn2   O1    1.932883 S    
Zn1   O9    1.930255 S    
C21   H5    1.087841 S    
C9    C20   1.402405 A    
C11   C12   1.417669 A    
C26   H10   1.114363 S    
Zn2   O6    1.932368 S    
O10   C3    1.271366 A    
C1    C22   1.433276 S    
O11   C4    1.283601 A    
C15   C16   1.398790 A    
N2    O17   1.301160 A    
O9    C6    1.290176 A    
O12   C1    1.263222 A    
Zn4   O2    1.933136 S    
C5    C8    1.454896 S    
C8    C18   1.388875 A    
C9    C10   1.400720 A    
C25   H7    1.117074 S    
C27   H14   1.110342 S    
C24   H6    1.086265 S    
C10   C11   1.392505 A    
Zn1   O10   1.926277 S    
C25   H8    1.108294 S    
C23   C24   1.341687 D    
C22   N1    1.438472 S    
C18   H2    1.077818 S    
Zn2   O4    1.938341 S    
O22   C27   1.409784 S    
C23   N2    1.448481 S    
C27   H13   1.108626 S    
Zn3   O1    1.938800 S    
C3    C24   1.436118 S    
C10   O21   1.389749 S    
