data_mof_unit_725.cif
_audit_creation_date              2012-12-10T19:01:51-0500
_audit_creation_method            fapswitch 2.2
_symmetry_space_group_name_H-M    P1
_symmetry_Int_Tables_number       1
_space_group_crystal_system       triclinic
_cell_length_a                    11.698915
_cell_length_b                    10.824185
_cell_length_c                    9.593237
_cell_angle_alpha                 89.995395
_cell_angle_beta                  89.215644
_cell_angle_gamma                 90.990943
_cell_volume                      1214.50775091

loop_
_atom_site_label
_atom_site_type_symbol
_atom_type_description
_atom_site_fract_x
_atom_site_fract_y
_atom_site_fract_z
_atom_type_partial_charge
C1    C     C_R   0.497041 0.262560 0.500039 0.801988
C2    C     C_R   0.484660 0.129460 0.500721 -0.154774
C3    C     C_R   0.460561 0.064053 0.377592 -0.170003
C4    C     C_R   0.459968 0.935007 0.378058 -0.143283
C5    C     C_R   0.484615 0.870624 0.501165 -0.093836
C6    C     C_R   0.490606 0.936851 0.625810 0.115527
C7    C     C_3   0.572765 0.931009 0.743650 -0.542373
C8    C     C_3   0.574292 0.072418 0.743688 -0.030679
C9    C     C_R   0.598477 0.523899 0.070681 0.241294
C10   C     C_R   0.408405 0.457185 0.077441 -0.055589
C11   C     C_R   0.409032 0.452523 0.929085 0.019246
C12   C     C_R   0.284105 0.499831 0.500741 0.805589
C13   C     C_R   0.598061 0.523300 0.924393 0.263742
C14   C     C_3   0.677689 0.630836 0.910998 -0.593101
C15   C     C_3   0.679176 0.634487 0.070593 -0.119849
C16   C     C_R   0.497345 0.737595 0.500150 0.818395
C17   C     C_R   0.715873 0.500125 0.499324 0.843300
C18   C     C_1   0.162366 0.499813 0.501909 -0.137530
C19   C     C_1   0.059864 0.499863 0.501145 0.040653
C20   C     C_1   0.940074 0.499975 0.499419 0.050596
C21   C     C_1   0.837585 0.500061 0.498478 -0.108588
C22   C     C_R   0.491473 0.063928 0.625515 0.096829
Cu1   Cu    Cu3+1 0.499990 0.499980 0.640670 0.967547
Cu2   Cu    Cu3+1 0.500010 0.500020 0.359330 0.983267
H1    H     H_    0.636545 0.710183 0.860800 0.194287
H2    H     H_    0.445103 0.886509 0.281263 0.170134
H3    H     H_    0.531732 0.888969 0.837956 0.212985
H4    H     H_    0.655045 0.888635 0.711599 0.175776
H5    H     H_    0.335398 0.421424 0.135899 0.193291
N1    N     N_R   0.500710 0.500930 0.147930 -0.238842
N2    N     N_R   0.500710 0.500890 0.852020 -0.234722
O1    O     O_R   0.500000 0.319640 0.618810 -0.597086
O2    O     O_R   0.500010 0.319680 0.381230 -0.574038
O3    O     O_R   0.337190 0.499990 0.618790 -0.598524
O4    O     O_R   0.337200 0.500030 0.381210 -0.583018
O5    O     O_R   0.499990 0.680320 0.618770 -0.580046
O6    O     O_R   0.500000 0.680360 0.381190 -0.577966
O7    O     O_R   0.662800 0.499970 0.618790 -0.561494
O8    O     O_R   0.662810 0.500010 0.381210 -0.541340
H6    H     H_    0.447219 0.111926 0.280150 0.185692
C23   C     C_2   0.796962 0.607770 0.125699 0.470948
H7    H     H_    0.859636 0.682374 0.134417 0.096402
O9    O     O_2   0.824441 0.502912 0.156192 -0.525259
C24   C     C_2   0.626656 0.750583 0.127988 0.380964
H8    H     H_    0.541774 0.776191 0.095440 0.069629
O10   O     O_2   0.678402 0.817349 0.209099 -0.560291
C25   C     C_2   0.522199 0.127360 0.874893 0.410873
H9    H     H_    0.573709 0.184492 0.943590 0.114174
O11   O     O_2   0.422589 0.105435 0.907589 -0.569146
C26   C     C_2   0.689308 0.127598 0.700164 0.327163
H10   H     H_    0.733916 0.090944 0.609602 0.096377
O12   O     O_2   0.732808 0.213617 0.763874 -0.527842
C27   C     C_2   0.314178 0.383378 0.863651 0.470347
H11   H     H_    0.329372 0.326766 0.772686 0.122917
O13   O     O_2   0.217796 0.385122 0.914080 -0.540279
H12   H     H_    0.759983 0.604291 0.860839 0.219565

loop_
_geom_bond_atom_site_label_1
_geom_bond_atom_site_label_2
_ccdc_geom_bond_type
C2    C22   A    
C24   H8    S    
C8    C22   S    
Cu1   Cu2   S    
C6    C7    S    
Cu1   O5    S    
Cu1   O7    S    
C23   H7    S    
C10   N1    A    
C4    H2    S    
Cu2   O2    S    
C11   C27   S    
C16   O6    A    
Cu1   O3    S    
Cu1   O1    S    
C2    C3    A    
C9    C15   S    
C8    C25   S    
C11   N2    A    
C7    C8    S    
C25   O11   D    
C27   H11   S    
C16   O5    A    
C12   O4    A    
C23   O9    D    
C10   H5    S    
C9    N1    A    
C24   O10   D    
C15   C24   S    
C26   H10   S    
C17   O7    A    
C27   O13   D    
C14   H1    S    
C5    C6    A    
Cu2   N1    S    
Cu2   O4    S    
C10   C11   A    
C1    O2    A    
C3    C4    A    
C6    C22   A    
C25   H9    S    
C8    C26   S    
Cu2   O8    S    
C7    H3    S    
C20   C21   T    
C15   C23   S    
Cu2   O6    S    
C1    C2    S    
C17   O8    A    
C12   C18   S    
C26   O12   D    
C9    C13   A    
C14   C15   S    
C18   C19   T    
C5    C16   S    
C3    H6    S    
C13   C14   S    
C12   O3    A    
C13   N2    A    
C1    O1    A    
C17   C21   S    
C7    H4    S    
C19   C20   S    
C14   H12   S    
C4    C5    A    
Cu1   N2    S    
