data_mof_unit_4336.cif
_audit_creation_date              2012-12-11T14:12:08-0500
_audit_creation_method            fapswitch 2.2
_symmetry_space_group_name_H-M    P1
_symmetry_Int_Tables_number       1
_space_group_crystal_system       triclinic
_cell_length_a                    14.648604
_cell_length_b                    16.296317
_cell_length_c                    6.934897
_cell_angle_alpha                 90.701816
_cell_angle_beta                  97.32116
_cell_angle_gamma                 89.90479
_cell_volume                      1641.86715494

loop_
_atom_site_label
_atom_site_type_symbol
_atom_type_description
_atom_site_fract_x
_atom_site_fract_y
_atom_site_fract_z
_atom_type_partial_charge
O1    O     O_R   0.584460 0.414130 0.534110 -0.527008
O2    O     O_R   0.584460 0.585870 0.534110 -0.535357
O3    O     O_R   0.595580 0.585780 0.208030 -0.535863
O4    O     O_R   0.595580 0.414220 0.208030 -0.544014
O5    O     O_R   0.415540 0.585790 0.977250 -0.542884
O6    O     O_R   0.415540 0.414210 0.977250 -0.557394
C1    C     C_R   0.616919 0.613870 0.383564 0.833449
C2    C     C_R   0.617671 0.386829 0.380725 0.796368
O7    O     O_3   0.440930 0.500000 0.319360 -0.379253
V1    V     V_3+5 0.510960 0.500000 0.068030 1.519063
O8    O     O_R   0.404420 0.414140 0.643900 -0.529968
O9    O     O_R   0.404420 0.585860 0.643900 -0.531175
C3    C     C_R   0.381128 0.386821 0.808057 0.702590
C4    C     C_R   0.383349 0.614204 0.809318 0.729620
V2    V     V_3+5 0.489040 0.500000 0.560660 1.537441
O10   O     O_3   0.559070 0.500000 0.859200 -0.368231
H1    H     H_    0.270942 0.656268 0.072415 0.154148
H2    H     H_    0.312314 0.316680 0.109976 0.158321
C5    C     C_2   0.320308 0.685114 0.807342 0.008006
C6    C     C_2   0.306551 0.324105 0.804178 0.043580
C7    C     C_2   0.266823 0.697982 0.950554 -0.178548
C8    C     C_2   0.276196 0.297287 0.970453 -0.178207
H3    H     H_    0.243543 0.810803 0.217990 0.190723
H4    H     H_    0.264735 0.164615 0.180069 0.160529
C9    C     C_2   0.192231 0.816231 0.092806 -0.356159
C10   C     C_2   0.199017 0.178021 0.095106 -0.353450
C11   C     C_2   0.195345 0.763105 0.941095 0.022947
C12   C     C_2   0.192317 0.244948 0.977546 -0.009544
C13   C     C_2   0.802647 0.775485 0.342801 -0.093557
C14   C     C_2   0.838841 0.256967 0.445209 -0.148063
C15   C     C_2   0.807516 0.834601 0.485953 -0.242389
C16   C     C_2   0.824483 0.182097 0.523125 -0.258728
C17   C     C_2   0.719142 0.724930 0.287425 -0.040945
C18   C     C_2   0.775152 0.327960 0.465221 -0.014667
C19   C     C_2   0.691156 0.674719 0.421416 -0.317238
C20   C     C_2   0.684961 0.319623 0.396555 -0.309098
H5    H     H_    0.727919 0.676220 0.567936 0.174051
H6    H     H_    0.661872 0.262471 0.323925 0.120939
O11   O     O_R   0.925070 0.912130 0.373190 -0.549163
O12   O     O_R   0.925070 0.087870 0.373190 -0.537948
O13   O     O_R   0.914170 0.083600 0.699490 -0.530484
O14   O     O_R   0.914170 0.916400 0.699490 -0.502480
O15   O     O_R   0.094290 0.084740 0.929940 -0.527792
O16   O     O_R   0.094290 0.915260 0.929940 -0.527676
C21   C     C_R   0.892470 0.114115 0.529214 0.768321
C22   C     C_R   0.889612 0.888438 0.523978 0.702727
O17   O     O_3   0.068710 0.000000 0.587750 -0.362703
V3    V     V_3+5 0.998820 0.000000 0.839270 1.645874
O18   O     O_R   0.105520 0.913050 0.263180 -0.535806
O19   O     O_R   0.105520 0.086950 0.263180 -0.533597
C23   C     C_R   0.124536 0.884079 0.095984 0.755193
C24   C     C_R   0.126268 0.114703 0.097691 0.794999
V4    V     V_3+5 0.020980 0.000000 0.346670 1.585618
O20   O     O_3   0.950820 0.000000 0.048230 -0.362297
C25   C     C_2   0.120748 0.757954 0.775938 0.847384
O21   O     O_2   0.066894 0.700369 0.765040 -0.526308
O22   O     O_R   0.114628 0.816257 0.629124 -0.632115
H7    H     H_    0.063105 0.803756 0.521186 0.291471
C26   C     C_2   0.101471 0.276684 0.883221 0.894393
O23   O     O_2   0.098217 0.342241 0.798579 -0.493650
O24   O     O_R   0.019369 0.235163 0.898970 -0.665595
H8    H     H_    0.963232 0.264622 0.832508 0.331597
I1    I     I_    0.334531 0.774684 0.594544 -0.384579
I2    I     I_    0.251012 0.277368 0.529348 -0.403095
C27   C     C_2   0.884144 0.752067 0.247975 0.818697
O25   O     O_2   0.896657 0.782929 0.093668 -0.520053
O26   O     O_R   0.945581 0.693697 0.334811 -0.643433
H9    H     H_    0.998607 0.682743 0.257248 0.312122
C28   C     C_2   0.920038 0.274198 0.342861 0.860437
O27   O     O_2   0.912311 0.322401 0.207903 -0.525140
O28   O     O_R   0.005643 0.239118 0.404601 -0.646534
H10   H     H_    0.054313 0.256796 0.322305 0.318596
C29   C     C_2   0.726420 0.857383 0.587094 0.866993
O29   O     O_2   0.738463 0.890080 0.748012 -0.504792
O30   O     O_R   0.636523 0.845110 0.496275 -0.646291
H11   H     H_    0.588301 0.863441 0.580346 0.321725
C30   C     C_2   0.747956 0.168830 0.642398 0.794777
O31   O     O_2   0.708497 0.102553 0.634040 -0.545425
O32   O     O_R   0.724131 0.229967 0.770373 -0.650428
H12   H     H_    0.672150 0.212662 0.844533 0.298105
C31   C     C_2   0.668833 0.733237 0.088575 0.864018
O33   O     O_2   0.711473 0.736738 0.948591 -0.545502
O34   O     O_R   0.572805 0.739347 0.062001 -0.642975
H13   H     H_    0.546746 0.745176 0.920201 0.294388
C32   C     C_2   0.815722 0.405990 0.553767 0.856298
O35   O     O_2   0.892626 0.405048 0.646161 -0.510644
O36   O     O_R   0.767881 0.480212 0.531638 -0.675619
H14   H     H_    0.803797 0.527840 0.599149 0.308353

loop_
_geom_bond_atom_site_label_1
_geom_bond_atom_site_label_2
_ccdc_geom_bond_type
C25   O21   D    
O1    C2    A    
C29   O29   D    
O2    C1    A    
O4    C2    A    
C31   O33   D    
C30   O31   D    
V3    O20   S    
C5    C7    D    
H4    C10   S    
O3    C1    A    
O14   C22   A    
C11   C25   S    
O15   C24   A    
C15   C29   S    
V2    O10   S    
C13   C17   S    
C16   C21   S    
C28   O28   S    
C16   C30   S    
O8    V2    S    
O34   H13   S    
C5    I1    S    
C27   O26   S    
C15   C22   S    
O19   C24   A    
O1    V2    S    
O15   V3    S    
O17   V4    S    
C32   O36   S    
C7    C11   S    
C26   O23   D    
C8    C12   S    
C29   O30   S    
C28   O27   D    
C31   O34   S    
C30   O32   S    
O12   C21   A    
C26   O24   S    
O19   V4    S    
C14   C18   S    
O26   H9    S    
O18   C23   A    
V4    O20   S    
H1    C7    S    
C18   C32   S    
C6    I2    S    
O30   H11   S    
C9    C23   S    
C10   C24   S    
O17   V3    S    
O9    V2    S    
O14   V3    S    
O2    V2    S    
O5    C4    A    
O11   C22   A    
C13   C27   S    
O16   C23   A    
C6    C8    D    
O12   V4    S    
C25   O22   S    
O4    V1    S    
C14   C28   S    
O7    V1    S    
C12   C26   S    
C3    C6    S    
C19   H5    S    
H2    C8    S    
C1    C19   S    
C4    C5    S    
O9    C4    A    
C32   O35   D    
O6    V1    S    
C2    C20   S    
C9    C11   D    
C10   C12   D    
C20   H6    S    
O7    V2    S    
O28   H10   S    
C13   C15   D    
O3    V1    S    
V1    O10   S    
O6    C3    A    
C14   C16   D    
O8    C3    A    
O22   H7    S    
O11   V4    S    
O18   V4    S    
C17   C19   D    
O13   V3    S    
C18   C20   D    
H3    C9    S    
O24   H8    S    
O32   H12   S    
O5    V1    S    
O36   H14   S    
C27   O25   D    
O13   C21   A    
C17   C31   S    
O16   V3    S    
