data_mof_unit_4953.cif
_audit_creation_date              2012-12-11T15:10:47-0500
_audit_creation_method            fapswitch 2.2
_symmetry_space_group_name_H-M    P1
_symmetry_Int_Tables_number       1
_space_group_crystal_system       triclinic
_cell_length_a                    21.126121
_cell_length_b                    7.23722
_cell_length_c                    18.239102
_cell_angle_alpha                 89.999026
_cell_angle_beta                  93.546911
_cell_angle_gamma                 89.999595
_cell_volume                      2783.31456441

loop_
_atom_site_label
_atom_site_type_symbol
_atom_type_description
_atom_site_fract_x
_atom_site_fract_y
_atom_site_fract_z
_atom_type_partial_charge
O1    O     O_R   0.448880 0.506250 0.415280 -0.528251
O2    O     O_R   0.551120 0.006250 0.584720 -0.528262
O3    O     O_R   0.434830 0.174000 0.557310 -0.518133
O4    O     O_R   0.565170 0.674000 0.442690 -0.518126
C1    C     C_R   0.416989 0.344589 0.579658 0.683163
C2    C     C_R   0.583011 0.844590 0.420342 0.683150
O5    O     O_R   0.441680 0.176440 0.414130 -0.539416
O6    O     O_R   0.558320 0.676440 0.585870 -0.539395
O7    O     O_R   0.558020 0.007570 0.440520 -0.519457
O8    O     O_R   0.441980 0.507570 0.559480 -0.519440
C3    C     C_R   0.428215 0.344794 0.388085 0.796178
C4    C     C_R   0.571786 0.844791 0.611914 0.796200
O9    O     O_3   0.538160 0.339670 0.508820 -0.368081
O10   O     O_3   0.461840 0.839670 0.491180 -0.368080
V1    V     V_3+5 0.492920 0.064260 0.498360 1.459655
V2    V     V_3+5 0.507080 0.564260 0.501640 1.459708
C5    C     C_R   0.873401 0.026873 0.689990 0.610318
C6    C     C_R   0.126589 0.526750 0.310019 0.610291
C7    C     C_R   0.887385 0.946719 0.818863 -0.387897
C8    C     C_R   0.112615 0.446699 0.181136 -0.387903
C9    C     C_R   0.581035 0.828776 0.747322 0.308731
C10   C     C_R   0.418972 0.328884 0.252674 0.308719
C11   C     C_R   0.613912 0.862763 0.814741 0.453336
C12   C     C_R   0.386094 0.362905 0.185258 0.453384
C13   C     C_R   0.680048 0.897300 0.819534 0.346390
C14   C     C_R   0.319956 0.397400 0.180467 0.346367
C15   C     C_R   0.713809 0.895592 0.753997 0.011612
C16   C     C_R   0.286193 0.395611 0.246002 0.011610
C17   C     C_R   0.677717 0.888076 0.684939 -0.132332
C18   C     C_R   0.322283 0.388051 0.315061 -0.132325
C19   C     C_R   0.781632 0.919047 0.754311 -0.091753
C20   C     C_R   0.218367 0.419031 0.245688 -0.091740
C21   C     C_R   0.808989 0.973060 0.688026 -0.285162
C22   C     C_R   0.191005 0.472968 0.311979 -0.285181
C23   C     C_R   0.771956 0.969426 0.620947 0.539830
C24   C     C_R   0.228036 0.469291 0.379059 0.539809
C25   C     C_R   0.707805 0.923439 0.620006 -0.197357
C26   C     C_R   0.292190 0.423335 0.379997 -0.197332
C27   C     C_R   0.823920 0.887006 0.817272 0.566356
C28   C     C_R   0.176083 0.387024 0.182722 0.566352
C29   C     C_R   0.911018 0.020951 0.755399 0.461052
C30   C     C_R   0.088974 0.520862 0.244608 0.461045
C31   C     C_R   0.611482 0.852307 0.681977 -0.251908
C32   C     C_R   0.388521 0.352325 0.318021 -0.251928
H1    H     H_    0.681084 0.923533 0.567400 0.103358
H2    H     H_    0.318908 0.423390 0.432605 0.103354
C33   C     C_1   0.864526 0.938918 0.132108 -0.147038
C34   C     C_1   0.135474 0.438920 0.867891 -0.147034
C35   C     C_1   0.821698 0.924885 0.175904 0.028947
C36   C     C_1   0.178302 0.424887 0.824095 0.028945
C37   C     C_1   0.771189 0.905813 0.228103 0.025349
C38   C     C_1   0.228811 0.405813 0.771897 0.025348
C39   C     C_1   0.728664 0.889212 0.272157 0.020191
C40   C     C_1   0.271336 0.389210 0.727843 0.020203
C41   C     C_1   0.678139 0.870086 0.324319 0.012676
C42   C     C_1   0.321860 0.370084 0.675681 0.012701
C43   C     C_1   0.635294 0.855990 0.368073 -0.186103
C44   C     C_1   0.364706 0.355988 0.631926 -0.186100
O11   O     O_R   0.058070 0.289240 0.940580 -0.513767
O12   O     O_R   0.941930 0.789240 0.059420 -0.513773
O13   O     O_R   0.058330 0.616740 0.085880 -0.529770
O14   O     O_R   0.941670 0.116740 0.914120 -0.529761
C45   C     C_R   0.071886 0.449044 0.112040 0.872091
C46   C     C_R   0.928113 0.949048 0.887960 0.872075
O15   O     O_R   0.065180 0.619040 0.942700 -0.532491
O16   O     O_R   0.934820 0.119040 0.057300 -0.532487
O17   O     O_R   0.948870 0.787780 0.915270 -0.521660
O18   O     O_R   0.051130 0.287780 0.084730 -0.521672
C47   C     C_R   0.083207 0.450314 0.920214 0.718888
C48   C     C_R   0.916793 0.950313 0.079786 0.718861
O19   O     O_3   0.961870 0.453310 0.991210 -0.372814
O20   O     O_3   0.038130 0.953310 0.008790 -0.372822
V3    V     V_3+5 0.007070 0.728770 0.001630 1.563929
V4    V     V_3+5 0.992930 0.228770 0.998370 1.563946
F1    F     F_    0.971950 0.081253 0.756094 -0.626790
F2    F     F_    0.028038 0.581126 0.243918 -0.626793
O21   O     O_3   0.797645 0.018927 0.555766 -0.517904
C49   C     C_3   0.807985 0.857618 0.514742 -0.064148
H3    H     H_    0.762435 0.791303 0.495549 0.082199
H4    H     H_    0.838725 0.757327 0.546682 0.152387
H5    H     H_    0.832908 0.896670 0.465257 0.184087
O22   O     O_3   0.202344 0.518711 0.444246 -0.517914
C50   C     C_3   0.191987 0.357345 0.485230 -0.064119
H6    H     H_    0.237530 0.290946 0.504397 0.082199
H7    H     H_    0.161229 0.257144 0.453269 0.152416
H8    H     H_    0.167077 0.396341 0.534730 0.184081
F3    F     F_    0.900317 0.089772 0.629045 -0.575912
F4    F     F_    0.099669 0.589584 0.370970 -0.575924
F5    F     F_    0.806287 0.783373 0.874397 -0.681454
F6    F     F_    0.193725 0.283454 0.125584 -0.681463
O23   O     O_3   0.516204 0.799846 0.744855 -0.530172
C51   C     C_3   0.505104 0.611449 0.759046 -0.109877
H9    H     H_    0.527029 0.520793 0.718290 0.102890
H10   H     H_    0.453210 0.586391 0.754159 0.151067
H11   H     H_    0.522531 0.572876 0.815807 0.174823
O24   O     O_3   0.483806 0.300011 0.255136 -0.530158
C52   C     C_3   0.494924 0.111614 0.240969 -0.109873
H12   H     H_    0.473059 0.020982 0.281780 0.102926
H13   H     H_    0.546823 0.086627 0.245787 0.151110
H14   H     H_    0.477444 0.072935 0.184238 0.174707
O25   O     O_3   0.709158 0.972679 0.883344 -0.530473
C53   C     C_3   0.696553 0.869887 0.946852 0.059273
H15   H     H_    0.688113 0.720168 0.935605 0.133770
H16   H     H_    0.656207 0.931818 0.974316 0.168096
H17   H     H_    0.738475 0.879698 0.986432 0.133597
O26   O     O_3   0.290843 0.472816 0.116664 -0.530467
C54   C     C_3   0.303457 0.370083 0.053146 0.059279
H18   H     H_    0.311906 0.220360 0.064377 0.133766
H19   H     H_    0.343799 0.432059 0.025689 0.168092
H20   H     H_    0.261535 0.379902 0.013565 0.133599
F7    F     F_    0.579427 0.875255 0.874901 -0.664159
F8    F     F_    0.420580 0.375466 0.125101 -0.664128

loop_
_geom_bond_atom_site_label_1
_geom_bond_atom_site_label_2
_ccdc_geom_bond_type
O25   C53   S    
C15   C17   A    
C12   F8    S    
C34   C47   S    
O2    C4    A    
C14   O26   S    
C2    O7    A    
C52   H12   S    
C33   C35   T    
O21   C49   S    
O5    C3    A    
C1    C44   S    
C23   C25   A    
C12   C14   A    
C4    C31   S    
C6    C30   A    
C8    C28   A    
C49   H4    S    
O26   C54   S    
O18   V4    S    
O16   V4    S    
O12   V3    S    
O15   V3    S    
C18   C26   A    
C53   H17   S    
O13   C45   A    
O14   C46   A    
C9    C31   A    
C10   C32   A    
C24   O22   S    
C35   C37   S    
O1    C3    A    
C36   C38   S    
C54   H18   S    
C19   C21   A    
O17   V3    S    
C42   C44   T    
C34   C36   T    
O6    V2    S    
C17   C31   A    
C54   H19   S    
C2    C43   S    
C18   C32   A    
C5    C21   A    
C14   C16   A    
C52   H13   S    
C38   C40   T    
C39   C41   S    
C40   C42   S    
C15   C19   A    
C46   O17   A    
C16   C20   A    
O4    C2    A    
O23   C51   S    
C49   H3    S    
O13   V3    S    
C23   O21   S    
C51   H11   S    
C6    F4    S    
C37   C39   T    
C20   C22   A    
O4    V2    S    
C33   C48   S    
C29   F1    S    
C50   H6    S    
O12   C48   A    
C7    C46   S    
O6    C4    A    
O24   C52   S    
C50   H8    S    
C51   H10   S    
C3    C32   S    
O1    V2    S    
C53   H16   S    
O2    V1    S    
C6    C22   A    
O11   V4    S    
C7    C27   A    
O11   C47   A    
C50   H7    S    
C41   C43   T    
C54   H20   S    
C10   C12   A    
C25   H1    S    
C24   C26   A    
C52   H14   S    
O3    V1    S    
C9    O23   S    
C45   O18   A    
C5    F3    S    
C10   O24   S    
O20   V3    S    
O3    C1    A    
O19   V4    S    
C8    C30   A    
C13   C15   A    
C11   F7    S    
C30   F2    S    
C8    C45   S    
C9    C11   A    
O7    V1    S    
C16   C18   A    
O8    V2    S    
C49   H5    S    
C13   O25   S    
O16   C48   A    
O15   C47   A    
O5    V1    S    
C51   H9    S    
C21   C23   A    
C19   C27   A    
C22   C24   A    
C20   C28   A    
C53   H15   S    
C5    C29   A    
C26   H2    S    
C1    O8    A    
C11   C13   A    
O22   C50   S    
O9    V2    S    
C17   C25   A    
O10   V1    S    
O14   V4    S    
C28   F6    S    
C27   F5    S    
C7    C29   A    
