data_mof_unit_528.cif
_audit_creation_date              2013-03-05T15:58:37-0500
_audit_creation_method            fapswitch 2.2
_symmetry_space_group_name_H-M    P1
_symmetry_Int_Tables_number       1
_space_group_crystal_system       triclinic
_cell_length_a                    12.669142
_cell_length_b                    13.143959
_cell_length_c                    14.167003
_cell_angle_alpha                 90.546102
_cell_angle_beta                  102.594662
_cell_angle_gamma                 83.045381
_cell_volume                      2285.07333238

loop_
_atom_site_label
_atom_site_type_symbol
_atom_site_description
_atom_site_fract_x
_atom_site_fract_y
_atom_site_fract_z
_atom_type_partial_charge
O1    O     O_R   0.366740 0.627160 0.478260 -0.611684
O2    O     O_R   0.544830 0.662520 0.507340 -0.622999
C1    C     C_R   0.439449 0.690696 0.482014 0.861973
O3    O     O_R   0.410930 0.482320 0.611740 -0.592665
O4    O     O_R   0.589030 0.517680 0.640820 -0.582582
C2    C     C_R   0.501542 0.500347 0.670700 0.900859
Zn1   Zn    Zn3+2 0.381090 0.476390 0.480580 0.919663
Zn2   Zn    Zn3+2 0.618910 0.523610 0.519420 0.953093
O5    O     O_R   0.455170 0.337480 0.492660 -0.636359
O6    O     O_R   0.633260 0.372840 0.521740 -0.574220
O7    O     O_R   0.410970 0.482320 0.359180 -0.614680
O8    O     O_R   0.589070 0.517680 0.388260 -0.627227
C3    C     C_R   0.560841 0.308212 0.511228 0.887066
C4    C     C_R   0.498473 0.499599 0.329311 0.858878
C5    C     C_1   0.504268 0.500805 0.772868 -0.195200
C6    C     C_1   0.503734 0.500606 0.858096 -0.002315
C7    C     C_1   0.501181 0.499995 0.957625 0.010134
C8    C     C_1   0.498566 0.499427 0.042408 0.008248
C9    C     C_1   0.496145 0.498962 0.141952 -0.019115
C10   C     C_1   0.495752 0.498957 0.227190 -0.225258
C11   C     C_R   0.721910 0.054301 0.476039 -0.274753
H1    H     H_    0.734000 0.864070 0.408629 0.147593
H2    H     H_    0.803927 0.020528 0.475089 0.174882
C12   C     C_R   0.595993 0.197883 0.507547 -0.176715
C13   C     C_R   0.292368 0.836828 0.454611 -0.228327
C14   C     C_R   0.257560 0.941697 0.442591 0.156543
C15   C     C_R   0.334427 0.009153 0.441104 -0.230673
C16   C     C_R   0.445057 0.971698 0.445263 0.075781
C17   C     C_R   0.473401 0.865748 0.437106 0.081660
C18   C     C_R   0.529555 0.035116 0.460229 0.094099
C19   C     C_R   0.635700 0.994985 0.451307 0.114754
C20   C     C_R   0.655031 0.894570 0.421443 -0.230589
C21   C     C_R   0.574135 0.830708 0.413151 -0.188197
C22   C     C_R   0.512801 0.135208 0.490830 -0.313977
C23   C     C_R   0.704171 0.154975 0.507600 0.310469
C24   C     C_R   0.401019 0.798556 0.455454 -0.149215
H3    H     H_    0.434459 0.165805 0.503549 0.182543
H4    H     H_    0.234459 0.785476 0.463888 0.159738
H5    H     H_    0.305331 0.089938 0.433272 0.124471
H6    H     H_    0.591871 0.753788 0.388412 0.177199
C25   C     C_R   0.085526 0.345198 0.371941 -0.300615
H7    H     H_    0.881658 0.313328 0.346364 0.154578
H8    H     H_    0.060288 0.287105 0.319632 0.152681
N1    N     N_R   0.222200 0.444680 0.454480 -0.113802
C26   C     C_R   0.798168 0.632203 0.607940 0.032487
C27   C     C_R   0.902354 0.660959 0.633898 -0.250576
C28   C     C_R   0.985233 0.609352 0.595287 -0.188849
C29   C     C_R   0.963429 0.528689 0.530063 0.026630
C30   C     C_R   0.855272 0.502990 0.505545 0.233155
C31   C     C_R   0.043282 0.474004 0.486685 -0.013173
C32   C     C_R   0.011902 0.396290 0.419939 0.142942
C33   C     C_R   0.905650 0.372483 0.397771 -0.196966
C34   C     C_R   0.828411 0.425198 0.440273 -0.127623
C35   C     C_R   0.152676 0.494012 0.504862 -0.081776
C36   C     C_R   0.189157 0.373860 0.385126 0.292003
N2    N     N_R   0.776970 0.554780 0.545050 -0.126372
H9    H     H_    0.184243 0.549310 0.556670 0.135672
H10   H     H_    0.733530 0.671549 0.638280 0.144256
H11   H     H_    0.064687 0.634497 0.617213 0.138036
H12   H     H_    0.918831 0.722862 0.683839 0.156983
H13   H     H_    0.747938 0.403918 0.420006 0.198316
N3    N     N_R   0.796666 0.208323 0.545107 0.205939
O9    O     O_R   0.801345 0.258394 0.625312 -0.369214
O10   O     O_R   0.886043 0.185993 0.514180 -0.435959
C37   C     C_3   0.139126 0.981467 0.434421 -0.404322
C38   C     C_3   0.073223 0.963994 0.332450 -0.354908
C39   C     C_3   0.952336 0.999840 0.323479 -0.846172
H14   H     H_    0.919060 0.953384 0.372577 0.253358
H15   H     H_    0.939681 0.082241 0.341702 0.280957
H16   H     H_    0.907513 0.989667 0.248035 0.245998
H17   H     H_    0.103724 0.007038 0.278726 0.223545
H18   H     H_    0.083129 0.881061 0.315332 0.225438
H19   H     H_    0.106889 0.941878 0.489226 0.207823
H20   H     H_    0.129818 0.064894 0.449778 0.217768
C40   C     C_3   0.256827 0.328751 0.315460 -0.399638
C41   C     C_3   0.233746 0.391810 0.220515 -0.322920
C42   C     C_3   0.126067 0.374831 0.152506 -0.859699
H21   H     H_    0.121436 0.291757 0.140235 0.259157
H22   H     H_    0.056020 0.408549 0.182532 0.262747
H23   H     H_    0.120171 0.413207 0.081740 0.253997
H24   H     H_    0.233095 0.474917 0.235859 0.240502
H25   H     H_    0.300549 0.368874 0.182269 0.215079
H26   H     H_    0.344091 0.320830 0.346932 0.225904
H27   H     H_    0.240775 0.248378 0.298901 0.163739

loop_
_geom_bond_atom_site_label_1
_geom_bond_atom_site_label_2
_geom_bond_distance
_ccdc_geom_bond_type
C22   H3    1.076693 S    
C9    C10   1.208667 T    
Zn2   N2    2.046554 S    
C26   C27   1.388110 A    
Zn1   O7    1.844176 S    
C11   C19   1.399163 A    
C17   C24   1.411714 A    
C14   C15   1.397610 A    
C31   C35   1.409822 A    
H1    C20   1.084120 S    
C16   C17   1.405554 A    
C18   C19   1.415513 A    
O7    C4    1.314151 A    
C40   H27   1.113055 S    
C5    C6    1.208949 T    
C17   C21   1.414062 A    
C37   H19   1.112593 S    
C8    C9    1.417329 S    
O5    C3    1.316472 A    
C25   C36   1.382765 A    
N3    O10   1.301422 A    
C2    C5    1.440250 S    
C34   H13   1.067683 S    
C38   H18   1.112625 S    
C19   C20   1.391846 A    
C26   N2    1.358712 A    
C15   H5    1.079495 S    
C6    C7    1.417557 S    
C36   C40   1.515061 S    
C29   C31   1.415759 A    
C38   C39   1.524873 S    
C25   H8    1.086038 S    
O3    Zn1   1.816512 S    
C31   C32   1.418306 A    
C42   H22   1.109364 S    
C26   H10   1.081446 S    
C21   H6    1.080776 S    
C18   C22   1.387601 A    
C39   H14   1.110280 S    
C12   C23   1.417322 A    
C28   C29   1.412501 A    
C4    C10   1.439597 S    
C41   C42   1.528257 S    
O3    C2    1.309815 A    
C41   H25   1.111688 S    
C13   C14   1.395695 A    
C42   H21   1.110596 S    
C12   C22   1.394011 A    
C37   H20   1.113120 S    
C32   C33   1.387205 A    
C3    C12   1.468437 S    
C39   H15   1.111798 S    
C40   C41   1.540374 S    
N3    O9    1.301374 A    
C13   H4    1.083863 S    
C38   H17   1.112708 S    
Zn2   O8    1.816513 S    
C7    C8    1.208887 T    
Zn1   N1    2.058699 S    
C29   C30   1.419384 A    
O8    C4    1.309800 A    
C11   H2    1.082222 S    
C33   C34   1.372959 A    
C42   H23   1.110394 S    
Zn1   O5    1.940287 S    
C27   C28   1.390233 A    
C27   H12   1.082545 S    
O1    Zn1   1.967921 S    
C14   C37   1.507815 S    
O2    Zn2   1.940285 S    
O6    C3    1.308547 A    
C41   H24   1.111143 S    
O4    Zn2   1.844172 S    
C11   C23   1.400700 A    
C30   N2    1.353529 A    
C39   H16   1.110716 S    
C20   C21   1.386626 A    
C16   C18   1.414055 A    
O2    C1    1.312336 A    
N1    C36   1.380102 A    
C40   H26   1.090839 S    
O4    C2    1.314251 A    
C1    C24   1.466849 S    
C30   C34   1.394785 A    
C23   N3    1.437900 S    
C13   C24   1.404724 A    
C28   H11   1.077615 S    
N1    C35   1.353801 A    
Zn2   O6    1.967921 S    
C37   C38   1.533262 S    
C15   C16   1.416942 A    
O1    C1    1.308768 A    
C25   C32   1.378257 A    
H7    C33   1.085012 S    
C35   H9    1.076641 S    
