data_mof_unit_2671.cif
_audit_creation_date              2012-12-10T19:13:33-0500
_audit_creation_method            fapswitch 2.2
_symmetry_space_group_name_H-M    P1
_symmetry_Int_Tables_number       1
_space_group_crystal_system       triclinic
_cell_length_a                    9.705593
_cell_length_b                    10.633549
_cell_length_c                    16.608162
_cell_angle_alpha                 90.288711
_cell_angle_beta                  85.48611
_cell_angle_gamma                 90.297948
_cell_volume                      1708.68567024

loop_
_atom_site_label
_atom_site_type_symbol
_atom_type_description
_atom_site_fract_x
_atom_site_fract_y
_atom_site_fract_z
_atom_type_partial_charge
C1    C     C_R   0.500005 0.742504 0.499748 0.847869
C2    C     C_R   0.345776 0.459556 0.784669 -0.215400
C3    C     C_R   0.416234 0.430022 0.138278 -0.145599
C4    C     C_R   0.411001 0.472885 0.217349 -0.235788
C5    C     C_R   0.655034 0.427183 0.221813 -0.205191
C6    C     C_R   0.660157 0.383907 0.142572 -0.184579
C7    C     C_R   0.540370 0.382570 0.100925 0.207892
C8    C     C_2   0.442065 0.314531 0.975815 -0.249807
C9    C     C_2   0.551991 0.347168 0.015447 -0.233610
C10   C     C_R   0.529766 0.470173 0.259946 -0.037738
C11   C     C_3   0.349413 0.927841 0.496211 -0.404163
C12   C     C_R   0.481185 0.492691 0.653370 0.859894
C13   C     C_3   0.349710 0.070475 0.494501 -0.356956
C14   C     C_3   0.558622 0.928852 0.577573 -0.402671
C15   C     C_3   0.589116 0.927660 0.424742 -0.401715
C16   C     C_3   0.499434 0.878825 0.499545 0.176632
C17   C     C_3   0.499060 0.121202 0.499416 0.156785
C18   C     C_3   0.556498 0.073249 0.578059 -0.398675
C19   C     C_3   0.590525 0.072067 0.425282 -0.398003
C20   C     C_3   0.916097 0.628331 0.517870 -0.242137
C21   C     C_3   0.079047 0.630876 0.515001 -0.285340
C22   C     C_3   0.911133 0.415293 0.563935 -0.226526
C23   C     C_R   0.499683 0.257501 0.499595 0.836440
C24   C     C_3   0.927137 0.459711 0.422460 -0.220724
C25   C     C_3   0.072852 0.422855 0.566794 -0.207200
C26   C     C_3   0.089917 0.457276 0.422378 0.004575
C27   C     C_R   0.518831 0.496885 0.346252 0.857904
C28   C     C_R   0.469914 0.447587 0.736172 -0.030733
C29   C     C_R   0.577952 0.375594 0.762930 -0.222563
C30   C     C_R   0.564618 0.321012 0.838675 -0.165901
C31   C     C_R   0.444335 0.340477 0.889453 0.209043
C32   C     C_R   0.333228 0.406274 0.861271 -0.172984
H1    H     H_    0.672136 0.359688 0.724905 0.140916
H2    H     H_    0.757493 0.350937 0.113808 0.122233
H3    H     H_    0.283127 0.895188 0.549957 0.171244
H4    H     H_    0.303333 0.891275 0.441303 0.174207
H5    H     H_    0.308727 0.101965 0.437314 0.210405
H6    H     H_    0.280028 0.106463 0.545912 0.184407
H7    H     H_    0.496246 0.892705 0.631768 0.153388
H8    H     H_    0.490959 0.107547 0.631660 0.160217
H9    H     H_    0.697020 0.892738 0.425091 0.175627
H10   H     H_    0.546914 0.892672 0.368320 0.156819
H11   H     H_    0.551538 0.107653 0.368406 0.155825
H12   H     H_    0.313552 0.506746 0.245383 0.136023
H13   H     H_    0.698840 0.106199 0.427444 0.192529
H14   H     H_    0.666703 0.895902 0.581041 0.172277
H15   H     H_    0.663190 0.109659 0.583395 0.173958
H16   H     H_    0.872050 0.662156 0.577931 0.149620
H17   H     H_    0.881562 0.695727 0.472674 0.152635
H18   H     H_    0.120303 0.695406 0.466280 0.150692
H19   H     H_    0.112477 0.670696 0.572446 0.153386
H20   H     H_    0.861096 0.440455 0.624283 0.136557
H21   H     H_    0.097416 0.460907 0.626568 0.130877
H22   H     H_    0.883433 0.367048 0.405928 0.181402
H23   H     H_    0.748006 0.423566 0.253767 0.142991
H24   H     H_    0.898029 0.525451 0.374777 0.118466
H25   H     H_    0.131618 0.521732 0.373662 0.062739
H26   H     H_    0.879679 0.316721 0.551677 0.170081
H27   H     H_    0.117759 0.327026 0.563542 0.183438
H28   H     H_    0.651004 0.366243 0.982469 0.148370
H29   H     H_    0.239811 0.422064 0.900080 0.119265
H30   H     H_    0.323628 0.437269 0.106450 0.120591
H31   H     H_    0.259725 0.511418 0.763826 0.137695
H32   H     H_    0.342686 0.295950 0.008336 0.143714
H33   H     H_    0.650096 0.267463 0.858679 0.124971
N1    N     N_3   0.861190 0.500250 0.501720 -0.045636
N2    N     N_3   0.138550 0.503270 0.501080 -0.058265
O1    O     O_R   0.383960 0.685090 0.500020 -0.631887
O2    O     O_R   0.616040 0.685320 0.499960 -0.630237
O3    O     O_R   0.370240 0.499890 0.615830 -0.622460
O4    O     O_R   0.602330 0.500120 0.615770 -0.622226
O5    O     O_R   0.383960 0.314680 0.500040 -0.631121
O6    O     O_R   0.616040 0.314910 0.499980 -0.629662
O7    O     O_R   0.397670 0.499880 0.384230 -0.644830
O8    O     O_R   0.629760 0.500110 0.384170 -0.623530
Zn1   Zn    Zn3+2 0.345040 0.499850 0.500040 0.905393
Zn2   Zn    Zn3+2 0.654960 0.500150 0.499960 0.900969
C33   C     C_2   0.145867 0.328513 0.398749 0.369107
H34   H     H_    0.238278 0.319886 0.358044 0.086591
O9    O     O_2   0.088457 0.232826 0.424681 -0.642799

loop_
_geom_bond_atom_site_label_1
_geom_bond_atom_site_label_2
_ccdc_geom_bond_type
C10   C27   S    
C14   C18   S    
O2    Zn2   S    
C25   N2    S    
O4    Zn2   S    
O5    Zn1   S    
C18   H15   S    
C14   H14   S    
C15   C19   S    
C26   C33   S    
O7    Zn1   S    
C12   C28   S    
C26   N2    S    
C20   N1    S    
C28   C29   A    
C24   C26   S    
C32   H29   S    
C3    C7    A    
C5    C6    A    
C33   O9    D    
C24   H22   S    
C15   C16   S    
C29   H1    S    
C1    O1    A    
C2    C32   A    
C18   H8    S    
C22   N1    S    
C14   H7    S    
C8    C9    D    
C22   C25   S    
C27   O7    A    
C13   H5    S    
C24   N1    S    
C21   N2    S    
C23   O6    A    
C27   O8    A    
C21   H18   S    
C19   H11   S    
C15   H9    S    
C33   H34   S    
C4    H12   S    
C1    O2    A    
C6    H2    S    
C29   C30   A    
C20   H17   S    
C11   C16   S    
C31   C32   A    
C17   C18   S    
C1    C16   S    
C17   C23   S    
O8    Zn2   S    
C13   H6    S    
C20   H16   S    
C8    H32   S    
C12   O4    A    
O3    Zn1   S    
C14   C16   S    
O1    Zn1   S    
C4    C10   A    
C3    C4    A    
C21   H19   S    
C2    H31   S    
C22   H20   S    
C3    H30   S    
C7    C9    S    
N1    Zn2   S    
C12   O3    A    
C11   H4    S    
C8    C31   S    
C23   O5    A    
C5    H23   S    
C15   H10   S    
C25   H21   S    
C22   H26   S    
C19   H13   S    
C6    C7    A    
C24   H24   S    
C13   C17   S    
C9    H28   S    
C11   H3    S    
C5    C10   A    
C11   C13   S    
C30   C31   A    
C17   C19   S    
C26   H25   S    
C30   H33   S    
C20   C21   S    
O6    Zn2   S    
C2    C28   A    
N2    Zn1   S    
C25   H27   S    
