data_mof_unit_3138.cif
_audit_creation_date              2013-03-05T16:22:47-0500
_audit_creation_method            fapswitch 2.2
_symmetry_space_group_name_H-M    P1
_symmetry_Int_Tables_number       1
_space_group_crystal_system       triclinic
_cell_length_a                    19.142157
_cell_length_b                    10.503482
_cell_length_c                    9.78545
_cell_angle_alpha                 89.742249
_cell_angle_beta                  89.302448
_cell_angle_gamma                 90.08214
_cell_volume                      1967.28784903

loop_
_atom_site_label
_atom_site_type_symbol
_atom_site_description
_atom_site_fract_x
_atom_site_fract_y
_atom_site_fract_z
_atom_type_partial_charge
O1    O     O_R   0.500000 0.313960 0.616610 -0.620935
O2    O     O_R   0.500000 0.686040 0.383390 -0.595824
O3    O     O_R   0.500030 0.313950 0.383350 -0.592273
O4    O     O_R   0.499970 0.686050 0.616650 -0.587453
C1    C     C_R   0.501748 0.257953 0.500206 0.963233
C2    C     C_R   0.499501 0.742280 0.499656 1.019609
O5    O     O_R   0.398120 0.499990 0.616660 -0.580836
O6    O     O_R   0.601880 0.500010 0.383340 -0.577748
O7    O     O_R   0.398150 0.499980 0.383410 -0.585475
O8    O     O_R   0.601850 0.500020 0.616590 -0.589917
C3    C     C_R   0.365756 0.502956 0.500533 0.960432
C4    C     C_R   0.634223 0.501369 0.499375 0.902338
Zn1   Zn    Zn3+2 0.499980 0.500010 0.655740 1.048368
Zn2   Zn    Zn3+2 0.500020 0.499990 0.344260 1.050154
C5    C     C_R   0.252072 0.442591 0.598927 -0.237248
C6    C     C_R   0.743882 0.431148 0.395061 -0.241590
H1    H     H_    0.279298 0.384588 0.672456 0.261009
H2    H     H_    0.713589 0.371059 0.328120 0.214179
C7    C     C_R   0.179279 0.446416 0.602658 0.312850
C8    C     C_R   0.816167 0.437147 0.377894 0.340388
C9    C     C_R   0.144697 0.518858 0.502493 -0.106146
C10   C     C_R   0.854391 0.517559 0.464543 -0.104456
C11   C     C_R   0.182441 0.589892 0.405772 -0.236494
C12   C     C_R   0.820478 0.590961 0.564038 -0.249462
H3    H     H_    0.155049 0.646508 0.330610 0.210923
H4    H     H_    0.850512 0.650670 0.631859 0.209194
C13   C     C_R   0.255038 0.589042 0.404662 0.329068
C14   C     C_R   0.748559 0.583005 0.582668 0.328642
C15   C     C_R   0.290031 0.512694 0.501263 -0.217118
C16   C     C_R   0.709966 0.503316 0.495927 -0.198991
N1    N     N_R   0.034293 0.629444 0.479878 -0.141350
N2    N     N_R   0.965150 0.406215 0.474993 -0.101114
N3    N     N_R   0.965347 0.629179 0.468014 -0.139238
N4    N     N_R   0.034089 0.406486 0.487554 -0.100880
C17   C     C_R   0.929940 0.517561 0.464668 0.386306
C18   C     C_R   0.069426 0.518179 0.491419 0.384877
C19   C     C_3   0.541559 0.040003 0.606861 -0.479506
C20   C     C_3   0.460962 0.960813 0.392289 -0.450585
C21   C     C_3   0.566199 0.957549 0.485339 0.406248
C22   C     C_3   0.436241 0.043230 0.513675 0.408496
H5    H     H_    0.573840 0.076923 0.691490 0.178522
H6    H     H_    0.429496 0.926077 0.305637 0.215401
C23   C     C_3   0.499529 0.877260 0.498364 -0.205296
C24   C     C_3   0.502884 0.123286 0.500888 -0.208071
C25   C     C_3   0.473994 0.959978 0.617849 0.437592
C26   C     C_3   0.528333 0.040902 0.381388 0.401527
C27   C     C_3   0.487841 0.386467 0.049916 -0.226233
C28   C     C_3   0.512370 0.613609 0.950181 -0.196265
C29   C     C_3   0.547706 0.423712 0.950056 -0.169279
C30   C     C_3   0.452400 0.576364 0.050009 -0.193218
H7    H     H_    0.588313 0.361830 0.903187 0.175574
H8    H     H_    0.411897 0.638477 0.096727 0.219100
H9    H     H_    0.476230 0.291895 0.096068 0.194118
H10   H     H_    0.524092 0.708126 0.904016 0.199979
N5    N     N_3   0.499950 0.500030 0.863290 -0.128529
N6    N     N_3   0.500050 0.499970 0.136710 -0.137404
C31   C     C_3   0.441580 0.463662 0.955273 0.420186
C32   C     C_3   0.558568 0.536330 0.045090 0.427669
N7    N     N_R   0.375404 0.419682 0.901781 0.216660
O9    O     O_R   0.318402 0.483263 0.926196 -0.336830
O10   O     O_R   0.372264 0.310760 0.839724 -0.426325
N8    N     N_R   0.624977 0.578060 0.100169 0.240882
O11   O     O_R   0.680872 0.509696 0.082017 -0.330739
O12   O     O_R   0.628668 0.684117 0.167599 -0.394871
N9    N     N_R   0.141860 0.380501 0.710364 0.231782
O13   O     O_R   0.085194 0.429018 0.763182 -0.322242
O14   O     O_R   0.169505 0.281815 0.769521 -0.348014
N10   N     N_R   0.849195 0.364702 0.270493 0.229581
O15   O     O_R   0.903443 0.409777 0.204843 -0.317832
O16   O     O_R   0.820139 0.260704 0.226564 -0.372040
N11   N     N_R   0.291914 0.668604 0.307997 0.204655
O17   O     O_R   0.344413 0.737342 0.347329 -0.487193
O18   O     O_R   0.266644 0.687890 0.186794 -0.354375
N12   N     N_R   0.716124 0.656600 0.689003 0.225556
O19   O     O_R   0.687814 0.598533 0.793442 -0.327531
O20   O     O_R   0.731172 0.776879 0.699924 -0.384331
O21   O     O_3   0.632468 0.901654 0.465402 -0.590718
C33   C     C_3   0.684645 0.996470 0.472372 0.113850
H11   H     H_    0.696464 0.016568 0.581135 0.184455
H12   H     H_    0.669323 0.087132 0.421226 0.148434
C34   C     C_3   0.750625 0.948843 0.401174 -0.641034
H13   H     H_    0.740195 0.931963 0.291314 0.260252
H14   H     H_    0.792728 0.021110 0.409717 0.226434
H15   H     H_    0.768387 0.858541 0.448609 0.270739
O22   O     O_3   0.370501 0.101350 0.532727 -0.618495
C35   C     C_3   0.317391 0.009996 0.515474 0.095076
H16   H     H_    0.327896 0.920759 0.573814 0.186295
H17   H     H_    0.311909 0.987485 0.405170 0.198741
C36   C     C_3   0.248596 0.064410 0.567495 -0.684129
H18   H     H_    0.236016 0.153339 0.511116 0.259373
H19   H     H_    0.205980 0.994239 0.552254 0.223660
H20   H     H_    0.252461 0.085654 0.678213 0.283971
O23   O     O_3   0.444151 0.904243 0.736444 -0.607583
C37   C     C_3   0.429357 0.999634 0.833182 0.106900
H21   H     H_    0.393405 0.072175 0.790665 0.228924
H22   H     H_    0.478231 0.046530 0.867037 0.146091
C38   C     C_3   0.393618 0.939505 0.957259 -0.737159
H23   H     H_    0.427392 0.864476 0.001362 0.233603
H24   H     H_    0.383524 0.013235 0.036050 0.223033
H25   H     H_    0.343153 0.896147 0.927255 0.283767
O24   O     O_3   0.558017 0.096365 0.262475 -0.610109
C39   C     C_3   0.571477 0.000925 0.165012 0.123149
H26   H     H_    0.521923 0.957251 0.130292 0.143204
H27   H     H_    0.605960 0.925767 0.207049 0.224976
C40   C     C_3   0.608467 0.059922 0.041765 -0.779579
H28   H     H_    0.659277 0.101229 0.072833 0.282722
H29   H     H_    0.618056 0.985968 0.962976 0.237610
H30   H     H_    0.575708 0.136253 0.997248 0.229703

loop_
_geom_bond_atom_site_label_1
_geom_bond_atom_site_label_2
_geom_bond_distance
_ccdc_geom_bond_type
C32   N8    1.454594 S    
C28   N5    1.488593 S    
Zn2   N6    2.030963 S    
O24   C39   1.408636 S    
C13   C15   1.412613 A    
C25   O23   1.411599 S    
C34   H15   1.109720 S    
C38   H23   1.109264 S    
C27   C29   1.545681 S    
C9    C18   1.446241 S    
O21   C33   1.411891 S    
C28   H10   1.110344 S    
C10   C17   1.446196 S    
C40   H29   1.110780 S    
O23   C37   1.408180 S    
N12   O20   1.300527 A    
O1    C1    1.284448 A    
C21   O21   1.410328 S    
C7    C9    1.410103 A    
C12   H4    1.084573 S    
C20   H6    1.108824 S    
C35   H17   1.112182 S    
C31   N7    1.452129 S    
C6    C16   1.401011 A    
C39   C40   1.520227 S    
O4    Zn1   1.989467 S    
N8    O12   1.299544 A    
C38   H24   1.110708 S    
C5    C7    1.394106 A    
N10   O15   1.301830 A    
N9    O14   1.301239 A    
C30   H8    1.109600 S    
N1    N3    1.326277 A    
C11   C13   1.389600 A    
C36   H19   1.110476 S    
C6    C8    1.393125 A    
C27   H9    1.110389 S    
C28   C30   1.546960 S    
C14   N12   1.434783 S    
N7    O9    1.300328 A    
O2    C2    1.284222 A    
C26   O24   1.411766 S    
C24   C26   1.532957 S    
C5    C15   1.399529 A    
C22   C25   1.528978 S    
C40   H30   1.109386 S    
N7    O10   1.299303 A    
N12   O19   1.300032 A    
N2    C17   1.354652 A    
O4    C2    1.285982 A    
N11   O18   1.301446 A    
C33   H11   1.111853 S    
C21   C23   1.532358 S    
C37   C38   1.520756 S    
C29   H7    1.110162 S    
O22   C35   1.409117 S    
C35   C36   1.519349 S    
C34   H13   1.110779 S    
C29   C32   1.523526 S    
N2    N4    1.326857 A    
C22   O22   1.410148 S    
C37   H22   1.111457 S    
O7    Zn2   1.982707 S    
N8    O11   1.300253 A    
C27   C31   1.521370 S    
C23   C25   1.535340 S    
O5    C3    1.301132 A    
C22   C24   1.530433 S    
O6    C4    1.300006 A    
C33   H12   1.115087 S    
C37   H21   1.110363 S    
C36   H20   1.110473 S    
C39   H27   1.110534 S    
O7    C3    1.296955 A    
O3    Zn2   1.989466 S    
O8    C4    1.297055 A    
C21   C26   1.529173 S    
N10   O16   1.302177 A    
C1    C24   1.414656 S    
C8    C10   1.409760 A    
C2    C23   1.417761 S    
N5    C31   1.475025 S    
C10   C12   1.398762 A    
O1    Zn1   1.993021 S    
C19   C25   1.543861 S    
C38   H25   1.110683 S    
C13   N11   1.437469 S    
C5    H1    1.080084 S    
O6    Zn2   1.991531 S    
C4    C16   1.449968 S    
C35   H16   1.115076 S    
C30   C31   1.522308 S    
C8    N10   1.440709 S    
C12   C14   1.388837 A    
O3    C1    1.284327 A    
O8    Zn1   1.982707 S    
C34   H14   1.110481 S    
C28   C32   1.522718 S    
C40   H28   1.110769 S    
C19   C24   1.549528 S    
C9    C11   1.396395 A    
C20   C23   1.550790 S    
C19   C21   1.543819 S    
C29   N5    1.487959 S    
C20   C22   1.543039 S    
C33   C34   1.521298 S    
C14   C16   1.409513 A    
N3    C17   1.354076 A    
N6    C32   1.475003 S    
C7    N9    1.441118 S    
N4    C18   1.354266 A    
C11   H3    1.084379 S    
C19   H5    1.110256 S    
C39   H26   1.110706 S    
O2    Zn2   1.993021 S    
C30   N6    1.486757 S    
C20   C26   1.541058 S    
O5    Zn1   1.991531 S    
N11   O17   1.299678 A    
C3    C15   1.453239 S    
C6    H2    1.084246 S    
N9    O13   1.301420 A    
N1    C18   1.354161 A    
C36   H18   1.110890 S    
C27   N6    1.486732 S    
Zn1   N5    2.030965 S    
