data_mof_unit_3258.cif
_audit_creation_date              2012-10-26T18:52:09-0400
_audit_creation_method            fapswitch 2.2
_symmetry_space_group_name_H-M    P1
_symmetry_Int_Tables_number       1
_space_group_crystal_system       triclinic
_cell_length_a                    13.917646
_cell_length_b                    14.805311
_cell_length_c                    14.809715
_cell_angle_alpha                 115.353244
_cell_angle_beta                  107.199367
_cell_angle_gamma                 71.868594
_cell_volume                      2573.45876918

loop_
_atom_site_label
_atom_site_type_symbol
_atom_type_description
_atom_site_fract_x
_atom_site_fract_y
_atom_site_fract_z
_atom_type_partial_charge
C1    C     C_R   0.517794 0.118415 0.688031 0.539740
C2    C     C_R   0.463936 0.512894 0.872702 -0.016504
C3    C     C_R   0.584274 0.383864 0.100672 -0.117010
C4    C     C_R   0.415705 0.616138 0.899328 -0.117010
C5    C     C_R   0.297710 0.326292 0.371242 -0.009550
C6    C     C_R   0.702288 0.673706 0.628756 -0.009550
C7    C     C_R   0.337739 0.229814 0.379554 0.165721
C8    C     C_R   0.662260 0.770184 0.620445 0.165721
C9    C     C_R   0.492776 0.281334 0.482460 0.011095
C10   C     C_R   0.507222 0.718668 0.517541 0.011094
C11   C     C_R   0.460291 0.375532 0.465130 -0.030728
C12   C     C_R   0.482205 0.881585 0.311969 0.539740
C13   C     C_R   0.539704 0.624472 0.534874 -0.030727
C14   C     C_R   0.364734 0.391959 0.399644 0.056203
C15   C     C_R   0.635260 0.608044 0.600361 0.056211
C16   C     C_R   0.687146 0.986513 0.504216 0.545767
C17   C     C_R   0.312854 0.013487 0.495784 0.545766
C18   C     C_R   0.517822 0.454719 0.512012 0.004537
C19   C     C_R   0.482170 0.545287 0.487995 0.004537
C20   C     C_R   0.393576 0.551155 0.413157 -0.132585
C21   C     C_R   0.606414 0.448853 0.586854 -0.132591
C22   C     C_R   0.338507 0.473923 0.365175 0.001876
C23   C     C_R   0.525382 0.358819 0.922327 0.012790
C24   C     C_R   0.661482 0.526086 0.634836 0.001874
C25   C     C_1   0.206991 0.021509 0.493082 -0.029004
C26   C     C_1   0.793009 0.978490 0.506918 -0.029004
C27   C     C_2   0.012443 0.033698 0.488971 -0.123214
C28   C     C_2   0.987557 0.966301 0.511028 -0.123214
C29   C     C_1   0.881812 0.972503 0.508948 -0.058120
C30   C     C_1   0.118187 0.027497 0.491052 -0.058120
C31   C     C_R   0.535578 0.184776 0.796092 -0.021399
C32   C     C_R   0.464415 0.815224 0.203908 -0.021399
C33   C     C_R   0.616935 0.210718 0.972103 0.001886
C34   C     C_R   0.474602 0.641182 0.077672 0.012789
C35   C     C_R   0.383049 0.789285 0.027899 0.001886
C36   C     C_R   0.597109 0.145592 0.870050 -0.116048
C37   C     C_R   0.402881 0.854409 0.129952 -0.116047
C38   C     C_R   0.495766 0.289756 0.823990 -0.141869
C39   C     C_R   0.504223 0.710243 0.176009 -0.141870
C40   C     C_3   0.181495 0.363814 0.348563 -0.419237
C41   C     C_3   0.818503 0.636175 0.651419 -0.419247
C42   C     C_3   0.678736 0.164048 0.050150 -0.412157
C43   C     C_3   0.321244 0.835955 0.949853 -0.412157
C44   C     C_3   0.507894 0.537849 0.231600 -0.415620
C45   C     C_R   0.578559 0.317984 0.998921 0.046963
C46   C     C_3   0.492081 0.462154 0.768397 -0.415620
C47   C     C_3   0.261996 0.475667 0.268610 -0.410734
C48   C     C_3   0.737988 0.524344 0.731403 -0.410746
C49   C     C_3   0.730557 0.847237 0.678190 -0.326136
C50   C     C_3   0.269444 0.152759 0.321809 -0.326136
C51   C     C_R   0.421423 0.682018 0.001080 0.046963
C52   C     C_R   0.497267 0.467151 0.947606 0.031873
C53   C     C_R   0.502714 0.532851 0.052393 0.031874
C54   C     C_R   0.536043 0.487108 0.127297 -0.016503
Cu1   Cu    Cu3+1 0.526370 0.916390 0.524860 0.920968
Cu2   Cu    Cu3+1 0.473630 0.083610 0.475140 0.920969
H1    H     H_    0.046501 0.906025 0.530769 0.131254
H2    H     H_    0.628357 0.064077 0.848531 0.116394
H3    H     H_    0.435079 0.737212 0.470007 0.125112
H4    H     H_    0.564920 0.262790 0.529994 0.125111
H5    H     H_    0.143997 0.343370 0.391649 0.125556
H6    H     H_    0.158625 0.448361 0.375010 0.141036
H7    H     H_    0.150141 0.329339 0.266131 0.123062
H8    H     H_    0.855988 0.656585 0.608294 0.125565
H9    H     H_    0.849875 0.670677 0.733842 0.123050
H10   H     H_    0.841368 0.551631 0.625012 0.141048
H11   H     H_    0.706870 0.080112 0.014400 0.125249
H12   H     H_    0.953499 0.093975 0.469231 0.131253
H13   H     H_    0.746922 0.198716 0.092530 0.128243
H14   H     H_    0.630260 0.177266 0.104026 0.132791
H15   H     H_    0.293109 0.919891 0.985604 0.125248
H16   H     H_    0.369716 0.822739 0.895974 0.132792
H17   H     H_    0.253057 0.801287 0.907475 0.128242
H18   H     H_    0.575345 0.561756 0.291046 0.136201
H19   H     H_    0.440682 0.603001 0.236197 0.135860
H20   H     H_    0.484300 0.482408 0.248250 0.140760
H21   H     H_    0.559297 0.397006 0.763800 0.135862
H22   H     H_    0.424630 0.438242 0.708954 0.136202
H23   H     H_    0.368302 0.612561 0.385207 0.096872
H24   H     H_    0.515667 0.517597 0.751743 0.140753
H25   H     H_    0.293524 0.499488 0.223514 0.127522
H26   H     H_    0.246857 0.398777 0.217933 0.140892
H27   H     H_    0.189239 0.531293 0.287282 0.127548
H28   H     H_    0.706413 0.500609 0.776536 0.127537
H29   H     H_    0.810713 0.468653 0.712732 0.127546
H30   H     H_    0.753200 0.601212 0.782048 0.140893
H31   H     H_    0.690912 0.926725 0.693936 0.179375
H32   H     H_    0.765965 0.844287 0.754909 0.075535
H33   H     H_    0.793177 0.829762 0.637255 0.123182
H34   H     H_    0.631684 0.387451 0.614808 0.096876
H35   H     H_    0.309091 0.073272 0.306058 0.179371
H36   H     H_    0.206828 0.170230 0.362747 0.123184
H37   H     H_    0.234030 0.155714 0.245092 0.075537
H38   H     H_    0.616089 0.353576 0.160696 0.116881
H39   H     H_    0.383887 0.646427 0.839304 0.116880
H40   H     H_    0.560810 0.683651 0.231857 0.139155
H41   H     H_    0.439179 0.316347 0.768141 0.139154
H42   H     H_    0.371635 0.935925 0.151472 0.116391
N1    N     N_R   0.433980 0.209250 0.437830 -0.230313
N2    N     N_R   0.566020 0.790750 0.562170 -0.230314
O1    O     O_R   0.534760 0.019630 0.662610 -0.513698
O2    O     O_R   0.465240 0.980370 0.337390 -0.513697
O3    O     O_R   0.490220 0.160840 0.620610 -0.501847
O4    O     O_R   0.509780 0.839160 0.379390 -0.501847
O5    O     O_R   0.663260 0.919400 0.523940 -0.508029
O6    O     O_R   0.336740 0.080600 0.476060 -0.508029
O7    O     O_R   0.618720 0.060610 0.481950 -0.494093
O8    O     O_R   0.381280 0.939390 0.518050 -0.494094

loop_
_geom_bond_atom_site_label_1
_geom_bond_atom_site_label_2
_ccdc_geom_bond_type
C43   H17   S    
Cu1   Cu2   S    
C11   C18   A    
C43   H16   S    
C23   C45   A    
C18   C21   A    
C33   C45   A    
C49   H31   S    
C19   C20   A    
C1    C31   S    
C53   C54   A    
C2    C46   S    
C34   C51   A    
C40   H7    S    
C7    N1    A    
Cu1   O5    S    
C33   C42   S    
C28   C29   S    
C35   C37   A    
C12   O4    A    
C36   H2    S    
C3    C54   A    
C47   H26   S    
C42   H14   S    
C33   C36   A    
C40   H6    S    
C18   C19   A    
C32   C39   A    
C44   H20   S    
C27   H12   S    
C16   O7    A    
C6    C15   A    
C6    C41   S    
Cu1   N2    S    
C47   H27   S    
C35   C43   S    
C1    O3    A    
C22   C47   S    
C9    N1    A    
C12   C32   S    
C27   C30   S    
C49   H32   S    
C38   H41   S    
C37   H42   S    
C21   H34   S    
C16   C26   S    
C13   C19   A    
C4    C51   A    
C34   C39   A    
C24   C48   S    
C44   H18   S    
Cu2   O3    S    
C17   O8    A    
C5    C7    A    
C41   H9    S    
C28   H1    S    
Cu1   O4    S    
C3    C45   A    
C42   H13   S    
C40   H5    S    
C48   H28   S    
C44   H19   S    
C2    C4    A    
Cu2   O7    S    
C12   O2    A    
C4    H39   S    
C32   C37   A    
C10   N2    A    
C9    C11   A    
Cu2   O6    S    
C5    C14   A    
C2    C52   A    
C16   O5    A    
C34   C53   A    
C50   H36   S    
C15   C24   A    
C20   C22   A    
C13   C15   A    
C35   C51   A    
C42   H11   S    
C48   H30   S    
C21   C24   A    
C1    O1    A    
C52   C53   A    
C46   H22   S    
C25   C30   T    
C43   H15   S    
C20   H23   S    
C31   C36   A    
C7    C50   S    
C49   H33   S    
C10   C13   A    
C46   H21   S    
C6    C8    A    
C50   H37   S    
C41   H10   S    
C23   C38   A    
Cu1   O1    S    
Cu2   N1    S    
C31   C38   A    
Cu1   O8    S    
C9    H4    S    
C17   C25   S    
C14   C22   A    
C10   H3    S    
C8    N2    A    
Cu2   O2    S    
C17   O6    A    
C46   H24   S    
C23   C52   A    
C11   C14   A    
C3    H38   S    
C47   H25   S    
C39   H40   S    
C44   C54   S    
C50   H35   S    
C26   C29   T    
C5    C40   S    
C27   C28   D    
C48   H29   S    
C41   H8    S    
C8    C49   S    
