data_mof_unit_1917.cif
_audit_creation_date              2013-03-05T16:46:58-0500
_audit_creation_method            fapswitch 2.2
_symmetry_space_group_name_H-M    P1
_symmetry_Int_Tables_number       1
_space_group_crystal_system       triclinic
_cell_length_a                    14.964252
_cell_length_b                    8.932873
_cell_length_c                    8.12053
_cell_angle_alpha                 89.897356
_cell_angle_beta                  90.000249
_cell_angle_gamma                 90.000021
_cell_volume                      1085.50005795

loop_
_atom_site_label
_atom_site_type_symbol
_atom_site_description
_atom_site_fract_x
_atom_site_fract_y
_atom_site_fract_z
_atom_type_partial_charge
O1    O     O_R   0.500000 0.285350 0.636850 -0.620763
O2    O     O_R   0.500000 0.714650 0.363150 -0.620763
O3    O     O_R   0.500000 0.714650 0.636850 -0.602461
O4    O     O_R   0.500000 0.285350 0.363150 -0.602461
C1    C     C_R   0.499999 0.218066 0.500096 0.991490
C2    C     C_R   0.500001 0.781934 0.499904 0.991490
O5    O     O_R   0.367850 0.500000 0.636890 -0.603291
O6    O     O_R   0.632150 0.500000 0.363110 -0.603291
O7    O     O_R   0.632150 0.500000 0.636890 -0.603292
O8    O     O_R   0.367850 0.500000 0.363110 -0.603292
C3    C     C_R   0.326828 0.499997 0.500000 1.034719
C4    C     C_R   0.673172 0.500003 0.500000 1.034720
Zn1   Zn    Zn3+2 0.500000 0.500000 0.682780 1.082297
Zn2   Zn    Zn3+2 0.500000 0.500000 0.317220 1.082297
N1    N     N_1   0.500000 0.500000 0.073640 -0.007502
N2    N     N_1   0.500000 0.500000 0.926360 -0.007502
C5    C     C_R   0.813102 0.633792 0.533694 0.271248
C6    C     C_R   0.186897 0.366208 0.466306 0.271248
C7    C     C_R   0.813101 0.366211 0.466309 0.271255
C8    C     C_R   0.186899 0.633789 0.533690 0.271255
C9    C     C_R   0.768270 0.500002 0.500002 -0.233762
C10   C     C_R   0.231730 0.499998 0.499998 -0.233762
C11   C     C_R   0.906324 0.365501 0.466502 0.049664
C12   C     C_R   0.093676 0.634499 0.533497 0.049663
C13   C     C_R   0.906326 0.634500 0.533500 0.049667
C14   C     C_R   0.093674 0.365500 0.466500 0.049667
C15   C     C_R   0.953091 0.500000 0.500001 -0.005039
C16   C     C_R   0.046909 0.500000 0.499999 -0.005039
C17   C     C_R   0.953813 0.233564 0.434167 -0.146258
C18   C     C_R   0.046186 0.766436 0.565833 -0.146258
C19   C     C_R   0.953816 0.766436 0.565834 -0.146258
C20   C     C_R   0.046184 0.233564 0.434165 -0.146258
C21   C     C_1   0.499999 0.065209 0.500137 -0.058786
C22   C     C_1   0.500001 0.934791 0.499863 -0.058786
H1    H     H_    0.920478 0.128848 0.408282 0.209958
H2    H     H_    0.079521 0.871152 0.591718 0.209958
H3    H     H_    0.920482 0.871152 0.591722 0.209957
H4    H     H_    0.079518 0.128847 0.408278 0.209957
Cl1   Cl    Cl    0.750855 0.799336 0.573436 -0.571426
Cl2   Cl    Cl    0.249145 0.200664 0.426564 -0.571426
Cl3   Cl    Cl    0.750853 0.200669 0.426566 -0.571418
Cl4   Cl    Cl    0.249147 0.799331 0.573433 -0.571418

loop_
_geom_bond_atom_site_label_1
_geom_bond_atom_site_label_2
_geom_bond_distance
_ccdc_geom_bond_type
O3    Zn1   1.952723 S    
C13   C19   1.401465 A    
C8    Cl4   1.777727 S    
C14   C20   1.401465 A    
C20   H4    1.081076 S    
C13   C15   1.417198 A    
C17   H1    1.081075 S    
C3    C10   1.423067 S    
C14   C16   1.417198 A    
C6    C14   1.395028 A    
C18   H2    1.081075 S    
O6    C4    1.269857 A    
O3    C2    1.263153 A    
C5    C13   1.395028 A    
C21   C22   1.165009 T    
C7    Cl3   1.777727 S    
C6    C10   1.398013 A    
O5    C3    1.269857 A    
O2    C2    1.263681 A    
O1    C1    1.263681 A    
C11   C17   1.401465 A    
C7    C9    1.398014 A    
C8    C10   1.398014 A    
C17   C20   1.382257 A    
C11   C15   1.417198 A    
O4    Zn2   1.952724 S    
C18   C19   1.382257 A    
O2    Zn2   1.954035 S    
O7    C4    1.269857 A    
C12   C18   1.401465 A    
O1    Zn1   1.954036 S    
O8    C3    1.269857 A    
N1    N2    1.195991 T    
C2    C22   1.365454 S    
O5    Zn1   2.012330 S    
C6    Cl2   1.777728 S    
C5    Cl1   1.777728 S    
Zn1   N2    1.977999 S    
O8    Zn2   2.012333 S    
C8    C12   1.395028 A    
C7    C11   1.395028 A    
O7    Zn1   2.012331 S    
O6    Zn2   2.012328 S    
Zn2   N1    1.977999 S    
C4    C9    1.423067 S    
C5    C9    1.398013 A    
C12   C16   1.417198 A    
C19   H3    1.081076 S    
O4    C1    1.263153 A    
C15   C16   1.403906 A    
C1    C21   1.365454 S    
