data_mof_unit_3216.cif
_audit_creation_date              2012-10-26T21:12:33-0400
_audit_creation_method            fapswitch 2.2
_symmetry_space_group_name_H-M    P1
_symmetry_Int_Tables_number       1
_space_group_crystal_system       triclinic
_cell_length_a                    23.505762
_cell_length_b                    10.861513
_cell_length_c                    9.5693
_cell_angle_alpha                 90.119211
_cell_angle_beta                  90.291747
_cell_angle_gamma                 92.556177
_cell_volume                      2440.65105792

loop_
_atom_site_label
_atom_site_type_symbol
_atom_type_description
_atom_site_fract_x
_atom_site_fract_y
_atom_site_fract_z
_atom_type_partial_charge
C1    C     C_R   0.504179 0.262853 0.500828 0.559466
C2    C     C_R   0.122188 0.617281 0.485914 0.402170
C3    C     C_R   0.242798 0.569826 0.613017 -0.081284
C4    C     C_R   0.391009 0.499721 0.499663 0.583805
C5    C     C_R   0.301924 0.566263 0.608144 -0.203864
C6    C     C_R   0.328530 0.503482 0.499704 0.017056
C7    C     C_R   0.295021 0.446045 0.393162 0.241440
C8    C     C_R   0.235435 0.446290 0.402376 -0.045523
C9    C     C_R   0.209399 0.509101 0.510726 0.197812
C10   C     C_R   0.760778 0.498721 0.631440 -0.056513
C11   C     C_R   0.701458 0.496715 0.629516 -0.147077
C12   C     C_R   0.966372 0.293449 0.578829 -0.122385
C13   C     C_R   0.671757 0.503306 0.501992 0.002016
C14   C     C_R   0.702547 0.512850 0.376609 -0.146822
C15   C     C_R   0.761941 0.515268 0.378920 -0.056023
C16   C     C_R   0.496343 0.737395 0.501116 0.532846
C17   C     C_R   0.791204 0.507857 0.506276 0.242204
C18   C     C_R   0.529994 0.119068 0.760866 -0.093056
C19   C     C_R   0.520292 0.059688 0.888001 -0.129867
C20   C     C_R   0.491892 0.944950 0.890277 -0.121866
C21   C     C_R   0.478472 0.884423 0.765062 -0.091936
C22   C     C_R   0.493918 0.937976 0.634649 0.027691
C23   C     C_R   0.025735 0.293877 0.580648 -0.123678
C24   C     C_R   0.511243 0.063738 0.633254 0.027380
C25   C     C_R   0.508480 0.128759 0.504646 -0.004661
C26   C     C_R   0.502104 0.063410 0.378908 -0.151873
C27   C     C_R   0.497137 0.936208 0.379375 -0.158237
C28   C     C_R   0.609070 0.500969 0.500392 0.537325
C29   C     C_R   0.493234 0.871810 0.505825 -0.004987
C30   C     C_R   0.574608 0.666588 0.145446 -0.100541
C31   C     C_R   0.610697 0.748504 0.073578 -0.177913
C32   C     C_R   0.610848 0.748049 0.929645 -0.164153
C33   C     C_R   0.574840 0.665817 0.856770 -0.090836
C34   C     C_R   0.058186 0.401944 0.549251 0.028444
C35   C     C_R   0.536542 0.582110 0.925673 0.147463
C36   C     C_R   0.536462 0.582287 0.075451 0.152753
C37   C     C_R   0.466182 0.420118 0.073427 -0.021012
C38   C     C_R   0.466051 0.420345 0.925338 -0.023511
C39   C     C_R   0.882791 0.615491 0.478386 0.400673
C40   C     C_R   0.878585 0.402577 0.541932 0.401177
C41   C     C_R   0.938224 0.401067 0.545521 0.028886
C42   C     C_R   0.970342 0.510075 0.514420 -0.028145
C43   C     C_R   0.942541 0.618454 0.480704 0.029097
C44   C     C_3   0.311972 0.431337 0.157499 0.006464
C45   C     C_R   0.030404 0.510569 0.516522 -0.028392
C46   C     C_3   0.308549 0.329719 0.046577 -0.263090
C47   C     C_3   0.302936 0.383138 0.900104 -0.472115
C48   C     C_R   0.062539 0.619516 0.485206 0.028453
C49   C     C_R   0.034382 0.727296 0.452611 -0.123068
C50   C     C_R   0.975005 0.726757 0.450322 -0.122966
C51   C     C_R   0.117906 0.404205 0.548769 0.400494
Cu1   Cu    Cu3+1 0.500000 0.499990 0.640660 0.905532
Cu2   Cu    Cu3+1 0.500000 0.500010 0.359340 0.939715
H1    H     H_    0.942657 0.208483 0.603201 0.170842
H2    H     H_    0.495699 0.888358 0.279867 0.135699
H3    H     H_    0.438856 0.354315 0.128698 0.135615
H4    H     H_    0.046068 0.209204 0.606240 0.168897
H5    H     H_    0.579084 0.673091 0.255542 0.186242
H6    H     H_    0.639163 0.812072 0.130335 0.134203
H7    H     H_    0.639344 0.811409 0.873700 0.137007
H8    H     H_    0.579197 0.672020 0.746770 0.189594
H9    H     H_    0.438377 0.354823 0.869387 0.126339
H10   H     H_    0.058103 0.812256 0.428240 0.170476
H11   H     H_    0.954668 0.811346 0.424388 0.169371
H12   H     H_    0.678934 0.489663 0.727833 0.132857
H13   H     H_    0.222868 0.618436 0.697274 0.141170
H14   H     H_    0.326992 0.613172 0.689084 0.128066
H15   H     H_    0.209247 0.397325 0.325061 0.133634
H16   H     H_    0.783199 0.493292 0.730220 0.130903
H17   H     H_    0.348939 0.495623 0.135382 0.155967
H18   H     H_    0.272585 0.484592 0.148857 0.117645
H19   H     H_    0.347321 0.275070 0.051632 0.162416
H20   H     H_    0.271026 0.266723 0.067695 0.187251
H21   H     H_    0.263036 0.433620 0.890978 0.163060
H22   H     H_    0.301713 0.307519 0.821769 0.176575
H23   H     H_    0.680831 0.518606 0.276899 0.132167
H24   H     H_    0.339838 0.447065 0.877116 0.148532
H25   H     H_    0.785279 0.522216 0.281779 0.131382
H26   H     H_    0.501208 0.110531 0.279286 0.134492
H27   H     H_    0.553634 0.206588 0.764411 0.150007
H28   H     H_    0.533505 0.104214 0.984922 0.111398
H29   H     H_    0.481430 0.901365 0.989088 0.114353
H30   H     H_    0.454466 0.797724 0.773001 0.148149
N1    N     N_R   0.852217 0.508653 0.508637 -0.399734
N2    N     N_R   0.148500 0.510558 0.516598 -0.397216
N3    N     N_R   0.500540 0.501210 0.147910 -0.246049
N4    N     N_R   0.500560 0.501290 0.852040 -0.249603
O1    O     O_R   0.500000 0.319640 0.618810 -0.509751
O2    O     O_R   0.582120 0.500020 0.618760 -0.525509
O3    O     O_R   0.582120 0.500050 0.381190 -0.519879
O4    O     O_2   0.855418 0.718584 0.447123 -0.492088
O5    O     O_3   0.320071 0.377182 0.290274 -0.557096
O6    O     O_2   0.847140 0.298763 0.570449 -0.490041
O7    O     O_2   0.145256 0.301125 0.580262 -0.493265
O8    O     O_2   0.153662 0.720358 0.454479 -0.492469
O9    O     O_R   0.500000 0.319660 0.381240 -0.496047
O10   O     O_R   0.417880 0.499950 0.618810 -0.513986
O11   O     O_R   0.417880 0.499980 0.381240 -0.463091
O12   O     O_R   0.500000 0.680340 0.618760 -0.536057
O13   O     O_R   0.500000 0.680360 0.381190 -0.527397

loop_
_geom_bond_atom_site_label_1
_geom_bond_atom_site_label_2
_ccdc_geom_bond_type
C49   H10   S    
C22   C29   A    
C4    O11   A    
C27   C29   A    
C50   H11   S    
C41   C42   A    
C40   N1    A    
C19   C20   A    
C40   O6    S    
C5    H14   S    
C51   N2    A    
C7    C8    A    
C12   C23   A    
C34   C51   A    
C37   C38   A    
C44   H18   S    
C18   C24   A    
C21   C22   A    
C2    O8    S    
C39   N1    A    
C20   H29   S    
C30   C31   A    
C27   H2    S    
C15   H25   S    
C10   C17   A    
Cu1   O10   S    
C2    N2    A    
C23   H4    S    
C18   C19   A    
C31   H6    S    
C9    N2    S    
C37   H3    S    
C35   N4    A    
C21   H30   S    
C8    C9    A    
C13   C28   S    
C44   H17   S    
Cu2   N3    S    
C46   H19   S    
C44   O5    S    
C1    O1    A    
C13   C14   A    
Cu2   O9    S    
C1    C25   S    
Cu1   O2    S    
C39   O4    S    
C44   C46   S    
Cu2   O13   S    
C37   N3    A    
Cu1   O1    S    
C24   C25   A    
C4    C6    S    
C16   O13   A    
C39   C43   A    
C2    C48   A    
C16   C29   S    
C42   C45   A    
C14   H23   S    
C12   C41   A    
C3    C9    A    
C31   C32   A    
C23   C34   A    
C26   C27   A    
C16   O12   A    
C34   C45   A    
C28   O2    A    
C33   H8    S    
C48   C49   A    
C8    H15   S    
C22   C24   A    
C3    H13   S    
C42   C43   A    
C32   H7    S    
Cu1   Cu2   S    
C45   C48   A    
C15   C17   A    
C46   C47   S    
C40   C41   A    
Cu1   N4    S    
C47   H21   S    
C3    C5    A    
C43   C50   A    
C6    C7    A    
Cu2   O11   S    
Cu1   O12   S    
C26   H26   S    
C30   C36   A    
C38   N4    A    
C17   N1    S    
C36   N3    A    
C32   C33   A    
C25   C26   A    
C47   H22   S    
C19   H28   S    
C11   C13   A    
C5    C6    A    
C1    O9    A    
C7    O5    S    
C30   H5    S    
C33   C35   A    
C10   C11   A    
C51   O7    S    
C10   H16   S    
C20   C21   A    
C18   H27   S    
C49   C50   A    
Cu2   O3    S    
C47   H24   S    
C14   C15   A    
C28   O3    A    
C35   C36   A    
C4    O10   A    
C46   H20   S    
C12   H1    S    
C11   H12   S    
C38   H9    S    
