data_mof_unit_1592.cif
_audit_creation_date              2013-03-05T16:00:36-0500
_audit_creation_method            fapswitch 2.2
_symmetry_space_group_name_H-M    P1
_symmetry_Int_Tables_number       1
_space_group_crystal_system       triclinic
_cell_length_a                    8.367007
_cell_length_b                    13.047777
_cell_length_c                    19.33174
_cell_angle_alpha                 101.110444
_cell_angle_beta                  92.399579
_cell_angle_gamma                 97.960796
_cell_volume                      2045.84004123

loop_
_atom_site_label
_atom_site_type_symbol
_atom_site_description
_atom_site_fract_x
_atom_site_fract_y
_atom_site_fract_z
_atom_type_partial_charge
P1    P     P_3+3 0.042930 0.392230 0.337410 0.461158
O1    O     O_2   0.875110 0.423180 0.326290 -0.335629
O2    O     O_3   0.123410 0.433040 0.414950 -0.420371
O3    O     O_3   0.661010 0.625070 0.369680 -0.358002
O4    O     O_2   0.737778 0.533868 0.244628 -0.350981
O5    O     O_3   0.024750 0.255680 0.303331 -0.613904
O6    O     O_3   0.671222 0.723483 0.248835 -0.543794
H1    H     H_    0.529726 0.820752 0.305613 0.080623
C1    C     C_3   0.547179 0.850738 0.196619 -0.400288
H2    H     H_    0.664960 0.902244 0.201001 0.201973
P2    P     P_3+3 0.672230 0.754900 0.555730 0.446561
P3    P     P_3+3 0.132263 0.817318 0.408011 0.408599
O7    O     O_2   0.847800 0.768730 0.534310 -0.358479
O8    O     O_3   0.082250 0.684470 0.405440 -0.403023
O9    O     O_2   0.998156 0.866008 0.449883 -0.371832
O10   O     O_3   0.700731 0.790656 0.648071 -0.577226
O11   O     O_3   0.101379 0.837420 0.321379 -0.567760
C2    C     C_3   0.072341 0.738807 0.274763 0.512309
H3    H     H_    0.958143 0.693340 0.285890 0.186588
H4    H     H_    0.172111 0.692600 0.280253 0.026117
C3    C     C_3   0.057056 0.753882 0.198794 -1.031091
H5    H     H_    0.024764 0.675790 0.162648 0.243624
H6    H     H_    0.961066 0.802669 0.192053 0.270592
C4    C     C_3   0.240135 0.783135 0.622882 0.436154
H7    H     H_    0.361953 0.761424 0.613909 0.086721
H8    H     H_    0.157609 0.751666 0.574623 0.131924
C5    C     C_3   0.251769 0.902595 0.638328 -0.988284
H9    H     H_    0.331815 0.936881 0.686793 0.257669
H10   H     H_    0.301670 0.935775 0.593900 0.243584
H11   H     H_    0.129232 0.924426 0.645980 0.259170
Ba1   Ba    Ba6+2 0.853180 0.547790 0.465300 1.541517
C6    C     C_3   0.963211 0.184215 0.344608 0.674824
C7    C     C_3   0.866655 0.090061 0.290650 -0.450441
H12   H     H_    0.752139 0.111549 0.273710 0.212009
H13   H     H_    0.934018 0.072510 0.242717 0.200529
C8    C     C_3   0.729346 0.702826 0.675853 0.455935
H14   H     H_    0.834615 0.670489 0.652323 0.086215
H15   H     H_    0.621220 0.640874 0.665779 0.139086
C9    C     C_3   0.765135 0.737140 0.755414 -1.020872
H16   H     H_    0.878216 0.794927 0.767292 0.266070
H17   H     H_    0.779696 0.667754 0.779132 0.224736
H18   H     H_    0.663548 0.774229 0.779511 0.270896
P4    P     P_3+3 0.146790 0.607860 0.662600 0.458216
O12   O     O_2   0.314600 0.576860 0.673750 -0.357406
O13   O     O_3   0.066300 0.567050 0.585060 -0.429428
O14   O     O_3   0.528700 0.375020 0.630330 -0.356240
O15   O     O_3   0.181115 0.745967 0.681591 -0.565565
P5    P     P_3+3 0.034593 0.194763 0.621223 0.441992
O16   O     O_3   0.611760 0.365720 0.463870 -0.412397
O17   O     O_3   0.107460 0.315620 0.594570 -0.340075
O18   O     O_2   0.164416 0.122718 0.599576 -0.440073
O19   O     O_3   0.053317 0.221815 0.713969 -0.485348
Ba2   Ba    Ba6+2 0.336650 0.452300 0.534710 1.538894
P6    P     P_3+3 0.616712 0.605124 0.277983 0.466932
C10   C     C_3   0.538372 0.779868 0.251496 0.245214
H19   H     H_    0.418453 0.733484 0.242579 0.036048
H20   H     H_    0.452212 0.901802 0.206545 0.232908
O20   O     O_3   0.577950 0.634370 0.536140 -0.421483
C11   C     C_3   0.457481 0.257227 0.323024 0.190685
H21   H     H_    0.349371 0.288378 0.345063 0.101558
H22   H     H_    0.556521 0.325441 0.331547 0.142360
C12   C     C_3   0.421765 0.219144 0.242304 -0.565456
H23   H     H_    0.389457 0.288787 0.223024 0.137698
P7    P     P_3+3 0.522458 0.227939 0.449363 0.390240
O21   O     O_2   0.341900 0.231310 0.465740 -0.402587
O22   O     O_3   0.500824 0.177241 0.357259 -0.583002
H24   H     H_    0.173582 0.793091 0.184366 0.259662
C13   C     C_3   0.039919 0.124926 0.736816 0.331562
H25   H     H_    0.934930 0.068002 0.709147 0.027104
H26   H     H_    0.152297 0.089859 0.727174 0.099763
C14   C     C_3   0.014367 0.140319 0.815766 -0.451834
H27   H     H_    0.894241 0.165041 0.825365 0.193510
H28   H     H_    0.014587 0.062709 0.831625 0.161945
P8    P     P_3+3 0.578430 0.391822 0.719866 0.448957
C15   C     C_3   0.541588 0.193997 0.724412 0.425561
H29   H     H_    0.670825 0.209111 0.712690 0.047010
O23   O     O_2   0.505806 0.490953 0.753106 -0.411206
O24   O     O_3   0.477229 0.286468 0.752564 -0.494353
H30   H     H_    0.469706 0.152419 0.674876 0.135333
H31   H     H_    0.595254 0.164760 0.828999 0.271793
C16   C     C_3   0.533698 0.121545 0.777532 -1.078624
H32   H     H_    0.594989 0.052445 0.757691 0.245540
H33   H     H_    0.406518 0.092465 0.785606 0.259528
C17   C     C_R   0.072321 0.552821 0.797917 -0.326169
H34   H     H_    0.166095 0.616631 0.822360 0.143734
C18   C     C_R   0.026599 0.543009 0.724873 0.341389
C19   C     C_R   0.874967 0.399946 0.798468 -0.184643
H35   H     H_    0.823278 0.332748 0.819240 0.128517
C20   C     C_R   0.798551 0.418092 0.737268 0.177403
C21   C     C_R   0.338072 0.549713 0.180427 -0.291088
H36   H     H_    0.394343 0.609373 0.154897 0.145373
C22   C     C_R   0.407616 0.544417 0.247147 0.319865
C23   C     C_R   0.113527 0.425787 0.196320 -0.255760
H37   H     H_    0.017463 0.361245 0.177629 0.164044
C24   C     C_R   0.159570 0.449796 0.270969 0.352494
C25   C     C_R   0.000532 0.476547 0.836836 0.103864
C26   C     C_R   0.883138 0.480053 0.697003 -0.371894
H38   H     H_    0.832104 0.483439 0.645257 0.130383
C27   C     C_R   0.196969 0.482804 0.148055 0.086498
C28   C     C_R   0.312227 0.502808 0.294003 -0.518762
H39   H     H_    0.358902 0.509301 0.348015 0.168169
C29   C     C_R   0.770892 0.416923 0.940620 -0.219019
C30   C     C_R   0.663977 0.362149 0.977321 -0.160685
C31   C     C_R   0.700591 0.367044 0.048132 -0.005217
C32   C     C_R   0.851158 0.421135 0.079290 -0.249777
C33   C     C_R   0.980140 0.447460 0.037442 0.062810
C34   C     C_R   0.935539 0.446807 0.963992 0.099432
C35   C     C_R   0.145631 0.477077 0.066930 -0.050921
C36   C     C_R   0.262109 0.503889 0.016472 0.087324
C37   C     C_R   0.214177 0.501892 0.943281 0.061606
C38   C     C_R   0.050493 0.476253 0.915776 -0.048037
C39   C     C_R   0.431068 0.528982 0.034576 -0.176666
C40   C     C_R   0.538054 0.574200 0.992088 -0.154619
C41   C     C_R   0.491349 0.568204 0.922287 -0.116275
C42   C     C_R   0.336480 0.520787 0.897119 -0.122829
H40   H     H_    0.717356 0.438967 0.895435 0.150569
H41   H     H_    0.542520 0.332259 0.953700 0.168184
H42   H     H_    0.860975 0.446056 0.135444 0.195185
H43   H     H_    0.489131 0.510359 0.079438 0.153841
H44   H     H_    0.663473 0.601108 0.010845 0.140164
H45   H     H_    0.579441 0.591095 0.886534 0.147990
H46   H     H_    0.315127 0.497251 0.841032 0.197802
C43   C     C_R   0.713033 0.186554 0.562933 -0.446890
C44   C     C_R   0.428553 0.810845 0.478066 -0.495000
C45   C     C_R   0.399501 0.981585 0.454633 -0.279019
C46   C     C_R   0.336792 0.875022 0.449587 0.250762
C47   C     C_R   0.574798 0.852319 0.517455 0.279820
C48   C     C_R   0.629853 0.964766 0.531486 -0.029045
C49   C     C_R   0.537395 0.030062 0.499517 -0.051323
C50   C     C_R   0.590682 0.141233 0.509935 0.284395
C51   C     C_R   0.822809 0.125394 0.585343 0.135221
C52   C     C_R   0.778122 0.013807 0.571052 -0.223100
H47   H     H_    0.344237 0.025639 0.421734 0.192906
H48   H     H_    0.860386 0.966378 0.589462 0.177454
H49   H     H_    0.744884 0.271544 0.575347 0.163348
H50   H     H_    0.382383 0.727556 0.471316 0.167543
N1    N     N_2   0.860660 0.231793 0.395885 -0.146811
H51   H     H_    0.780133 0.271791 0.375076 0.215890
C53   C     C_3   0.937116 0.283711 0.464393 -0.675095
H52   H     H_    0.886195 0.354503 0.488450 0.257898
H53   H     H_    0.069345 0.299830 0.466161 0.299386
H54   H     H_    0.927440 0.226790 0.496393 0.185851
N2    N     N_2   0.097090 0.149720 0.379142 -0.118009
H55   H     H_    0.189163 0.132995 0.347836 0.209513
C54   C     C_3   0.063585 0.075692 0.425108 -0.795727
H56   H     H_    0.075906 0.000494 0.393389 0.299720
H57   H     H_    0.943174 0.071115 0.445263 0.240741
H58   H     H_    0.147383 0.093633 0.472248 0.288351
N3    N     N_2   0.833182 0.994857 0.317960 -0.099714
H59   H     H_    0.851136 0.925486 0.285789 0.238887
C55   C     C_3   0.695459 0.989754 0.359277 -0.820321
H60   H     H_    0.694149 0.922763 0.386968 0.257283
H61   H     H_    0.582782 0.987459 0.326502 0.266107
H62   H     H_    0.705326 0.061878 0.398837 0.247558
C56   C     C_2   0.279009 0.132905 0.221505 1.075094
O25   O     O_2   0.166833 0.146089 0.183171 -0.668490
O26   O     O_R   0.279123 0.036219 0.242318 -0.802654
H63   H     H_    0.177301 0.984720 0.224227 0.320572
C57   C     C_2   0.568205 0.188593 0.205145 1.065933
O27   O     O_2   0.560816 0.104141 0.163547 -0.655311
O28   O     O_R   0.713097 0.258882 0.216953 -0.760651
H64   H     H_    0.800822 0.231198 0.187288 0.323516
N4    N     N_2   0.520360 0.787496 0.125768 -0.098466
H65   H     H_    0.609226 0.741114 0.112907 0.216415
C58   C     C_3   0.483655 0.844583 0.071430 -0.772529
H66   H     H_    0.456283 0.788631 0.019914 0.233288
H67   H     H_    0.588749 0.904551 0.066954 0.267159
H68   H     H_    0.375754 0.883967 0.083696 0.267520
N5    N     N_2   0.139211 0.218506 0.857653 -0.060672
H69   H     H_    0.253402 0.217986 0.839701 0.244540
C59   C     C_3   0.138851 0.221849 0.932846 -0.791595
H70   H     H_    0.229765 0.288095 0.961164 0.251549
H71   H     H_    0.171155 0.147168 0.945173 0.258229
H72   H     H_    0.017849 0.233743 0.951750 0.252802
C60   C     C_2   0.568955 0.331574 0.089787 0.964295
O29   O     O_2   0.559655 0.379558 0.149679 -0.641635
O30   O     O_R   0.447869 0.248479 0.058765 -0.806108
H73   H     H_    0.356671 0.237119 0.090582 0.336196

loop_
_geom_bond_atom_site_label_1
_geom_bond_atom_site_label_2
_geom_bond_distance
_ccdc_geom_bond_type
O5    C6    1.399818 S    
C10   H19   1.086201 S    
C58   H66   1.109766 S    
Ba2   O20   2.891706 S    
C5    H10   1.105742 S    
C2    C3    1.521329 S    
C53   H53   1.095009 S    
N5    H69   1.030532 S    
N4    H65   1.031047 S    
C4    C5    1.517995 S    
O6    C10   1.412865 S    
O8    Ba1   2.868325 S    
C15   H29   1.112739 S    
C48   C49   1.432369 A    
C16   H32   1.110974 S    
C60   O30   1.398514 S    
C35   C36   1.462988 A    
C27   C35   1.593468 S    
N1    C53   1.444086 S    
C22   C28   1.371949 A    
O26   H63   1.012692 S    
Ba1   O20   2.973741 S    
C8    H14   1.105991 S    
N4    C58   1.445851 S    
C17   C18   1.424155 A    
C2    H3    1.104795 S    
P5    O19   1.755290 S    
N3    C55   1.430586 S    
C11   O22   1.417610 S    
C25   C38   1.566153 S    
C53   H54   1.051392 S    
P3    C46   1.853671 S    
C33   C34   1.451055 A    
N2    H55   1.020818 S    
C26   H38   1.082347 S    
P1    Ba1   3.469879 S    
C12   C56   1.505866 S    
P1    O1    1.531722 D    
C17   C25   1.441568 A    
C55   H62   1.083089 S    
C1    N4    1.447281 S    
C18   C26   1.381312 A    
C37   C38   1.419099 A    
C31   C32   1.405110 A    
C6    N2    1.447708 S    
C54   H57   1.093423 S    
C41   H45   1.082321 S    
O12   Ba2   2.888099 S    
P4    Ba2   3.470400 S    
P5    O18   1.551764 D    
C60   O29   1.216653 D    
C13   H25   1.111871 S    
P8    O23   1.544415 D    
P3    O11   1.758457 S    
C55   H60   1.108541 S    
C14   N5    1.450231 S    
P5    C51   1.910808 S    
C1    C10   1.533509 S    
C31   C60   1.467129 S    
P2    O20   1.625036 S    
Ba2   O21   2.941447 S    
C1    H2    1.103449 S    
C23   C27   1.445568 A    
C1    H20   1.105560 S    
O19   C13   1.409212 S    
O3    P6    1.757248 S    
P5    O17   1.788007 S    
P2    Ba1   3.490715 S    
C11   H21   1.110102 S    
C58   H67   1.111223 S    
C42   H46   1.068686 S    
C3    H5    1.110407 S    
C3    H24   1.108913 S    
C5    H11   1.109753 S    
N5    C59   1.445978 S    
C30   H41   1.084464 S    
Ba1   O16   2.892294 S    
C48   C52   1.430222 A    
H1    C10   1.089139 S    
C39   C40   1.387825 A    
C16   H33   1.107049 S    
C54   H56   1.072724 S    
C9    H18   1.110798 S    
C59   H72   1.111437 S    
C11   H22   1.110755 S    
O17   Ba2   2.868929 S    
C44   H50   1.082640 S    
P1    O5    1.759460 S    
O4    P6    1.546213 D    
C17   H34   1.080955 S    
C9    H17   1.109291 S    
C36   C39   1.419288 A    
C9    H16   1.110814 S    
C14   H28   1.113343 S    
C24   C28   1.377366 A    
C15   C16   1.521541 S    
Ba1   Ba2   4.615441 S    
C43   H49   1.081004 S    
O1    Ba1   2.887697 S    
P1    O2    1.578755 S    
P7    O22   1.768211 S    
P2    C47   1.851150 S    
P4    O12   1.532004 D    
P6    C22   1.841302 S    
C12   H23   1.108078 S    
P4    O15   1.748504 S    
C40   H44   1.083031 S    
C59   H71   1.111941 S    
P2    O10   1.753194 S    
C21   C22   1.410530 A    
C57   O27   1.224810 D    
P3    O9    1.546993 D    
P3    O8    1.716485 S    
P1    C24   1.854742 S    
C19   C25   1.418108 A    
C57   O28   1.396817 S    
O11   C2    1.405299 S    
C29   C34   1.408955 A    
C23   H37   1.075500 S    
C4    H7    1.106824 S    
O2    Ba1   2.976850 S    
C56   O26   1.396166 S    
P4    O13   1.578780 S    
C59   H70   1.107290 S    
C44   C47   1.396313 A    
C52   H48   1.079706 S    
P7    C50   1.900095 S    
C58   H68   1.111221 S    
C3    H6    1.109983 S    
C43   C50   1.399409 A    
P8    O24   1.750280 S    
C45   C46   1.399801 A    
C32   H42   1.067713 S    
C47   C48   1.444759 A    
C21   C27   1.410568 A    
C30   C31   1.377527 A    
C54   H58   1.093473 S    
P8    C20   1.830722 S    
C44   C46   1.383512 A    
C40   C41   1.373431 A    
C32   C33   1.419381 A    
C45   H47   1.067042 S    
N2    C54   1.441462 S    
C11   C12   1.546669 S    
C43   C51   1.403937 A    
C4    O15   1.399950 S    
C34   C38   1.432581 A    
O7    Ba1   2.941252 S    
C8    C9    1.521396 S    
C4    H8    1.111594 S    
H31   C16   1.110650 S    
C39   H43   1.061051 S    
C53   H52   1.100461 S    
C41   C42   1.381201 A    
N1    H51   1.021643 S    
C6    C7    1.552608 S    
C19   C20   1.396829 A    
C49   C50   1.429742 A    
C6    N1    1.444250 S    
O28   H64   1.013392 S    
C36   C37   1.448762 A    
P7    O21   1.561271 D    
P2    O7    1.538924 D    
O2    Ba2   2.812855 S    
C21   H36   1.066405 S    
C23   C24   1.440432 A    
C33   C35   1.446513 A    
C13   C14   1.528577 S    
O16   Ba2   2.972894 S    
C37   C42   1.412685 A    
O14   Ba2   2.816769 S    
C8    H15   1.109871 S    
C28   H39   1.082840 S    
C7    H13   1.107457 S    
C7    H12   1.089700 S    
C2    H4    1.108272 S    
C55   H61   1.107258 S    
C29   C30   1.373260 A    
C15   O24   1.411865 S    
P4    C18   1.853324 S    
O3    Ba1   2.817366 S    
C29   H40   1.070580 S    
O13   Ba2   2.977695 S    
C45   C49   1.409486 A    
C14   H27   1.109527 S    
C19   H35   1.078078 S    
C13   H26   1.108676 S    
O30   H73   1.012745 S    
Ba1   O13   2.812266 S    
C20   C26   1.374972 A    
C56   O25   1.222839 D    
O16   P7    1.812425 S    
C12   C57   1.508256 S    
C7    N3    1.438404 S    
O6    P6    1.752776 S    
N3    H59   1.028183 S    
C15   H30   1.110967 S    
O14   P8    1.727814 S    
O10   C8    1.400536 S    
C51   C52   1.421792 A    
C5    H9    1.108784 S    
