data_mof_unit_4320.cif
_audit_creation_date              2012-12-11T15:52:40-0500
_audit_creation_method            fapswitch 2.2
_symmetry_space_group_name_H-M    P1
_symmetry_Int_Tables_number       1
_space_group_crystal_system       triclinic
_cell_length_a                    6.928612
_cell_length_b                    14.552512
_cell_length_c                    16.027569
_cell_angle_alpha                 90.247014
_cell_angle_beta                  90.023628
_cell_angle_gamma                 89.884457
_cell_volume                      1616.0206592

loop_
_atom_site_label
_atom_site_type_symbol
_atom_type_description
_atom_site_fract_x
_atom_site_fract_y
_atom_site_fract_z
_atom_type_partial_charge
O1    O     O_R   0.494400 0.415640 0.412830 -0.543996
O2    O     O_R   0.823920 0.405510 0.586560 -0.539231
O3    O     O_R   0.994250 0.584360 0.587170 -0.524952
C1    C     C_R   0.655021 0.383169 0.615285 0.746101
O4    O     O_R   0.824110 0.404610 0.413450 -0.546599
O5    O     O_R   0.994440 0.583460 0.412820 -0.541739
C2    C     C_R   0.655169 0.382080 0.384484 0.712005
O6    O     O_R   0.494210 0.416540 0.587180 -0.545529
O7    O     O_3   0.660810 0.558680 0.500000 -0.370520
V1    V     V_3+5 0.935650 0.489110 0.500000 1.443755
O8    O     O_R   0.324150 0.594490 0.413440 -0.545533
C3    C     C_R   0.154966 0.616570 0.384433 0.718596
O9    O     O_R   0.323970 0.595390 0.586550 -0.549977
C4    C     C_R   0.154978 0.617412 0.615731 0.770199
V2    V     V_3+5 0.435660 0.510890 0.500000 1.422206
O10   O     O_3   0.160630 0.441320 0.500000 -0.376757
C5    C     C_3   0.061712 0.642542 0.767834 0.138552
H1    H     H_    0.167142 0.589564 0.788686 0.142141
C6    C     C_3   0.042544 0.715209 0.839333 -0.353668
H2    H     H_    0.122323 0.690821 0.895318 0.168365
H3    H     H_    0.889120 0.723348 0.858554 0.197536
H4    H     H_    0.866130 0.746591 0.647414 0.092446
H5    H     H_    0.850428 0.851849 0.753134 0.164366
C7    C     C_3   0.014773 0.771270 0.661658 0.200895
C8    C     C_3   0.347477 0.725076 0.708794 -0.414324
C9    C     C_3   0.143527 0.687484 0.686455 -0.029996
H6    H     H_    0.414173 0.758509 0.653569 0.160625
H7    H     H_    0.443777 0.667094 0.726445 0.165714
C10   C     C_3   0.123691 0.809413 0.811204 -0.057104
C11   C     C_3   0.004110 0.842138 0.734819 -0.478380
C12   C     C_3   0.336611 0.794951 0.781616 0.503702
H8    H     H_    0.396942 0.861667 0.760231 0.065352
H9    H     H_    0.058120 0.910340 0.714149 0.175639
C13   C     C_R   0.965411 0.760070 0.204026 -0.166042
H10   H     H_    0.834703 0.763715 0.167086 0.162924
C14   C     C_R   0.975229 0.695404 0.268357 -0.147644
H11   H     H_    0.851343 0.651898 0.279573 0.131495
C15   C     C_R   0.143831 0.685592 0.316335 -0.120749
C16   C     C_R   0.300807 0.743447 0.299678 -0.141984
H12   H     H_    0.430783 0.738727 0.337058 0.144715
C17   C     C_R   0.289893 0.811403 0.238104 0.361341
C18   C     C_R   0.122360 0.818265 0.186745 -0.143590
C19   C     C_R   0.809722 0.288045 0.727832 -0.110516
H13   H     H_    0.948666 0.318201 0.713745 0.153460
C20   C     C_R   0.797671 0.223615 0.792230 -0.203824
H14   H     H_    0.927603 0.206273 0.826192 0.212388
C21   C     C_R   0.620206 0.182843 0.813206 -0.180778
C22   C     C_R   0.454393 0.208383 0.767737 0.616446
C23   C     C_R   0.466504 0.273510 0.703988 -0.226603
H15   H     H_    0.336267 0.291383 0.670304 0.147188
C24   C     C_R   0.644043 0.314042 0.683099 -0.141085
C25   C     C_R   0.809784 0.287169 0.270649 -0.132179
H16   H     H_    0.948934 0.316828 0.285483 0.148431
C26   C     C_R   0.797516 0.223590 0.204925 -0.196317
H17   H     H_    0.927509 0.206382 0.170878 0.212348
C27   C     C_R   0.619881 0.183429 0.182769 -0.177495
C28   C     C_R   0.454144 0.208769 0.228584 0.614823
C29   C     C_R   0.466448 0.273092 0.293662 -0.220969
H18   H     H_    0.336128 0.290856 0.327421 0.146556
C30   C     C_R   0.644152 0.313084 0.315680 -0.140450
O11   O     O_R   0.771300 0.080930 0.910090 -0.551190
O12   O     O_R   0.441270 0.092800 0.083770 -0.511540
O13   O     O_R   0.271080 0.913920 0.084380 -0.532583
C31   C     C_R   0.609922 0.114952 0.113221 0.725418
O14   O     O_R   0.441580 0.091910 0.910670 -0.509046
O15   O     O_R   0.271390 0.913020 0.910040 -0.515890
C32   C     C_R   0.610249 0.114028 0.881620 0.720033
O16   O     O_R   0.770990 0.081830 0.084440 -0.548156
O17   O     O_3   0.604750 0.938760 0.997250 -0.358591
V3    V     V_3+5 0.329850 0.008280 0.997210 1.588626
O18   O     O_R   0.941680 0.901940 0.910610 -0.544282
C33   C     C_R   0.111150 0.879614 0.881705 0.728617
O19   O     O_R   0.941370 0.902830 0.083720 -0.540882
C34   C     C_R   0.110496 0.883279 0.114860 0.700372
V4    V     V_3+5 0.829860 0.986420 0.997150 1.510290
O20   O     O_3   0.104830 0.056030 0.997180 -0.364868
O21   O     O_3   0.886204 0.596303 0.753964 -0.639117
H19   H     H_    0.784564 0.642915 0.743952 0.301642
O22   O     O_3   0.089646 0.813298 0.589781 -0.648717
H20   H     H_    0.986783 0.854178 0.567782 0.296515
O23   O     O_3   0.443921 0.870740 0.231943 -0.644151
H21   H     H_    0.391988 0.933021 0.221139 0.300603
F1    F     F_    0.280604 0.169369 0.783441 -0.717366
F2    F     F_    0.280154 0.170289 0.211917 -0.717368
F3    F     F_    0.450606 0.764005 0.846998 -0.700151

loop_
_geom_bond_atom_site_label_1
_geom_bond_atom_site_label_2
_ccdc_geom_bond_type
C8    C12   S    
C12   F3    S    
C17   C18   A    
C6    H2    S    
C13   C18   A    
V4    O20   S    
O23   H21   S    
C16   C17   A    
O21   H19   S    
O11   V4    S    
C8    H7    S    
C5    C9    S    
C31   O16   A    
C14   H11   S    
C6    H3    S    
C7    C9    S    
O5    C3    A    
C15   C16   A    
C29   C30   A    
O14   V3    S    
C27   C28   A    
O12   V3    S    
C13   H10   S    
O19   C34   A    
O12   C31   A    
C25   C30   A    
O8    V2    S    
O15   C33   A    
C12   H8    S    
O14   C32   A    
C27   C31   S    
O1    V2    S    
O7    V1    S    
C1    O6    A    
C10   C33   S    
O9    C4    A    
O19   V4    S    
C21   C32   S    
C8    C9    S    
C25   C26   A    
C20   C21   A    
C26   C27   A    
C18   C34   S    
C1    C24   S    
H5    C11   S    
C16   H12   S    
O4    C2    A    
C23   C24   A    
C29   H18   S    
C20   H14   S    
O16   V4    S    
O2    C1    A    
C19   H13   S    
C10   C11   S    
O11   C32   A    
C7    O22   S    
C21   C22   A    
O13   V3    S    
C17   O23   S    
C5    O21   S    
C5    H1    S    
C28   F2    S    
C4    C9    S    
C19   C20   A    
O3    C4    A    
C22   C23   A    
O6    V2    S    
O9    V2    S    
V3    O20   S    
H4    C7    S    
O2    V1    S    
C2    C30   S    
C25   H16   S    
C26   H17   S    
C11   H9    S    
O1    C2    A    
O5    V1    S    
O8    C3    A    
O13   C34   A    
C8    H6    S    
C22   F1    S    
C14   C15   A    
O7    V2    S    
O4    V1    S    
C10   C12   S    
O3    V1    S    
V1    O10   S    
O18   V4    S    
C19   C24   A    
C28   C29   A    
O15   V3    S    
C5    C6    S    
O17   V4    S    
C13   C14   A    
C3    C15   S    
O17   V3    S    
C7    C11   S    
O22   H20   S    
O18   C33   A    
C23   H15   S    
V2    O10   S    
C6    C10   S    
