data_mof_unit_1378.cif
_audit_creation_date              2013-03-05T15:53:06-0500
_audit_creation_method            fapswitch 2.2
_symmetry_space_group_name_H-M    P1
_symmetry_Int_Tables_number       1
_space_group_crystal_system       triclinic
_cell_length_a                    6.960682
_cell_length_b                    20.438542
_cell_length_c                    24.394586
_cell_angle_alpha                 89.58959
_cell_angle_beta                  91.096822
_cell_angle_gamma                 89.287571
_cell_volume                      3469.52564555

loop_
_atom_site_label
_atom_site_type_symbol
_atom_site_description
_atom_site_fract_x
_atom_site_fract_y
_atom_site_fract_z
_atom_type_partial_charge
O1    O     O_R   0.507320 0.423560 0.460500 -0.575453
O2    O     O_R   0.170760 0.556250 0.437010 -0.600451
O3    O     O_R   0.004030 0.576440 0.539500 -0.599549
C1    C     C_R   0.337349 0.576515 0.421071 0.964530
O4    O     O_R   0.177370 0.422820 0.454110 -0.587599
O5    O     O_R   0.010680 0.442050 0.556720 -0.568794
C2    C     C_R   0.345907 0.398808 0.443469 1.043439
O6    O     O_R   0.500680 0.557950 0.443280 -0.593364
O7    O     O_3   0.340380 0.506470 0.533650 -0.273420
V1    V     V_3+5 0.064130 0.498800 0.493760 1.179403
O8    O     O_R   0.681160 0.443750 0.562990 -0.578801
C3    C     C_R   0.851573 0.423774 0.578825 0.998251
O9    O     O_R   0.674560 0.577180 0.545890 -0.600467
C4    C     C_R   0.843478 0.600634 0.557096 0.914836
V2    V     V_3+5 0.564560 0.501200 0.506240 1.177501
O10   O     O_3   0.838180 0.493530 0.466350 -0.277022
C5    C     C_R   0.968049 0.838021 0.911868 -0.099191
C6    C     C_R   0.850264 0.660726 0.590421 -0.146802
C7    C     C_R   0.918505 0.721165 0.910504 -0.177865
C8    C     C_R   0.947700 0.778628 0.939622 -0.160517
C9    C     C_R   0.960019 0.839702 0.854252 -0.245127
C10   C     C_R   0.926556 0.781876 0.823544 0.110221
C11   C     C_R   0.906239 0.722252 0.853019 0.185879
C12   C     C_R   0.907704 0.781155 0.764903 0.061465
C13   C     C_R   0.890260 0.720092 0.736920 0.071860
C14   C     C_R   0.852353 0.663877 0.768278 -0.226538
C15   C     C_R   0.864821 0.664555 0.825144 -0.231344
C16   C     C_R   0.891333 0.839278 0.733544 -0.194244
C17   C     C_R   0.849164 0.837382 0.677629 -0.216561
C18   C     C_R   0.841424 0.777857 0.649965 0.157450
C19   C     C_R   0.884317 0.718460 0.678202 0.059011
C20   C     C_R   0.789688 0.777375 0.594267 -0.182403
C21   C     C_R   0.783066 0.718789 0.565826 -0.198870
C22   C     C_R   0.916887 0.660854 0.646013 0.031878
H1    H     H_    0.838316 0.619680 0.847558 0.133752
H2    H     H_    0.734099 0.719247 0.523378 0.120414
H3    H     H_    0.823322 0.883088 0.655728 0.139664
H4    H     H_    0.901470 0.675814 0.933094 0.120310
H5    H     H_    0.951659 0.776949 0.984037 0.123584
H6    H     H_    0.979215 0.886633 0.834778 0.106109
H7    H     H_    0.803571 0.619341 0.749058 0.137842
H8    H     H_    0.895547 0.887140 0.751718 0.137605
H9    H     H_    0.749047 0.822327 0.572982 0.126235
C23   C     C_3   0.819525 0.304408 0.767069 -0.310195
C24   C     C_3   0.013175 0.277344 0.791196 -0.136621
H10   H     H_    0.095306 0.299858 0.825462 0.175469
H11   H     H_    0.740754 0.348642 0.780981 0.163943
H12   H     H_    0.231037 0.280033 0.717265 0.148998
C25   C     C_1   0.959451 0.121702 0.875392 -0.259021
C26   C     C_1   0.865025 0.378298 0.624564 -0.243282
C27   C     C_3   0.742518 0.234215 0.767021 0.398504
C28   C     C_3   0.931570 0.207452 0.791155 0.050751
C29   C     C_3   0.810936 0.222673 0.708296 -0.259206
C30   C     C_3   0.893707 0.292468 0.708672 0.105998
C31   C     C_3   0.005013 0.195937 0.732660 -0.131499
C32   C     C_3   0.087266 0.266306 0.732210 -0.011862
C33   C     C_1   0.947727 0.160194 0.837337 0.116821
C34   C     C_1   0.877066 0.339769 0.662579 0.061154
H13   H     H_    0.082592 0.151440 0.718805 0.165975
H14   H     H_    0.724723 0.200504 0.674651 0.172693
C35   C     C_3   0.499612 0.716982 0.207635 -0.197464
C36   C     C_3   0.296905 0.700306 0.229510 -0.313765
H15   H     H_    0.199942 0.662155 0.213107 0.165108
H16   H     H_    0.573375 0.691719 0.173690 0.156261
C37   C     C_1   0.341727 0.621948 0.374827 -0.306304
C38   C     C_1   0.482263 0.877592 0.124942 -0.239851
C39   C     C_3   0.576101 0.721691 0.267752 0.192929
C40   C     C_3   0.374662 0.706064 0.289351 0.106908
C41   C     C_3   0.524944 0.795621 0.268622 0.093705
C42   C     C_3   0.449265 0.791007 0.208761 0.022448
C43   C     C_3   0.322157 0.780083 0.290342 -0.350843
C44   C     C_3   0.250796 0.774271 0.230348 0.395616
C45   C     C_1   0.350593 0.659933 0.336252 -0.002088
C46   C     C_1   0.472776 0.838720 0.162901 0.138037
H17   H     H_    0.244042 0.805920 0.323192 0.146939
C47   C     C_R   0.474025 0.161708 0.089363 -0.106450
C48   C     C_R   0.350658 0.336718 0.412681 -0.279417
C49   C     C_R   0.550607 0.276435 0.096572 -0.176297
C50   C     C_R   0.537696 0.219667 0.065652 -0.153727
C51   C     C_R   0.423606 0.160881 0.145002 -0.240894
C52   C     C_R   0.439400 0.218089 0.178001 0.109287
C53   C     C_R   0.503956 0.276101 0.152293 0.183707
C54   C     C_R   0.397064 0.219699 0.235493 0.055810
C55   C     C_R   0.420898 0.279158 0.265987 0.073408
C56   C     C_R   0.484827 0.335115 0.237834 -0.200209
C57   C     C_R   0.524637 0.333461 0.182317 -0.238264
C58   C     C_R   0.332487 0.163823 0.263572 -0.198493
C59   C     C_R   0.293137 0.165458 0.319096 -0.190600
C60   C     C_R   0.315317 0.222695 0.349242 0.124933
C61   C     C_R   0.379753 0.280590 0.323591 0.131769
C62   C     C_R   0.271392 0.221971 0.405108 -0.277563
C63   C     C_R   0.288110 0.278182 0.437229 0.363341
C64   C     C_R   0.397284 0.337478 0.356710 -0.292206
H18   H     H_    0.574067 0.377771 0.162679 0.132823
H19   H     H_    0.441070 0.383809 0.340099 0.118693
H20   H     H_    0.243574 0.121135 0.338690 0.138225
H21   H     H_    0.600679 0.320674 0.077001 0.120454
H22   H     H_    0.579215 0.220785 0.023072 0.122054
H23   H     H_    0.378685 0.114569 0.161377 0.109365
H24   H     H_    0.506632 0.381426 0.257578 0.130129
H25   H     H_    0.310000 0.117591 0.243760 0.136985
H26   H     H_    0.223697 0.176973 0.423987 0.169632
O11   O     O_R   0.323550 0.942140 0.056770 -0.579799
O12   O     O_R   0.647080 0.077200 0.045890 -0.592300
O13   O     O_R   0.813610 0.057920 0.943260 -0.584914
C65   C     C_R   0.478572 0.101079 0.056783 0.928792
O14   O     O_R   0.653470 0.943760 0.063000 -0.578938
O15   O     O_R   0.820050 0.923540 0.960490 -0.589818
C66   C     C_R   0.486832 0.923558 0.079005 0.960548
O16   O     O_R   0.317110 0.076520 0.039540 -0.590072
O17   O     O_3   0.483830 0.993580 0.966380 -0.269287
V3    V     V_3+5 0.760140 0.001190 0.006240 1.196736
O18   O     O_R   0.149510 0.922740 0.954070 -0.593256
C67   C     C_R   0.980530 0.898803 0.943640 0.929942
O19   O     O_R   0.143120 0.056170 0.936970 -0.582522
C68   C     C_R   0.972748 0.076226 0.921164 0.965887
V4    V     V_3+5 0.259690 0.998700 0.993700 1.194539
O20   O     O_3   0.986130 0.006420 0.033620 -0.266667
N1    N     N_R   0.555194 0.215749 0.787089 0.226132
O21   O     O_R   0.457844 0.256317 0.816897 -0.450803
O22   O     O_R   0.495121 0.156259 0.780663 -0.422380
N2    N     N_R   0.076309 0.804777 0.207673 0.213609
O23   O     O_R   0.952083 0.769900 0.180646 -0.453064
O24   O     O_R   0.059668 0.868233 0.206853 -0.441797
C69   C     C_3   0.059688 0.607462 0.664723 -0.471979
C70   C     C_3   0.263113 0.623663 0.645846 -0.176528
C71   C     C_3   0.408590 0.571528 0.665289 -0.875250
H27   H     H_    0.410759 0.567741 0.710764 0.242634
H28   H     H_    0.371875 0.523210 0.647623 0.271281
H29   H     H_    0.554417 0.585013 0.651997 0.239372
H30   H     H_    0.266826 0.627475 0.600454 0.218063
H31   H     H_    0.306641 0.671651 0.663032 0.189992
H32   H     H_    0.070651 0.601410 0.709509 0.202978
H33   H     H_    0.015228 0.559098 0.648680 0.173028
C72   C     C_3   0.651578 0.850322 0.290681 -0.364233
C73   C     C_3   0.677325 0.846414 0.353146 -0.297201
C74   C     C_3   0.812255 0.899410 0.373930 -0.880662
H34   H     H_    0.956422 0.893283 0.355723 0.262487
H35   H     H_    0.753386 0.948692 0.363093 0.266115
H36   H     H_    0.827897 0.895639 0.419231 0.245958
H37   H     H_    0.535808 0.852708 0.372898 0.206710
H38   H     H_    0.738314 0.797959 0.365423 0.196010
H39   H     H_    0.793393 0.846411 0.271390 0.246325
H40   H     H_    0.584675 0.898173 0.278947 0.194894
C75   C     C_3   0.759137 0.686595 0.289132 -0.404717
C76   C     C_3   0.762707 0.614725 0.270809 -0.255253
C77   C     C_3   0.924447 0.575552 0.298957 -0.896646
H41   H     H_    0.916017 0.579796 0.344214 0.278491
H42   H     H_    0.912244 0.523144 0.287889 0.241323
H43   H     H_    0.065240 0.593113 0.285041 0.259559
H44   H     H_    0.624712 0.590974 0.280509 0.202143
H45   H     H_    0.781627 0.612426 0.225733 0.199922
H46   H     H_    0.887320 0.711920 0.273742 0.217775
H47   H     H_    0.762923 0.688868 0.334599 0.177354
N3    N     N_R   0.240142 0.274905 0.494426 0.228603
O25   O     O_R   0.330849 0.310201 0.530528 -0.409970
O26   O     O_R   0.117796 0.232001 0.511475 -0.398756

loop_
_geom_bond_atom_site_label_1
_geom_bond_atom_site_label_2
_geom_bond_distance
_ccdc_geom_bond_type
C69   H33   1.111115 S    
C35   C42   1.549327 S    
C54   C58   1.410239 A    
C31   C32   1.554657 S    
C59   H20   1.084434 S    
C48   C63   1.411451 A    
C13   C19   1.432844 A    
C70   C71   1.527514 S    
C31   H13   1.110010 S    
N3    O26   1.301563 A    
O14   V3    1.970796 S    
C4    C6    1.478461 S    
O13   C68   1.299169 A    
O2    C1    1.301632 A    
C7    C8    1.391981 A    
C47   C50   1.395465 A    
C1    O6    1.301062 A    
C21   H2    1.083898 S    
O12   C65   1.297739 A    
C52   C53   1.419303 A    
C25   C33   1.213436 T    
C72   C73   1.532293 S    
C56   C57   1.388128 A    
C74   H35   1.110897 S    
C14   C15   1.388464 A    
C36   H15   1.109452 S    
C16   C17   1.390673 A    
C77   H42   1.110417 S    
C76   C77   1.523189 S    
C41   C42   1.546797 S    
C22   C69   1.528291 S    
O5    C3    1.298890 A    
C1    C37   1.456993 S    
O17   V4    1.710553 S    
V2    O10   2.159777 S    
C38   C46   1.219061 T    
C5    C8    1.395766 A    
C37   C45   1.218613 T    
O15   C67   1.295718 A    
C41   C43   1.552868 S    
C49   C53   1.403562 A    
C73   H38   1.109567 S    
C57   H18   1.084390 S    
C77   H41   1.110657 S    
C58   H25   1.076228 S    
O8    V2    1.965707 S    
O17   V3    2.146348 S    
C24   C32   1.554841 S    
O19   V4    1.965528 S    
C39   C75   1.535006 S    
C27   N1    1.454747 S    
O1    V2    1.986438 S    
C11   C15   1.395914 A    
C60   C62   1.402420 A    
O7    V1    2.146402 S    
C28   C31   1.543603 S    
C2    C48   1.479579 S    
C75   H46   1.107468 S    
C73   H37   1.111288 S    
C72   H39   1.103918 S    
C41   C72   1.526907 S    
C64   H19   1.077125 S    
O9    C4    1.300219 A    
O14   C66   1.302026 A    
O11   V4    1.958742 S    
C55   C61   1.439913 A    
O16   V4    1.991025 S    
C52   C54   1.439144 A    
C29   H14   1.110080 S    
C5    C67   1.471548 S    
C75   C76   1.538526 S    
N2    O23   1.300301 A    
C29   C31   1.556613 S    
C74   H36   1.110420 S    
C30   C32   1.542380 S    
C39   C40   1.543590 S    
C26   C34   1.213271 T    
C12   C16   1.410562 A    
C77   H43   1.106445 S    
C55   C56   1.410944 A    
C62   C63   1.400062 A    
O12   V3    1.997155 S    
C8    H5    1.083610 S    
C49   C50   1.391313 A    
C51   C52   1.428475 A    
C24   C28   1.543831 S    
C15   H1    1.084027 S    
C40   C45   1.490606 S    
C53   C57   1.394297 A    
C5    C9    1.405724 A    
C27   C28   1.524901 S    
C39   C41   1.548497 S    
C35   H16   1.109842 S    
C7    C11   1.403275 A    
C71   H28   1.111078 S    
C42   C46   1.491546 S    
C17   C18   1.396577 A    
C7    H4    1.083881 S    
C23   C30   1.544541 S    
V3    O20   1.702057 S    
C35   C39   1.554612 S    
C54   C55   1.439102 A    
C70   H31   1.112646 S    
O8    C3    1.300430 A    
C49   H21   1.083962 S    
C19   C22   1.437939 A    
C36   C44   1.541879 S    
C12   C13   1.432162 A    
C6    C22   1.424859 A    
N1    O22   1.300261 A    
O18   V4    1.988925 S    
C75   H47   1.110279 S    
C23   C27   1.537738 S    
C72   H40   1.111234 S    
O13   V3    1.962257 S    
O6    V2    1.958952 S    
O9    V2    1.988998 S    
C51   H23   1.077045 S    
C69   C70   1.536600 S    
C10   C12   1.434243 A    
C24   H10   1.109546 S    
C62   H26   1.084219 S    
N2    O24   1.300662 A    
C71   H27   1.111289 S    
O2    V1    1.970759 S    
C23   C24   1.554261 S    
C61   C64   1.425742 A    
O4    C2    1.297558 A    
O18   C67   1.300849 A    
C30   C34   1.479535 S    
C69   H32   1.099716 S    
H12   C32   1.110234 S    
C18   C20   1.399090 A    
C47   C65   1.477255 S    
C16   H8    1.077382 S    
C44   N2    1.456137 S    
O1    C2    1.300064 A    
C47   C51   1.408467 A    
C73   C74   1.525580 S    
O5    V1    1.962085 S    
C3    C26   1.447985 S    
N1    O21   1.299591 A    
C23   H11   1.110128 S    
C29   C30   1.545113 S    
O3    C4    1.298207 A    
C74   H34   1.111171 S    
C36   C40   1.552916 S    
O11   C66   1.301128 A    
C20   C21   1.388993 A    
C13   C14   1.406253 A    
C71   H29   1.108917 S    
O4    V1    1.997173 S    
O3    V1    1.991195 S    
V1    O10   1.702139 S    
V4    O20   2.159816 S    
C43   H17   1.110089 S    
C18   C19   1.417237 A    
C9    H6    1.078291 S    
C70   H30   1.110310 S    
C76   H45   1.111229 S    
C40   C43   1.552388 S    
C48   C64   1.409479 A    
C20   H9    1.083899 S    
C63   N3    1.442172 S    
C38   C66   1.458231 S    
O7    V2    1.711868 S    
C35   C36   1.558834 S    
C6    C21   1.397261 A    
C28   C33   1.480419 S    
C76   H44   1.110382 S    
O15   V3    1.991217 S    
C43   C44   1.542366 S    
C25   C68   1.448542 S    
C59   C60   1.394874 A    
C58   C59   1.387599 A    
C65   O16   1.300369 A    
C17   H3    1.084173 S    
N3    O25   1.301464 A    
C56   H24   1.076218 S    
C10   C11   1.420445 A    
C50   H22   1.083650 S    
C42   C44   1.529652 S    
C27   C29   1.537180 S    
C60   C61   1.416409 A    
C9    C10   1.423055 A    
O19   C68   1.300465 A    
C14   H7    1.082313 S    
