data_mof_unit_3433.cif
_audit_creation_date              2012-12-11T15:10:41-0500
_audit_creation_method            fapswitch 2.2
_symmetry_space_group_name_H-M    P1
_symmetry_Int_Tables_number       1
_space_group_crystal_system       triclinic
_cell_length_a                    21.188709
_cell_length_b                    7.231893
_cell_length_c                    18.261556
_cell_angle_alpha                 90.000022
_cell_angle_beta                  93.187509
_cell_angle_gamma                 89.999956
_cell_volume                      2793.97074825

loop_
_atom_site_label
_atom_site_type_symbol
_atom_type_description
_atom_site_fract_x
_atom_site_fract_y
_atom_site_fract_z
_atom_type_partial_charge
O1    O     O_R   0.448880 0.506250 0.415280 -0.534336
O2    O     O_R   0.551120 0.006250 0.584720 -0.534347
O3    O     O_R   0.434830 0.174000 0.557310 -0.528074
O4    O     O_R   0.565170 0.674000 0.442690 -0.528087
C1    C     C_R   0.417174 0.344589 0.579906 0.759020
C2    C     C_R   0.582826 0.844589 0.420094 0.759009
O5    O     O_R   0.441680 0.176440 0.414130 -0.531708
O6    O     O_R   0.558320 0.676440 0.585870 -0.531570
O7    O     O_R   0.558020 0.007570 0.440520 -0.520560
O8    O     O_R   0.441980 0.507570 0.559480 -0.520567
C3    C     C_R   0.427099 0.345182 0.389131 0.776604
C4    C     C_R   0.572897 0.845182 0.610873 0.776728
O9    O     O_3   0.538160 0.339670 0.508820 -0.374991
O10   O     O_3   0.461840 0.839670 0.491180 -0.375058
V1    V     V_3+5 0.492920 0.064260 0.498360 1.412668
V2    V     V_3+5 0.507080 0.564260 0.501640 1.412839
C5    C     C_R   0.882537 0.921860 0.686484 0.449817
C6    C     C_R   0.117456 0.421789 0.313514 0.449864
H1    H     H_    0.968579 0.961245 0.752334 0.116144
H2    H     H_    0.031418 0.461224 0.247662 0.116147
H3    H     H_    0.804517 0.875204 0.568437 0.169435
H4    H     H_    0.195475 0.375083 0.431562 0.169522
C7    C     C_R   0.888602 0.938923 0.819252 -0.100630
C8    C     C_R   0.111397 0.438917 0.180747 -0.100624
C9    C     C_R   0.583172 0.867347 0.744440 -0.183934
C10   C     C_R   0.416825 0.367345 0.255566 -0.183870
C11   C     C_R   0.616913 0.889655 0.811108 -0.115823
C12   C     C_R   0.383084 0.389637 0.188896 -0.115847
C13   C     C_R   0.682498 0.901868 0.814295 -0.128295
C14   C     C_R   0.317500 0.401835 0.185707 -0.128300
C15   C     C_R   0.716852 0.889000 0.750221 0.046787
C16   C     C_R   0.283145 0.388968 0.249781 0.046838
C17   C     C_R   0.681979 0.862521 0.681134 -0.021800
C18   C     C_R   0.318017 0.362497 0.318869 -0.021891
C19   C     C_R   0.784636 0.903574 0.752888 0.023099
C20   C     C_R   0.215361 0.403541 0.247113 0.023107
C21   C     C_R   0.815980 0.902672 0.686091 -0.032550
C22   C     C_R   0.184013 0.402613 0.313909 -0.032614
C23   C     C_R   0.781062 0.877575 0.619621 -0.259660
C24   C     C_R   0.218931 0.377513 0.380378 -0.259543
C25   C     C_R   0.716026 0.844653 0.616943 0.389673
C26   C     C_R   0.283966 0.344636 0.383059 0.389590
C27   C     C_R   0.822651 0.919025 0.819531 -0.203747
C28   C     C_R   0.177347 0.419016 0.180470 -0.203745
C29   C     C_R   0.917799 0.943850 0.752761 -0.232457
C30   C     C_R   0.082197 0.443818 0.247237 -0.232479
C31   C     C_R   0.614222 0.854624 0.679083 -0.082570
C32   C     C_R   0.385774 0.354620 0.320922 -0.082671
H5    H     H_    0.802868 0.913533 0.872561 0.102059
H6    H     H_    0.197131 0.413544 0.127440 0.102053
H7    H     H_    0.532008 0.862161 0.743714 0.100863
H8    H     H_    0.467989 0.362169 0.256293 0.100867
H9    H     H_    0.704779 0.924131 0.867978 0.104328
H10   H     H_    0.295219 0.424082 0.132023 0.104325
H11   H     H_    0.591825 0.900452 0.860994 0.116727
H12   H     H_    0.408173 0.400431 0.139011 0.116725
C33   C     C_1   0.864733 0.938971 0.132362 -0.209510
C34   C     C_1   0.135267 0.438971 0.867639 -0.209512
C35   C     C_1   0.821960 0.924934 0.176238 -0.003733
C36   C     C_1   0.178041 0.424934 0.823763 -0.003727
C37   C     C_1   0.771435 0.905805 0.228398 -0.005226
C38   C     C_1   0.228567 0.405806 0.771604 -0.005212
C39   C     C_1   0.728820 0.889153 0.272345 -0.005723
C40   C     C_1   0.271181 0.389154 0.727657 -0.005701
C41   C     C_1   0.678150 0.870035 0.324311 -0.005456
C42   C     C_1   0.321851 0.370037 0.675691 -0.005427
C43   C     C_1   0.635170 0.856015 0.367906 -0.190519
C44   C     C_1   0.364831 0.356016 0.632096 -0.190526
O11   O     O_R   0.058070 0.289240 0.940580 -0.519679
O12   O     O_R   0.941930 0.789240 0.059420 -0.519678
O13   O     O_R   0.058330 0.616740 0.085880 -0.532196
O14   O     O_R   0.941670 0.116740 0.914120 -0.532196
C45   C     C_R   0.071807 0.448490 0.111760 0.707076
C46   C     C_R   0.928193 0.948490 0.888240 0.707079
O15   O     O_R   0.065180 0.619040 0.942700 -0.523463
O16   O     O_R   0.934820 0.119040 0.057300 -0.523464
O17   O     O_R   0.948870 0.787780 0.915270 -0.530675
O18   O     O_R   0.051130 0.287780 0.084730 -0.530678
C47   C     C_R   0.083133 0.450328 0.920116 0.704993
C48   C     C_R   0.916867 0.950329 0.079884 0.704990
O19   O     O_3   0.961870 0.453310 0.991210 -0.366146
O20   O     O_3   0.038130 0.953310 0.008790 -0.366147
V3    V     V_3+5 0.007070 0.728770 0.001630 1.411896
V4    V     V_3+5 0.992930 0.228770 0.998370 1.411891
O21   O     O_3   0.913566 0.929149 0.621769 -0.579685
C49   C     C_3   0.927516 0.747841 0.598006 0.041897
H13   H     H_    0.918761 0.744337 0.537453 0.148230
H14   H     H_    0.896852 0.638096 0.620483 0.110055
C50   C     C_3   0.997179 0.702566 0.616398 -0.305334
H15   H     H_    0.027321 0.813985 0.595109 0.204395
H16   H     H_    0.005935 0.694786 0.676867 0.185739
C51   C     C_3   0.015620 0.518500 0.582631 -0.806588
H17   H     H_    0.986444 0.404442 0.603549 0.240836
H18   H     H_    0.066147 0.488787 0.597421 0.231527
H19   H     H_    0.008932 0.524644 0.521903 0.244058
O22   O     O_3   0.086425 0.429063 0.378228 -0.579688
C52   C     C_3   0.072469 0.247749 0.401979 0.041878
H20   H     H_    0.081116 0.244319 0.462543 0.148350
H21   H     H_    0.103209 0.138064 0.379599 0.110041
C53   C     C_3   0.002844 0.202297 0.383427 -0.305523
H22   H     H_    0.972634 0.313698 0.404594 0.204437
H23   H     H_    0.994205 0.194360 0.322953 0.185767
C54   C     C_3   0.984378 0.018278 0.417206 -0.806815
H24   H     H_    0.013643 0.904258 0.396445 0.240928
H25   H     H_    0.933893 0.988377 0.402267 0.231532
H26   H     H_    0.990912 0.024609 0.477933 0.244086
O23   O     O_3   0.686319 0.795421 0.550493 -0.570511
C55   C     C_3   0.701576 0.609191 0.535830 -0.217471
H27   H     H_    0.685413 0.515452 0.579420 0.139884
H28   H     H_    0.753067 0.590552 0.529182 0.118770
H29   H     H_    0.677115 0.566718 0.483361 0.166277
O24   O     O_3   0.313657 0.295476 0.449523 -0.570548
C56   C     C_3   0.298604 0.109034 0.464055 -0.217323
H30   H     H_    0.315305 0.015596 0.420680 0.140302
H31   H     H_    0.247073 0.089522 0.470128 0.118587
H32   H     H_    0.322724 0.066972 0.516774 0.166089

loop_
_geom_bond_atom_site_label_1
_geom_bond_atom_site_label_2
_ccdc_geom_bond_type
C42   C44   T    
C39   C41   S    
C7    C29   A    
C11   C13   A    
C6    O22   S    
O1    C3    A    
O2    C4    A    
O16   V4    S    
C2    O7    A    
C52   H20   S    
C12   H12   S    
C23   C25   A    
O21   C49   S    
O5    C3    A    
C14   H10   S    
C5    O21   S    
C16   C20   A    
C19   C21   A    
C5    C29   A    
C1    C44   S    
C49   H14   S    
C8    C45   S    
C33   C35   T    
O17   V3    S    
C34   C36   T    
C7    C27   A    
C55   H27   S    
C36   C38   S    
C37   C39   T    
C26   O24   S    
C53   H22   S    
C38   C40   T    
C41   C43   T    
C46   O17   A    
C18   C26   A    
C45   O18   A    
C15   C17   A    
C50   H16   S    
C19   C27   A    
C9    C31   A    
C10   C32   A    
C56   H32   S    
O5    V1    S    
O6    V2    S    
C22   C24   A    
C33   C48   S    
C3    C32   S    
C4    C31   S    
C6    C30   A    
C53   H23   S    
O24   C56   S    
C52   H21   S    
O13   V3    S    
C35   C37   S    
O12   C48   A    
O14   C46   A    
O13   C45   A    
C49   H13   S    
C27   H5    S    
C53   C54   S    
C40   C42   S    
O4    V2    S    
C9    H7    S    
O2    V1    S    
C10   H8    S    
H3    C23   S    
O6    C4    A    
H4    C24   S    
O22   C52   S    
C51   H18   S    
C54   H25   S    
O1    V2    S    
C5    C21   A    
C50   C51   S    
O12   V3    S    
O14   V4    S    
C34   C47   S    
O4    C2    A    
C2    C43   S    
C17   C31   A    
C15   C19   A    
O11   C47   A    
C18   C32   A    
O23   C55   S    
C20   C22   A    
O19   V4    S    
O3    V1    S    
C56   H30   S    
C28   H6    S    
C52   C53   S    
C25   O23   S    
O16   C48   A    
O3    C1    A    
C49   C50   S    
H1    C29   S    
C9    C11   A    
C10   C12   A    
C55   H29   S    
C8    C30   A    
C12   C14   A    
C6    C22   A    
C17   C25   A    
C1    O8    A    
C13   C15   A    
O11   V4    S    
O8    V2    S    
C14   C16   A    
O15   V3    S    
C13   H9    S    
C8    C28   A    
C24   C26   A    
C51   H17   S    
C55   H28   S    
C54   H26   S    
C11   H11   S    
C51   H19   S    
O7    V1    S    
C20   C28   A    
O18   V4    S    
C21   C23   A    
O20   V3    S    
O9    V2    S    
C54   H24   S    
O10   V1    S    
C7    C46   S    
C50   H15   S    
O15   C47   A    
H2    C30   S    
C16   C18   A    
C56   H31   S    
