data_mof_unit_3411.cif
_audit_creation_date              2012-12-10T17:29:22-0500
_audit_creation_method            fapswitch 2.2
_symmetry_space_group_name_H-M    P1
_symmetry_Int_Tables_number       1
_space_group_crystal_system       triclinic
_cell_length_a                    12.196683
_cell_length_b                    12.853866
_cell_length_c                    13.360412
_cell_angle_alpha                 84.698598
_cell_angle_beta                  109.687368
_cell_angle_gamma                 95.223702
_cell_volume                      1959.68321606

loop_
_atom_site_label
_atom_site_type_symbol
_atom_type_description
_atom_site_fract_x
_atom_site_fract_y
_atom_site_fract_z
_atom_type_partial_charge
C1    C     C_R   0.474426 0.299894 0.493613 0.945426
C2    C     C_R   0.601701 0.487109 0.821152 -0.134417
C3    C     C_R   0.535624 0.812427 0.492883 -0.099895
C4    C     C_R   0.562448 0.491321 0.705656 0.932159
C5    C     C_R   0.453368 0.187555 0.483171 -0.276355
C6    C     C_R   0.383145 0.021602 0.545562 -0.222991
C7    C     C_R   0.372119 0.129013 0.524692 0.157909
C8    C     C_R   0.524032 0.137457 0.439945 0.433256
C9    C     C_R   0.522435 0.027827 0.449419 -0.076591
C10   C     C_R   0.460453 0.972376 0.512246 -0.000573
C11   C     C_R   0.470183 0.866071 0.535785 -0.231028
C12   C     C_R   0.548374 0.494484 0.978098 -0.028561
C13   C     C_R   0.590934 0.864583 0.425212 -0.335506
C14   C     C_R   0.580950 0.971080 0.399195 0.550961
C15   C     C_R   0.010135 0.568950 0.372433 0.465283
C16   C     C_R   0.523365 0.700105 0.500843 0.871330
C17   C     C_R   0.127425 0.554770 0.385620 -0.215942
C18   C     C_R   0.163166 0.498821 0.565894 0.602706
C19   C     C_R   0.040687 0.489431 0.551495 -0.221691
C20   C     C_R   0.962074 0.525259 0.452316 -0.181831
C21   C     C_R   0.840082 0.522527 0.440062 0.258933
C22   C     C_R   0.872483 0.438328 0.611886 0.247243
C23   C     C_R   0.526837 0.452179 0.879026 -0.007522
C24   C     C_R   0.994147 0.449685 0.633098 0.124558
C25   C     C_R   0.437274 0.502588 0.294106 0.879118
C26   C     C_R   0.272905 0.400982 0.028357 -0.299029
C27   C     C_R   0.402863 0.486904 0.180781 -0.188606
C28   C     C_R   0.715181 0.526209 0.875380 -0.323301
C29   C     C_R   0.742925 0.553487 0.979136 0.186721
C30   C     C_R   0.652225 0.559849 0.019485 0.206565
C31   C     C_3   0.174509 0.583448 0.111178 -0.381323
C32   C     C_3   0.539796 0.007862 0.221750 -0.281773
C33   C     C_3   0.212404 0.122386 0.603614 -0.864446
C34   C     C_R   0.466666 0.469021 0.031399 0.072776
C35   C     C_3   0.708405 0.197415 0.437698 -0.143638
C36   C     C_3   0.734470 0.670520 0.341952 -0.638522
C37   C     C_3   0.837050 0.272183 0.703087 -0.788015
C38   C     C_3   0.991009 0.726846 0.275593 -0.364036
C39   C     C_3   0.077200 0.498836 0.815877 -0.803524
C40   C     C_3   0.271198 0.600396 0.697044 -0.284222
C41   C     C_3   0.580294 0.722255 0.042774 -0.861164
C42   C     C_3   0.896654 0.467366 0.109819 -0.657260
C43   C     C_3   0.513068 0.231654 0.791918 -0.828239
C44   C     C_R   0.362343 0.408822 0.983482 0.051711
C45   C     C_R   0.350798 0.356500 0.893597 -0.249282
C46   C     C_R   0.434052 0.375324 0.842380 0.288396
C47   C     C_R   0.490005 0.494091 0.135400 -0.281705
C48   C     C_R   0.288881 0.453231 0.119975 0.559530
H1    H     H_    0.634562 0.822690 0.385718 0.160295
H2    H     H_    0.146918 0.595224 0.022880 0.165219
H3    H     H_    0.252599 0.636395 0.148045 0.156832
H4    H     H_    0.460229 0.047577 0.215882 0.173067
H5    H     H_    0.516901 0.924323 0.203367 0.133801
H6    H     H_    0.575011 0.046794 0.160341 0.189970
H7    H     H_    0.231582 0.222727 0.478845 0.255249
H8    H     H_    0.154765 0.176751 0.618694 0.234657
H9    H     H_    0.269955 0.090521 0.681966 0.250530
H10   H     H_    0.156538 0.058371 0.557128 0.242560
H11   H     H_    0.734709 0.140696 0.508680 0.107862
H12   H     H_    0.329462 0.974584 0.584896 0.158978
H13   H     H_    0.741863 0.277085 0.462770 0.176201
H14   H     H_    0.753543 0.179913 0.382283 0.192868
H15   H     H_    0.764335 0.537076 0.275461 0.245667
H16   H     H_    0.638845 0.676966 0.307616 0.224275
H17   H     H_    0.774875 0.720961 0.290786 0.229396
H18   H     H_    0.768428 0.700651 0.422828 0.224799
H19   H     H_    0.849408 0.419892 0.758894 0.232833
H20   H     H_    0.892023 0.250614 0.786226 0.228402
H21   H     H_    0.877568 0.243583 0.648530 0.212382
H22   H     H_    0.749028 0.232148 0.688316 0.245768
H23   H     H_    0.161276 0.577881 0.321611 0.197654
H24   H     H_    0.072941 0.730750 0.256154 0.159266
H25   H     H_    0.005768 0.765458 0.350768 0.168262
H26   H     H_    0.928068 0.772455 0.210365 0.184731
H27   H     H_    0.135145 0.378691 0.748667 0.259406
H28   H     H_    0.044911 0.461765 0.879780 0.236149
H29   H     H_    0.025427 0.567917 0.779607 0.221996
H30   H     H_    0.169649 0.527250 0.851090 0.255268
H31   H     H_    0.313023 0.648577 0.644644 0.178525
H32   H     H_    0.334068 0.599672 0.779436 0.177805
H33   H     H_    0.192472 0.638237 0.696589 0.141641
H34   H     H_    0.279938 0.297759 0.865958 0.127544
H35   H     H_    0.744840 0.672631 0.121952 0.275195
H36   H     H_    0.590869 0.779460 0.103280 0.238509
H37   H     H_    0.488592 0.689111 0.017889 0.255614
H38   H     H_    0.598277 0.763999 0.972749 0.244028
H39   H     H_    0.917422 0.591642 0.005905 0.211745
H40   H     H_    0.984745 0.478925 0.168722 0.278358
H41   H     H_    0.898040 0.405030 0.057893 0.220005
H42   H     H_    0.836389 0.440823 0.154991 0.224315
H43   H     H_    0.346033 0.282049 0.718998 0.265834
H44   H     H_    0.509221 0.189580 0.722046 0.249927
H45   H     H_    0.189647 0.360581 0.989335 0.167068
H46   H     H_    0.493406 0.174376 0.852115 0.234283
H47   H     H_    0.603167 0.267275 0.825720 0.248821
H48   H     H_    0.576992 0.516624 0.182965 0.216513
H49   H     H_    0.780995 0.539037 0.837128 0.160807
H50   H     H_    0.422789 0.823834 0.584326 0.141725
H51   H     H_    0.104311 0.608822 0.136248 0.197661
N1    N     N_R   0.798200 0.480260 0.519790 -0.154941
N2    N     N_R   0.201820 0.519740 0.480210 -0.168760
N3    N     N_2   0.281493 0.179011 0.544267 -0.271218
N4    N     N_2   0.759334 0.562376 0.344471 -0.251520
N5    N     N_2   0.826436 0.384406 0.688149 -0.236956
N6    N     N_2   0.066016 0.422960 0.738547 -0.276952
N7    N     N_2   0.661117 0.641032 0.088200 -0.320899
N8    N     N_2   0.860817 0.563859 0.046147 -0.301134
N9    N     N_2   0.429036 0.311293 0.759500 -0.275365
O1    O     O_R   0.579910 0.341070 0.505280 -0.578318
O2    O     O_3   0.626042 0.017169 0.322611 -0.601496
O3    O     O_3   0.586572 0.196664 0.382192 -0.575333
O4    O     O_3   0.943498 0.622673 0.280673 -0.618518
O5    O     O_3   0.244066 0.496143 0.666634 -0.600192
O6    O     O_R   0.388440 0.353740 0.492580 -0.613977
O7    O     O_R   0.643280 0.490550 0.663120 -0.624242
O8    O     O_R   0.451810 0.503220 0.650420 -0.562344
O9    O     O_R   0.611560 0.646260 0.507420 -0.622248
O10   O     O_R   0.420090 0.658930 0.494720 -0.635135
O11   O     O_R   0.548190 0.496780 0.349580 -0.598946
O12   O     O_R   0.356720 0.509450 0.336880 -0.590622
O13   O     O_3   0.193589 0.476855 0.145053 -0.602913
Zn1   Zn    Zn3+2 0.627850 0.491540 0.508480 0.964491
Zn2   Zn    Zn3+2 0.372150 0.508460 0.491520 0.973681

loop_
_geom_bond_atom_site_label_1
_geom_bond_atom_site_label_2
_ccdc_geom_bond_type
C27   C48   A    
C28   H49   S    
C33   H10   S    
O8    Zn2   S    
C37   H21   S    
C4    O7    A    
C19   C20   A    
C9    C14   A    
C26   C44   A    
C45   C46   A    
C41   H38   S    
H7    N3    S    
N2    Zn2   S    
C32   O2    S    
C36   N4    S    
C1    C5    S    
C39   H29   S    
C28   C29   A    
C36   H18   S    
O1    Zn1   S    
C37   H20   S    
C43   H46   S    
C22   N5    S    
C35   H11   S    
C18   C19   A    
C17   N2    A    
C32   H4    S    
C1    O1    A    
C45   H34   S    
C8    C9    A    
C7    N3    S    
C46   N9    S    
C43   H47   S    
C47   H48   S    
C40   H32   S    
H43   N9    S    
C31   H51   S    
C9    C10   A    
C3    C13   A    
O12   Zn2   S    
C26   C48   A    
O10   Zn2   S    
C26   H45   S    
O7    Zn1   S    
C37   H22   S    
C30   N7    S    
C25   O11   A    
C18   O5    S    
C32   H6    S    
H19   N5    S    
C15   C20   A    
C38   H24   S    
C22   N1    A    
C41   N7    S    
C33   N3    S    
C39   H30   S    
C6    H12   S    
C34   C44   A    
C31   O13   S    
H15   N4    S    
C8    O3    S    
C48   O13   S    
C5    C7    A    
C21   N1    A    
C36   H17   S    
C41   H36   S    
C42   H42   S    
C18   N2    A    
C2    C4    S    
O9    Zn1   S    
C29   C30   A    
C16   O10   A    
C5    C8    A    
C40   O5    S    
C12   C23   A    
C40   H31   S    
C35   H13   S    
C39   H28   S    
C13   H1    S    
O6    Zn2   S    
C17   H23   S    
C11   H50   S    
C42   N8    S    
C22   C24   A    
C42   H40   S    
C1    O6    A    
C31   H2    S    
C38   O4    S    
C25   O12   A    
C32   H5    S    
C35   O3    S    
C44   C45   A    
C38   H26   S    
O11   Zn1   S    
C27   C47   A    
C14   O2    S    
C33   H9    S    
C12   C30   A    
C15   O4    S    
C4    O8    A    
C39   N6    S    
C31   H3    S    
C6    C10   A    
C37   N5    S    
C15   C17   A    
C6    C7    A    
C34   C47   A    
C25   C27   S    
C41   H37   S    
C43   H44   S    
H35   N7    S    
C40   H33   S    
C42   H41   S    
C19   C24   A    
C36   H16   S    
C16   O9    A    
C33   H8    S    
C35   H14   S    
N1    Zn1   S    
C43   N9    S    
C3    C11   A    
C10   C11   A    
C21   N4    S    
H39   N8    S    
C20   C21   A    
C2    C23   A    
C23   C46   A    
C29   N8    S    
C2    C28   A    
C24   N6    S    
H27   N6    S    
C13   C14   A    
C12   C34   A    
C3    C16   S    
C38   H25   S    
