data_mof_unit_150.cif
_audit_creation_date              2012-10-26T19:44:29-0400
_audit_creation_method            fapswitch 2.2
_symmetry_space_group_name_H-M    P1
_symmetry_Int_Tables_number       1
_space_group_crystal_system       triclinic
_cell_length_a                    11.10757
_cell_length_b                    11.708143
_cell_length_c                    10.425362
_cell_angle_alpha                 90.429203
_cell_angle_beta                  89.862015
_cell_angle_gamma                 90.177976
_cell_volume                      1355.75965217

loop_
_atom_site_label
_atom_site_type_symbol
_atom_type_description
_atom_site_fract_x
_atom_site_fract_y
_atom_site_fract_z
_atom_type_partial_charge
C1    C     C_R   0.500043 0.283259 0.499962 0.561199
C2    C     C_R   0.498362 0.716691 0.500325 0.571911
C3    C     C_1   0.499385 0.161630 0.499807 0.014123
C4    C     C_3   0.070200 0.532698 0.646756 0.421640
C5    C     C_3   0.071528 0.377508 0.451471 0.414098
C6    C     C_3   0.925432 0.553442 0.641050 0.406454
C7    C     C_3   0.926955 0.373885 0.476027 0.427107
C8    C     C_1   0.498992 0.059449 0.500110 -0.027745
C9    C     C_3   0.072512 0.598983 0.396768 0.439219
C10   C     C_3   0.927301 0.590751 0.386487 0.452228
C11   C     C_3   0.085890 0.421333 0.847170 0.056768
C12   C     C_3   0.119591 0.505471 0.498827 -0.057553
C13   C     C_3   0.229780 0.245415 0.518611 -0.031173
C14   C     C_3   0.813511 0.519528 0.844755 -0.020477
C15   C     C_3   0.910171 0.198124 0.606641 0.056413
C16   C     C_3   0.208166 0.762498 0.383421 -0.044647
C17   C     C_3   0.105328 0.636530 0.167556 0.001849
C18   C     C_3   0.892024 0.797943 0.338092 -0.027712
C19   C     C_3   0.809577 0.593139 0.186859 -0.017320
C20   C     C_3   0.879662 0.505882 0.498842 -0.055326
C21   C     C_1   0.498434 0.837967 0.500826 -0.014571
C22   C     C_1   0.498644 0.940144 0.500629 -0.046127
C23   C     C_R   0.258412 0.504328 0.499954 0.596042
C24   C     C_R   0.741295 0.503381 0.499706 0.708542
C25   C     C_1   0.500146 0.499790 0.071947 0.104266
C26   C     C_1   0.500345 0.499669 0.928111 0.092641
Cu1   Cu    Cu3+1 0.500000 0.500000 0.625300 1.107699
Cu2   Cu    Cu3+1 0.500000 0.500000 0.374700 1.089682
H1    H     H_    0.303288 0.652477 0.872722 0.345899
H2    H     H_    0.218841 0.153677 0.493865 0.157481
H3    H     H_    0.778047 0.445192 0.898399 0.120960
H4    H     H_    0.734483 0.572864 0.821487 0.189370
H5    H     H_    0.876558 0.563468 0.910204 0.131482
H6    H     H_    0.962008 0.155611 0.529330 0.204402
H7    H     H_    0.818370 0.160949 0.611866 0.146645
H8    H     H_    0.955400 0.177293 0.698248 0.142769
H9    H     H_    0.180096 0.816317 0.302033 0.081296
H10   H     H_    0.279060 0.702246 0.353250 0.165492
H11   H     H_    0.249149 0.823876 0.451699 0.165459
H12   H     H_    0.136686 0.168294 0.183929 0.364039
H13   H     H_    0.054900 0.714635 0.186761 0.098849
H14   H     H_    0.056470 0.583903 0.096188 0.179777
H15   H     H_    0.192104 0.661223 0.122565 0.121516
H16   H     H_    0.889082 0.790470 0.233392 0.068066
H17   H     H_    0.974352 0.841682 0.370663 0.196019
H18   H     H_    0.819621 0.860029 0.360557 0.134994
H19   H     H_    0.739031 0.641596 0.239073 0.165932
H20   H     H_    0.761298 0.527017 0.130684 0.148238
H21   H     H_    0.853688 0.646901 0.113695 0.074336
H22   H     H_    0.729608 0.814844 0.615446 0.354633
H23   H     H_    0.836572 0.121921 0.266488 0.353968
H24   H     H_    0.020854 0.353218 0.873281 0.160599
H25   H     H_    0.058104 0.500534 0.895284 0.146208
H26   H     H_    0.174684 0.395796 0.885866 0.166611
H27   H     H_    0.279248 0.250063 0.610665 0.137996
H28   H     H_    0.282676 0.287214 0.443861 0.165132
N1    N     N_1   0.500000 0.499990 0.186410 -0.183445
N2    N     N_1   0.500000 0.499990 0.813590 -0.178826
O1    O     O_R   0.500000 0.337200 0.605810 -0.517052
O2    O     O_2   0.082083 0.703441 0.840479 -0.277160
O3    O     O_3   0.270706 0.589375 0.819127 -0.522531
O4    O     O_2   0.024705 0.368412 0.182440 -0.217662
O5    O     O_2   0.234059 0.370072 0.236744 -0.266833
O6    O     O_3   0.121004 0.187057 0.275257 -0.503993
O7    O     O_2   0.865274 0.741349 0.809879 -0.295216
O8    O     O_2   0.963254 0.790753 0.612651 -0.195712
O9    O     O_3   0.740485 0.731039 0.609191 -0.517993
O10   O     O_2   0.724565 0.254385 0.424414 -0.334720
O11   O     O_2   0.798693 0.349100 0.237249 -0.224453
O12   O     O_R   0.500000 0.337200 0.394190 -0.452045
O13   O     O_3   0.900681 0.165586 0.311179 -0.492385
O14   O     O_3   0.093849 0.427138 0.711719 -0.503487
O15   O     O_3   0.116277 0.293899 0.538551 -0.545225
O16   O     O_3   0.872211 0.477453 0.733993 -0.524691
O17   O     O_3   0.903170 0.319152 0.597117 -0.494621
O18   O     O_3   0.107053 0.709539 0.442475 -0.528989
O19   O     O_3   0.129795 0.570037 0.276958 -0.504988
O20   O     O_3   0.864140 0.696840 0.407017 -0.524393
O21   O     O_3   0.897320 0.539535 0.265424 -0.507966
O22   O     O_R   0.317690 0.499990 0.605810 -0.424517
O23   O     O_R   0.317690 0.499990 0.394190 -0.459405
O24   O     O_R   0.682310 0.499990 0.605810 -0.448171
O25   O     O_R   0.682310 0.499990 0.394190 -0.457675
O26   O     O_R   0.500000 0.662810 0.605810 -0.448815
O27   O     O_R   0.500000 0.662810 0.394190 -0.547688
O28   O     O_2   0.208906 0.738550 0.655864 -0.249201
S1    S     S_3+6 0.156065 0.647096 0.737954 0.069593
S2    S     S_3+6 0.112832 0.330476 0.281844 0.071522
S3    S     S_3+6 0.877045 0.707158 0.671175 0.063077
S4    S     S_3+6 0.836442 0.289039 0.356573 0.078267

loop_
_geom_bond_atom_site_label_1
_geom_bond_atom_site_label_2
_ccdc_geom_bond_type
C15   O17   S    
O5    S2    D    
C2    O26   A    
C14   H3    S    
C14   H5    S    
C10   O20   S    
C4    S1    S    
Cu2   N1    S    
O7    S3    D    
C12   C23   S    
C25   N1    T    
C14   O16   S    
Cu1   O26   S    
C24   O25   A    
C1    O1    A    
C19   H19   S    
O9    S3    S    
C2    O27   A    
C24   O24   A    
C17   H14   S    
C11   H24   S    
O3    S1    S    
C5    S2    S    
C20   C24   S    
C10   C20   S    
O10   S4    D    
C9    O18   S    
C23   O22   A    
C4    C12   S    
C9    C10   S    
C15   H6    S    
C11   H25   S    
C16   H9    S    
C13   H28   S    
C16   O18   S    
C21   C22   T    
Cu2   O25   S    
H23   O13   S    
C18   H18   S    
C15   H7    S    
O2    S1    D    
C6    O16   S    
O8    S3    D    
H1    O3    S    
C13   H2    S    
C5    C12   S    
C4    C6    S    
C3    C8    T    
C5    C7    S    
C11   O14   S    
C7    O17   S    
C25   C26   S    
C7    S4    S    
O4    S2    D    
C1    C3    S    
C17   H15   S    
C18   H16   S    
C19   H21   S    
C8    C22   S    
C18   O20   S    
C2    C21   S    
C17   O19   S    
C9    O19   S    
C19   O21   S    
C26   N2    T    
C11   H26   S    
C13   O15   S    
Cu1   O22   S    
O11   S4    D    
C18   H17   S    
C15   H8    S    
C4    O14   S    
H22   O9    S    
C23   O23   A    
Cu2   O23   S    
O28   S1    D    
Cu1   O24   S    
Cu2   O12   S    
C14   H4    S    
Cu1   N2    S    
C10   O21   S    
C6    S3    S    
C6    C20   S    
C1    O12   A    
H12   O6    S    
Cu1   O1    S    
O13   S4    S    
C5    O15   S    
C9    C12   S    
C17   H13   S    
Cu2   O27   S    
C16   H11   S    
C7    C20   S    
C16   H10   S    
Cu1   Cu2   S    
O6    S2    S    
C19   H20   S    
C13   H27   S    
