data_mof_unit_166.cif
_audit_creation_date              2013-03-05T15:54:36-0500
_audit_creation_method            fapswitch 2.2
_symmetry_space_group_name_H-M    P1
_symmetry_Int_Tables_number       1
_space_group_crystal_system       triclinic
_cell_length_a                    17.510131
_cell_length_b                    24.316027
_cell_length_c                    15.215768
_cell_angle_alpha                 89.870224
_cell_angle_beta                  125.916852
_cell_angle_gamma                 90.665364
_cell_volume                      5246.31798196

loop_
_atom_site_label
_atom_site_type_symbol
_atom_site_description
_atom_site_fract_x
_atom_site_fract_y
_atom_site_fract_z
_atom_type_partial_charge
C1    C     C_R   0.822033 0.637646 0.906186 -0.155357
C2    C     C_R   0.190305 0.626431 0.094010 -0.141934
C3    C     C_R   0.322030 0.137643 0.906186 -0.155356
C4    C     C_R   0.690305 0.126430 0.094008 -0.141917
H1    H     H_    0.773141 0.649931 0.823445 0.105315
H2    H     H_    0.248901 0.630120 0.177918 0.108890
H3    H     H_    0.273137 0.149930 0.823445 0.105299
H4    H     H_    0.748902 0.130119 0.177915 0.108889
N1    N     N_R   0.892620 0.603790 0.941770 -0.044518
N2    N     N_R   0.107380 0.603790 0.058230 -0.043478
N3    N     N_R   0.392620 0.103790 0.941770 -0.044508
N4    N     N_R   0.607380 0.103790 0.058230 -0.043472
C5    C     C_R   0.949840 0.347369 0.090713 -0.107165
C6    C     C_R   0.053571 0.349441 0.907198 -0.143069
C7    C     C_R   0.449837 0.847371 0.090716 -0.107170
C8    C     C_R   0.553572 0.849442 0.907195 -0.143068
H5    H     H_    0.003738 0.331638 0.169538 0.153689
H6    H     H_    0.005017 0.334122 0.826009 0.127138
H7    H     H_    0.503732 0.831642 0.169544 0.153659
H8    H     H_    0.505019 0.834124 0.826006 0.127121
N5    N     N_R   0.952270 0.397640 0.058010 -0.052046
N6    N     N_R   0.047730 0.397640 0.941990 -0.061513
N7    N     N_R   0.452270 0.897640 0.058010 -0.052040
N8    N     N_R   0.547730 0.897640 0.941990 -0.061510
C9    C     C_R   0.008694 0.548263 0.273967 -0.174476
C10   C     C_R   0.959234 0.546997 0.702360 -0.151991
C11   C     C_R   0.508767 0.048268 0.274028 -0.174466
C12   C     C_R   0.459195 0.046993 0.702336 -0.152023
H9    H     H_    0.019423 0.590115 0.302093 0.120920
H10   H     H_    0.951813 0.589509 0.678569 0.100812
H11   H     H_    0.519499 0.090122 0.302143 0.121609
H12   H     H_    0.451788 0.089505 0.678551 0.100748
N9    N     N_R   0.026310 0.529110 0.206760 -0.046365
N10   N     N_R   0.973690 0.529110 0.793240 -0.044024
N11   N     N_R   0.526310 0.029110 0.206760 -0.046427
N12   N     N_R   0.473690 0.029110 0.793240 -0.044025
C13   C     C_R   0.730294 0.453829 0.742738 -0.003044
C14   C     C_R   0.259084 0.455231 0.299348 -0.024585
C15   C     C_R   0.230294 0.953830 0.742747 -0.003047
C16   C     C_R   0.759089 0.955231 0.299343 -0.024616
N13   N     N_R   0.818570 0.472310 0.793020 -0.054616
N14   N     N_R   0.181430 0.472310 0.206980 -0.046977
N15   N     N_R   0.318570 0.972310 0.793020 -0.054625
N16   N     N_R   0.681430 0.972310 0.206980 -0.046975
C17   C     C_R   0.004955 0.456048 0.273847 0.004169
C18   C     C_R   0.953848 0.455137 0.699098 -0.080850
C19   C     C_R   0.505032 0.956053 0.273922 0.004161
C20   C     C_R   0.453798 0.955136 0.699075 -0.080973
N17   N     N_R   0.026930 0.472300 0.207330 -0.067533
N18   N     N_R   0.973070 0.472300 0.792670 -0.078690
N19   N     N_R   0.526930 0.972300 0.207330 -0.067536
N20   N     N_R   0.473070 0.972300 0.792670 -0.078698
C21   C     C_R   0.729555 0.545546 0.742291 -0.047207
C22   C     C_R   0.262148 0.547069 0.297207 -0.132687
C23   C     C_R   0.229555 0.045546 0.742293 -0.047222
C24   C     C_R   0.762151 0.047069 0.297203 -0.132659
H13   H     H_    0.703870 0.586206 0.712172 0.106310
H14   H     H_    0.277856 0.589059 0.326595 0.113353
H15   H     H_    0.203871 0.086206 0.712169 0.106295
H16   H     H_    0.777859 0.089059 0.326592 0.113361
N21   N     N_R   0.817960 0.529130 0.792460 -0.048695
N22   N     N_R   0.182040 0.529130 0.207540 -0.053190
N23   N     N_R   0.317960 0.029130 0.792460 -0.048693
N24   N     N_R   0.682040 0.029130 0.207540 -0.053189
C25   C     C_R   0.855135 0.347133 0.911974 -0.146869
C26   C     C_R   0.150269 0.349426 0.087205 -0.058557
C27   C     C_R   0.355137 0.847132 0.911976 -0.146893
C28   C     C_R   0.650265 0.849425 0.087202 -0.058577
H17   H     H_    0.817546 0.331984 0.830432 0.158037
H18   H     H_    0.197110 0.335496 0.169416 0.159659
H19   H     H_    0.317552 0.831982 0.830435 0.158037
H20   H     H_    0.697101 0.835492 0.169412 0.159674
N25   N     N_R   0.894850 0.397640 0.943830 -0.057302
N26   N     N_R   0.105150 0.397640 0.056170 -0.043843
N27   N     N_R   0.394850 0.897640 0.943830 -0.057309
N28   N     N_R   0.605150 0.897640 0.056170 -0.043840
C29   C     C_R   0.908775 0.635812 0.087902 -0.127180
C30   C     C_R   0.098971 0.627913 0.911846 -0.122075
C31   C     C_R   0.408769 0.135805 0.087901 -0.127307
C32   C     C_R   0.598971 0.127911 0.911844 -0.122089
H21   H     H_    0.936044 0.646238 0.170164 0.142245
H22   H     H_    0.073414 0.634681 0.828761 0.096984
H23   H     H_    0.436038 0.146225 0.170163 0.142932
H24   H     H_    0.573414 0.134674 0.828757 0.096950
N29   N     N_R   0.950040 0.603780 0.055950 -0.044819
N30   N     N_R   0.049960 0.603780 0.944050 -0.043442
N31   N     N_R   0.450040 0.103780 0.055950 -0.044847
N32   N     N_R   0.549960 0.103780 0.944050 -0.043440
C33   C     C_R   0.826197 0.654872 0.994742 0.086215
C34   C     C_R   0.187771 0.641879 0.004694 0.075703
C35   C     C_R   0.326191 0.154865 0.994742 0.086221
C36   C     C_R   0.687771 0.141877 0.004691 0.075700
C37   C     C_R   0.889224 0.314735 0.002399 0.083981
C38   C     C_R   0.116170 0.318274 0.994950 0.084461
C39   C     C_R   0.389224 0.814736 0.002403 0.084004
C40   C     C_R   0.616169 0.818274 0.994945 0.084447
C41   C     C_R   0.990698 0.503436 0.312712 0.045392
C42   C     C_R   0.946875 0.501215 0.643181 0.067611
C43   C     C_R   0.490825 0.003445 0.312827 0.045445
C44   C     C_R   0.446795 0.001210 0.643136 0.067802
C45   C     C_R   0.674289 0.499358 0.716552 -0.013221
C46   C     C_R   0.312225 0.501471 0.352995 0.023610
C47   C     C_R   0.174289 0.999360 0.716559 -0.013199
C48   C     C_R   0.812232 0.001471 0.352986 0.023607
Ni1   Ni    Ni4+2 0.934160 0.565860 0.869070 0.227829
Ni2   Ni    Ni4+2 0.065840 0.565860 0.130930 0.220583
Ni3   Ni    Ni4+2 0.434160 0.065860 0.869070 0.227793
Ni4   Ni    Ni4+2 0.565840 0.065860 0.130930 0.220625
Ni5   Ni    Ni4+2 0.067260 0.435560 0.132230 0.265787
Ni6   Ni    Ni4+2 0.932740 0.435560 0.867770 0.240084
Ni7   Ni    Ni4+2 0.567260 0.935560 0.132230 0.265785
Ni8   Ni    Ni4+2 0.432740 0.935560 0.867770 0.240064
C49   C     C_3   0.500478 0.455349 0.598465 -0.359107
C50   C     C_3   0.474961 0.456888 0.482039 -0.361165
C51   C     C_3   0.000479 0.955348 0.598457 -0.359078
C52   C     C_3   0.974970 0.956891 0.482034 -0.361132
C53   C     C_3   0.429709 0.501478 0.568160 0.629434
C54   C     C_3   0.548043 0.502306 0.515982 0.655157
C55   C     C_3   0.929707 0.001476 0.568150 0.629422
C56   C     C_3   0.048051 0.002311 0.515988 0.655144
H25   H     H_    0.506862 0.418868 0.646119 0.145228
H26   H     H_    0.464426 0.421289 0.430271 0.153619
H27   H     H_    0.006858 0.918865 0.646104 0.145243
H28   H     H_    0.964441 0.921294 0.430265 0.153649
C57   C     C_3   0.404147 0.502636 0.454057 0.044084
C58   C     C_3   0.574923 0.500601 0.631130 0.037859
C59   C     C_3   0.904153 0.002637 0.454050 0.044058
C60   C     C_3   0.074924 0.000602 0.631132 0.037840
C61   C     C_3   0.478127 0.548224 0.486534 -0.312246
C62   C     C_3   0.504769 0.546941 0.603614 -0.314766
C63   C     C_3   0.978132 0.048226 0.486537 -0.312236
C64   C     C_3   0.004767 0.046940 0.603614 -0.314768
H29   H     H_    0.468000 0.585241 0.438064 0.155281
H30   H     H_    0.518543 0.582677 0.656551 0.152595
H31   H     H_    0.968007 0.085245 0.438071 0.155288
H32   H     H_    0.018535 0.082675 0.656551 0.152603
C65   C     C_R   0.890210 0.237156 0.107287 0.169889
C66   C     C_R   0.128051 0.249278 0.888886 0.180197
C67   C     C_R   0.390205 0.737161 0.107294 0.169911
C68   C     C_R   0.628026 0.749265 0.888876 0.180227
C69   C     C_R   0.872052 0.256016 0.009605 0.080192
C70   C     C_R   0.137309 0.262333 0.984350 0.072164
C71   C     C_R   0.372053 0.756018 0.009613 0.080227
C72   C     C_R   0.637299 0.762329 0.984346 0.072161
C73   C     C_R   0.820169 0.220262 0.918181 -0.065214
C74   C     C_R   0.183332 0.224533 0.071399 -0.069715
C75   C     C_R   0.320177 0.720261 0.918193 -0.065201
C76   C     C_R   0.683341 0.724538 0.071407 -0.069573
C77   C     C_R   0.263203 0.678663 0.918020 -0.329721
C78   C     C_R   0.742725 0.685876 0.072499 -0.301583
C79   C     C_R   0.763197 0.178664 0.918010 -0.329725
C80   C     C_R   0.242704 0.185866 0.072482 -0.301602
H33   H     H_    0.214874 0.655148 0.844612 0.133745
H34   H     H_    0.784458 0.659025 0.141181 0.174064
H35   H     H_    0.714863 0.155150 0.844601 0.133723
H36   H     H_    0.284417 0.159006 0.141150 0.174167
C81   C     C_R   0.264572 0.670360 0.010537 0.060645
C82   C     C_R   0.751541 0.684314 0.986659 0.048711
C83   C     C_R   0.764572 0.170358 0.010530 0.060652
C84   C     C_R   0.251537 0.184311 0.986655 0.048820
C85   C     C_R   0.337967 0.694719 0.107895 0.132569
C86   C     C_R   0.684323 0.710512 0.890069 0.125054
C87   C     C_R   0.837972 0.194714 0.107889 0.132592
C88   C     C_R   0.184341 0.210523 0.890075 0.125045
C89   C     C_3   0.338652 0.720228 0.197805 -0.504226
C90   C     C_3   0.695157 0.741879 0.813203 -0.498465
C91   C     C_3   0.838665 0.220220 0.197806 -0.504223
C92   C     C_3   0.195208 0.241898 0.813243 -0.498481
C93   C     C_3   0.895341 0.266918 0.196873 -0.438589
C94   C     C_3   0.133664 0.285021 0.812006 -0.497837
C95   C     C_3   0.395331 0.766925 0.196874 -0.438613
C96   C     C_3   0.633608 0.784999 0.811961 -0.497841
H37   H     H_    0.379495 0.695766 0.273699 0.202722
H38   H     H_    0.660646 0.720658 0.733557 0.202496
H39   H     H_    0.879511 0.195757 0.273697 0.202725
H40   H     H_    0.160705 0.220689 0.733590 0.202493
H41   H     H_    0.267608 0.733067 0.172281 0.208108
H42   H     H_    0.768741 0.756441 0.850935 0.204945
H43   H     H_    0.767623 0.233059 0.172290 0.208113
H44   H     H_    0.268800 0.256452 0.851001 0.204947
H45   H     H_    0.968465 0.269418 0.272409 0.221829
H46   H     H_    0.064364 0.288672 0.731650 0.221896
H47   H     H_    0.468453 0.769425 0.272414 0.221838
H48   H     H_    0.564298 0.788638 0.731611 0.221887
H49   H     H_    0.856105 0.306222 0.170493 0.214761
H50   H     H_    0.172005 0.324614 0.848803 0.196202
H51   H     H_    0.356096 0.806229 0.170492 0.214730
H52   H     H_    0.671939 0.824597 0.848731 0.196197
C97   C     C_R   0.883358 0.523309 0.456398 0.074350
C98   C     C_R   0.899665 0.528167 0.378749 0.064768
C99   C     C_R   0.383358 0.023303 0.456371 0.074577
C100  C     C_R   0.399746 0.028183 0.378792 0.064984
C101  C     C_R   0.952834 0.500309 0.555568 0.079728
C102  C     C_R   0.981575 0.506453 0.398168 0.049766
C103  C     C_R   0.452793 0.000294 0.555549 0.079706
C104  C     C_R   0.481677 0.006472 0.398266 0.049753
C105  C     C_R   0.032983 0.476256 0.573555 -0.113110
C106  C     C_R   0.047450 0.479382 0.494435 -0.116029
C107  C     C_R   0.532964 0.976239 0.573589 -0.113220
C108  C     C_R   0.547500 0.979380 0.494524 -0.116069
H53   H     H_    0.085858 0.457104 0.650274 0.124889
H54   H     H_    0.110097 0.461446 0.508443 0.137874
H55   H     H_    0.585808 0.957078 0.650311 0.124898
H56   H     H_    0.610156 0.961436 0.508567 0.137916
C109  C     C_3   0.861754 0.585843 0.351263 -0.359563
C110  C     C_3   0.838559 0.578435 0.432672 -0.356558
C111  C     C_3   0.361850 0.085861 0.351331 -0.359597
C112  C     C_3   0.338536 0.078424 0.432629 -0.357295
H57   H     H_    0.799311 0.590042 0.265456 0.146871
H58   H     H_    0.876076 0.607651 0.502256 0.156679
H59   H     H_    0.299461 0.090076 0.265499 0.146969
H60   H     H_    0.375985 0.107630 0.502231 0.156567
C113  C     C_2   0.822788 0.224634 0.823076 0.514909
H61   H     H_    0.765318 0.207673 0.745324 0.017010
O1    O     O_2   0.891440 0.244377 0.831905 -0.588952
C114  C     C_2   0.173548 0.224528 0.161633 0.519602
H62   H     H_    0.224825 0.203397 0.236638 0.063113
O2    O     O_2   0.105949 0.245677 0.151527 -0.586660
C115  C     C_2   0.322805 0.724630 0.823093 0.514919
H63   H     H_    0.265345 0.707660 0.745346 0.017034
O3    O     O_2   0.391454 0.744377 0.831923 -0.588970
C116  C     C_2   0.673561 0.724539 0.161644 0.519413
H64   H     H_    0.724875 0.703442 0.236684 0.063794
O4    O     O_2   0.605922 0.745656 0.151503 -0.586664
C117  C     C_2   0.937042 0.629513 0.389279 0.538608
H65   H     H_    0.006823 0.624107 0.464325 0.020563
O5    O     O_2   0.919866 0.671755 0.337752 -0.621151
C118  C     C_2   0.734694 0.573524 0.381049 0.661083
H66   H     H_    0.690452 0.545770 0.312898 -0.006643
O6    O     O_2   0.699376 0.600717 0.415618 -0.573012
C119  C     C_2   0.437173 0.129524 0.389480 0.538853
H67   H     H_    0.506691 0.124287 0.464969 0.020598
O7    O     O_2   0.420336 0.171549 0.337502 -0.621535
C120  C     C_2   0.234648 0.073497 0.380875 0.661132
H68   H     H_    0.190464 0.045748 0.312695 -0.006642
O8    O     O_2   0.199247 0.100672 0.415365 -0.573049
C121  C     C_2   0.696812 0.399189 0.692029 0.502170
H69   H     H_    0.640668 0.378200 0.689324 -0.008743
O9    O     O_2   0.730477 0.377522 0.649965 -0.587749
C122  C     C_2   0.266630 0.402189 0.351038 0.442765
H70   H     H_    0.332159 0.389972 0.425539 0.053407
O10   O     O_2   0.197569 0.372495 0.313876 -0.626752
C123  C     C_2   0.196808 0.899187 0.692054 0.502149
H71   H     H_    0.140688 0.878196 0.689395 -0.008726
O11   O     O_2   0.230440 0.877521 0.649953 -0.587719
C124  C     C_2   0.766644 0.902187 0.351034 0.442843
H72   H     H_    0.832178 0.889971 0.425529 0.053449
O12   O     O_2   0.697586 0.872493 0.313881 -0.626757
C125  C     C_2   0.009539 0.399685 0.311833 0.420108
H73   H     H_    0.061703 0.371595 0.323081 0.086987
O13   O     O_2   0.956448 0.384704 0.334728 -0.553058
C126  C     C_2   0.915023 0.400343 0.651099 0.533160
H74   H     H_    0.889596 0.373634 0.685663 0.071179
O14   O     O_2   0.907768 0.385186 0.570065 -0.546897
C127  C     C_2   0.509607 0.899688 0.311897 0.420122
H75   H     H_    0.561743 0.871590 0.323103 0.087016
O15   O     O_2   0.456534 0.884714 0.334822 -0.553075
C128  C     C_2   0.414958 0.900342 0.651089 0.533284
H76   H     H_    0.389568 0.873633 0.685693 0.071133
O16   O     O_2   0.407648 0.885186 0.570021 -0.546888
O17   O     O_3   0.362568 0.501234 0.590063 -0.765144
H77   H     H_    0.399343 0.500387 0.670250 0.306601
O18   O     O_3   0.613482 0.502604 0.491311 -0.720271
H78   H     H_    0.575417 0.504008 0.411044 0.314954
O19   O     O_3   0.862560 0.001228 0.590044 -0.765138
H79   H     H_    0.899330 0.000379 0.670230 0.306602
O20   O     O_3   0.113496 0.002612 0.491324 -0.720233
H80   H     H_    0.075435 0.004012 0.411057 0.315005

loop_
_geom_bond_atom_site_label_1
_geom_bond_atom_site_label_2
_geom_bond_distance
_ccdc_geom_bond_type
C89   C95   1.504904 S    
C82   C86   1.390989 A    
C91   H43   1.112420 S    
C15   C47   1.382346 A    
C80   C84   1.402886 A    
C39   C71   1.472754 S    
C23   H15   1.075312 S    
C66   C94   1.503913 S    
C56   C63   1.527113 S    
C89   H41   1.112418 S    
C70   C74   1.417024 A    
C128  O16   1.220432 D    
N8    Ni8   1.884239 S    
C3    N3    1.317198 A    
N13   N21   1.381768 A    
C72   C76   1.417023 A    
C46   C57   1.432292 S    
C111  C119  1.508555 S    
N26   Ni5   1.884044 S    
C118  O6    1.220269 D    
N9    Ni2   1.878000 S    
N15   N23   1.381768 A    
C33   C82   1.438491 S    
C91   C93   1.504901 S    
C66   C88   1.363988 A    
C62   H30   1.110149 S    
C109  C110  1.522927 S    
C30   C34   1.393413 A    
C90   C96   1.504488 S    
C29   C33   1.386652 A    
C125  H73   1.077339 S    
C28   C40   1.382676 A    
C120  O8    1.220266 D    
C36   C83   1.460982 S    
C1    H1    1.070926 S    
C100  C104  1.393854 A    
C95   H47   1.111795 S    
C75   C77   1.411322 A    
N14   Ni5   1.839614 S    
C76   C78   1.402728 A    
C14   N14   1.328549 A    
C114  O2    1.220423 D    
C63   H31   1.110327 S    
C75   C115  1.478034 S    
C7    C39   1.368901 A    
O17   H77   0.991041 S    
C73   C113  1.478033 S    
C101  C105  1.397950 A    
C64   H32   1.110148 S    
C16   C48   1.372996 A    
N20   Ni8   1.878841 S    
C68   C86   1.363999 A    
C123  H71   1.081480 S    
C26   N26   1.342724 A    
N5    N25   1.407082 A    
N18   Ni6   1.878841 S    
C25   N25   1.346946 A    
C3    C35   1.372211 A    
C102  C106  1.392976 A    
C2    C34   1.384668 A    
C76   C116  1.479996 S    
C122  H70   1.081768 S    
C77   H33   1.083230 S    
N11   Ni4   1.878000 S    
C17   C125  1.470853 S    
C7    H7    1.074157 S    
C21   N21   1.328502 A    
C10   N10   1.324602 A    
C52   H28   1.110271 S    
C54   O18   1.399426 S    
C80   H36   1.079079 S    
N3    N31   1.407085 A    
C96   H48   1.112058 S    
C123  O11   1.219046 D    
C52   C59   1.538417 S    
C23   N23   1.328503 A    
C106  H54   1.084138 S    
C19   C43   1.386656 A    
N19   Ni7   1.889075 S    
C24   N24   1.327593 A    
C109  C117  1.508544 S    
C90   H42   1.112478 S    
C83   C87   1.396293 A    
C79   H35   1.083231 S    
C4    N4    1.327864 A    
N21   Ni1   1.864481 S    
O19   H79   0.991041 S    
N14   N22   1.381558 A    
C103  C107  1.397994 A    
N12   N20   1.381317 A    
C4    H4    1.073453 S    
C26   C38   1.382664 A    
C53   O17   1.397426 S    
C127  O15   1.220558 D    
C12   C44   1.366524 A    
C92   C94   1.504491 S    
C18   C42   1.367899 A    
C29   N29   1.338668 A    
C107  C108  1.369776 A    
C8    N8    1.316602 A    
C56   O20   1.399427 S    
C86   C90   1.496175 S    
C121  H69   1.081476 S    
C94   H46   1.112048 S    
N12   Ni3   1.888107 S    
C107  H55   1.084573 S    
C111  H59   1.112516 S    
C2    H2    1.073455 S    
C67   C71   1.402274 A    
C74   C80   1.402720 A    
C60   C64   1.542904 S    
C12   H12   1.078299 S    
C31   N31   1.338643 A    
C118  H66   1.086030 S    
C45   C58   1.437166 S    
C15   C123  1.469749 S    
C113  O1    1.221058 D    
C9    H9    1.075767 S    
C20   C44   1.367873 A    
C124  O12   1.217666 D    
C16   C124  1.475465 S    
C90   H38   1.111960 S    
C51   H27   1.108806 S    
N31   Ni4   1.894167 S    
N1    Ni1   1.888796 S    
C11   H11   1.075780 S    
C111  C112  1.522924 S    
C38   C70   1.447790 S    
C74   C114  1.480000 S    
C67   C85   1.374660 A    
C1    N1    1.317202 A    
C110  H58   1.110763 S    
C24   C48   1.365224 A    
C66   C70   1.400577 A    
C21   C45   1.372329 A    
C115  H63   1.085428 S    
N4    Ni4   1.878070 S    
N32   Ni3   1.873649 S    
N4    N32   1.407081 A    
N8    N28   1.407081 A    
C19   N19   1.334260 A    
C49   C58   1.538202 S    
C22   N22   1.327593 A    
C99   C103  1.388509 A    
N6    Ni6   1.884239 S    
C113  H61   1.085453 S    
N11   N19   1.381530 A    
C43   C104  1.402185 S    
N16   N24   1.381558 A    
C51   C60   1.538203 S    
C52   C56   1.522606 S    
C42   C101  1.397114 S    
C5    C37   1.368904 A    
C28   H20   1.073800 S    
C79   C83   1.407922 A    
C41   C102  1.402159 S    
C32   C36   1.393414 A    
C87   C91   1.496951 S    
C19   C127  1.470847 S    
C47   C60   1.437170 S    
C57   C61   1.539210 S    
C105  H53   1.084575 S    
C115  O3    1.221046 D    
C120  H68   1.086029 S    
C30   H22   1.078238 S    
C98   C109  1.508553 S    
C13   C121  1.469756 S    
C105  C106  1.369753 A    
C50   C54   1.522607 S    
C109  H57   1.112523 S    
C97   C110  1.494142 S    
C8    H8    1.072457 S    
C20   C128  1.473635 S    
C94   H50   1.112432 S    
C122  O10   1.217670 D    
C55   C64   1.541957 S    
N27   Ni8   1.873909 S    
C8    C40   1.362440 A    
C5    N5    1.328360 A    
C104  C108  1.392950 A    
C119  O7    1.219197 D    
C84   C88   1.390971 A    
C114  H62   1.085585 S    
C23   C47   1.372325 A    
C116  O4    1.220463 D    
C53   C62   1.541957 S    
C18   C126  1.473638 S    
C35   C84   1.438477 S    
C73   C79   1.411323 A    
C10   C42   1.366485 A    
C49   C53   1.538151 S    
C68   C96   1.503929 S    
C88   C92   1.496159 S    
C9    C41   1.357204 A    
C27   C39   1.382919 A    
C71   C75   1.421541 A    
C125  O13   1.220561 D    
C51   C55   1.538150 S    
N13   Ni6   1.859556 S    
C121  O9    1.219046 D    
N3    Ni3   1.888796 S    
C100  C111  1.508514 S    
C61   H29   1.110327 S    
N1    N29   1.407085 A    
N30   Ni1   1.873649 S    
C27   N27   1.346947 A    
N15   Ni8   1.859556 S    
N6    N26   1.407081 A    
N23   Ni3   1.864481 S    
C127  H75   1.077330 S    
C2    N2    1.327859 A    
C81   C85   1.396291 A    
C37   C69   1.472765 S    
C65   C87   1.374668 A    
C49   C50   1.552666 S    
C22   H14   1.081372 S    
C44   C103  1.397149 S    
C99   C100  1.373249 A    
C50   C57   1.538419 S    
C65   C69   1.402274 A    
C124  H72   1.081766 S    
N2    N30   1.407081 A    
C1    C33   1.372219 A    
C78   C82   1.402903 A    
C117  H65   1.086406 S    
C93   H45   1.111795 S    
N10   Ni1   1.888107 S    
C31   C35   1.386655 A    
C65   C93   1.499724 S    
C22   C46   1.365220 A    
N29   Ni2   1.894167 S    
C68   C72   1.400587 A    
N7    N27   1.407082 A    
N9    N17   1.381532 A    
C21   H13   1.075311 S    
N10   N18   1.381317 A    
N5    Ni5   1.863746 S    
O20   H80   0.991138 S    
C56   C60   1.524995 S    
C10   H10   1.078300 S    
C112  H60   1.110750 S    
N22   Ni2   1.884479 S    
C126  O14   1.220432 D    
C69   C73   1.421543 A    
C28   N28   1.342731 A    
C49   H25   1.108806 S    
N7    Ni7   1.863746 S    
C18   N18   1.323548 A    
C3    H3    1.070929 S    
C95   H51   1.111967 S    
C11   N11   1.316571 A    
C67   C95   1.499730 S    
C6    N6    1.316600 A    
C34   C81   1.460973 S    
O18   H78   0.991135 S    
C128  H76   1.078463 S    
C61   C62   1.554754 S    
N17   Ni5   1.889073 S    
C93   H49   1.111966 S    
C32   N32   1.342125 A    
C54   C61   1.527114 S    
C92   H44   1.112468 S    
C63   C64   1.554756 S    
C32   H24   1.078244 S    
C13   C45   1.382346 A    
N25   Ni6   1.873909 S    
C30   N30   1.342130 A    
C26   H18   1.073806 S    
C48   C59   1.432293 S    
C53   C57   1.517814 S    
C96   H52   1.112442 S    
N28   Ni7   1.884044 S    
C25   H17   1.070812 S    
C50   H26   1.110273 S    
C7    N7    1.328348 A    
C25   C37   1.382915 A    
C117  O5    1.219459 D    
C6    H6    1.072462 S    
C108  H56   1.084137 S    
C91   H39   1.112039 S    
C27   H19   1.070817 S    
C99   C112  1.494165 S    
C13   N13   1.332109 A    
C97   C98   1.373245 A    
C11   C43   1.357157 A    
C59   C63   1.539208 S    
C55   C59   1.517815 S    
N2    Ni2   1.878070 S    
C98   C102  1.393854 A    
C110  C118  1.502754 S    
C14   C122  1.475465 S    
C5    H5    1.074160 S    
C31   H23   1.075323 S    
N16   Ni7   1.839614 S    
C97   C101  1.388513 A    
C16   N16   1.328551 A    
C24   H16   1.081371 S    
C12   N12   1.324628 A    
C14   C46   1.372994 A    
C29   H21   1.075365 S    
C78   H34   1.079104 S    
C15   N15   1.332118 A    
C119  H67   1.086214 S    
C58   C62   1.542904 S    
C17   C41   1.386635 A    
C17   N17   1.334228 A    
C54   C58   1.524991 S    
C92   H40   1.111949 S    
C77   C81   1.407919 A    
C20   N20   1.323545 A    
C112  C120  1.502754 S    
C89   H37   1.112037 S    
C116  H64   1.085633 S    
C6    C38   1.362446 A    
C85   C89   1.496952 S    
C51   C52   1.552664 S    
N24   Ni4   1.884479 S    
C9    N9    1.316573 A    
C126  H74   1.078467 S    
C4    C36   1.384677 A    
C40   C72   1.447811 S    
C55   O19   1.397423 S    
