data_mof_unit_1583.cif
_audit_creation_date              2012-12-10T19:51:48-0500
_audit_creation_method            fapswitch 2.2
_symmetry_space_group_name_H-M    P1
_symmetry_Int_Tables_number       1
_space_group_crystal_system       triclinic
_cell_length_a                    27.762753
_cell_length_b                    10.864125
_cell_length_c                    26.653751
_cell_angle_alpha                 90.862821
_cell_angle_beta                  89.905469
_cell_angle_gamma                 87.896733
_cell_volume                      8032.90511546

loop_
_atom_site_label
_atom_site_type_symbol
_atom_type_description
_atom_site_fract_x
_atom_site_fract_y
_atom_site_fract_z
_atom_type_partial_charge
C1    C     C_R   0.498329 0.262150 0.499380 0.859504
C2    C     C_R   0.500829 0.737642 0.500359 0.835916
C3    C     C_R   0.254312 0.532191 0.501212 0.350670
C4    C     C_R   0.746295 0.522411 0.500060 0.344438
C5    C     C_R   0.102428 0.551671 0.499624 -0.085673
C6    C     C_R   0.898073 0.537771 0.499846 -0.083436
C7    C     C_R   0.127644 0.568477 0.545351 -0.041892
C8    C     C_R   0.873725 0.490965 0.457221 -0.040922
C9    C     C_R   0.101150 0.579821 0.590849 -0.003468
C10   C     C_R   0.900686 0.456487 0.413643 -0.000739
C11   C     C_R   0.128425 0.534491 0.454023 -0.036569
C12   C     C_R   0.871264 0.578780 0.542732 -0.039844
C13   C     C_R   0.355017 0.506525 0.501848 -0.051962
C14   C     C_R   0.645109 0.517582 0.499837 -0.061011
C15   C     C_R   0.973743 0.582619 0.543199 0.054216
C16   C     C_R   0.026352 0.524392 0.454549 0.054403
C17   C     C_R   0.975679 0.509671 0.455761 0.054557
C18   C     C_R   0.025036 0.575842 0.544344 0.054048
C19   C     C_R   0.949227 0.543429 0.499594 0.067854
C20   C     C_R   0.051189 0.550963 0.499501 0.069806
C21   C     C_R   0.946254 0.625805 0.584736 -0.269769
C22   C     C_R   0.052711 0.517844 0.409308 -0.277409
C23   C     C_R   0.407654 0.499622 0.500278 0.875157
C24   C     C_R   0.592397 0.505876 0.499950 0.843914
C25   C     C_R   0.896200 0.620191 0.585873 -0.002849
C26   C     C_R   0.102656 0.526896 0.408268 -0.000340
C27   C     C_R   0.050922 0.587377 0.589511 -0.271463
C28   C     C_R   0.950734 0.462047 0.414251 -0.271024
C29   C     C_R   0.424678 0.237840 0.349191 -0.248646
C30   C     C_R   0.595729 0.761011 0.631595 -0.214984
C31   C     C_R   0.435144 0.192564 0.396810 -0.095099
C32   C     C_R   0.575921 0.810525 0.587935 -0.111709
C33   C     C_R   0.475323 0.112934 0.404098 0.107564
C34   C     C_R   0.533469 0.884753 0.590277 0.087852
C35   C     C_R   0.503928 0.076013 0.362575 -0.259703
C36   C     C_R   0.512272 0.912670 0.637153 -0.260119
C37   C     C_R   0.493632 0.121303 0.314038 0.515049
C38   C     C_R   0.533409 0.867336 0.681878 0.512110
C39   C     C_R   0.453473 0.201706 0.308154 -0.122105
C40   C     C_R   0.574492 0.788900 0.678112 -0.154882
C41   C     C_R   0.487528 0.931428 0.456604 -0.222831
C42   C     C_R   0.507474 0.066951 0.542600 -0.235957
C43   C     C_R   0.501034 0.871217 0.500735 -0.057699
C44   C     C_R   0.496204 0.128116 0.498137 -0.033370
C45   C     C_R   0.448876 0.697331 0.054838 -0.204471
C46   C     C_R   0.530180 0.293127 0.943147 -0.196632
C47   C     C_R   0.512743 0.939850 0.544026 0.043179
C48   C     C_R   0.486100 0.059131 0.454012 0.035794
C49   C     C_R   0.465483 0.589851 0.186270 0.623309
C50   C     C_R   0.515415 0.402083 0.811882 0.604995
C51   C     C_R   0.511786 0.403781 0.185782 0.528125
C52   C     C_R   0.486808 0.611262 0.813332 0.580951
C53   C     C_R   0.534427 0.440272 0.293873 -0.332601
C54   C     C_R   0.461379 0.542677 0.705753 -0.345683
C55   C     C_R   0.534592 0.434968 0.346545 0.085819
C56   C     C_R   0.461720 0.549561 0.653246 0.085357
C57   C     C_R   0.469814 0.582636 0.350306 0.499435
C58   C     C_R   0.539759 0.453546 0.650881 0.501488
C59   C     C_R   0.478740 0.609360 0.298983 -0.192569
C60   C     C_R   0.544641 0.474304 0.703546 -0.177135
C61   C     C_R   0.500775 0.515959 0.268091 0.267586
C62   C     C_R   0.503116 0.508449 0.731987 0.308241
C63   C     C_R   0.492936 0.501292 0.106176 -0.050530
C64   C     C_R   0.498916 0.504879 0.892457 -0.041577
C65   C     C_R   0.468175 0.595456 0.133305 -0.035752
C66   C     C_R   0.515003 0.399702 0.864909 -0.022771
C67   C     C_R   0.178393 0.573994 0.543470 0.568207
C68   C     C_R   0.823522 0.475885 0.460853 0.565325
C69   C     C_R   0.445523 0.691956 0.107002 -0.125602
C70   C     C_R   0.530057 0.294125 0.890831 -0.146231
C71   C     C_R   0.513648 0.402632 0.132768 -0.022156
C72   C     C_R   0.484227 0.611142 0.866262 -0.037138
C73   C     C_R   0.478161 0.608220 0.973103 0.041157
C74   C     C_R   0.515422 0.399448 0.025663 0.040276
C75   C     C_R   0.514622 0.397713 0.972039 0.040323
C76   C     C_R   0.473884 0.604016 0.026446 0.038547
C77   C     C_R   0.497305 0.503663 0.946072 0.075517
C78   C     C_R   0.494343 0.501903 0.052553 0.076000
C79   C     C_R   0.464271 0.714074 0.945595 -0.198913
C80   C     C_R   0.536430 0.301826 0.053702 -0.202487
C81   C     C_R   0.467475 0.715449 0.893411 -0.143178
C82   C     C_R   0.535405 0.303452 0.105991 -0.135648
C83   C     C_R   0.179152 0.521580 0.456355 0.565461
C84   C     C_R   0.820423 0.581911 0.539671 0.563121
C85   C     C_R   0.282147 0.636672 0.504056 -0.095205
C86   C     C_R   0.722189 0.460398 0.537604 -0.098475
C87   C     C_R   0.332233 0.623776 0.504732 -0.263144
C88   C     C_R   0.672098 0.458193 0.537492 -0.255781
C89   C     C_R   0.327037 0.400104 0.501922 -0.033897
C90   C     C_R   0.669379 0.584716 0.462672 -0.038907
C91   C     C_R   0.276729 0.414660 0.500404 -0.178679
C92   C     C_R   0.719844 0.583765 0.462759 -0.174764
Cu1   Cu    Cu3+1 0.500000 0.500020 0.550150 1.039868
Cu2   Cu    Cu3+1 0.500000 0.499980 0.449850 1.050521
H1    H     H_    0.963102 0.664585 0.617512 0.130592
H2    H     H_    0.034678 0.514461 0.373490 0.134125
H3    H     H_    0.032676 0.592475 0.625297 0.134143
H4    H     H_    0.969655 0.427885 0.381182 0.130704
H5    H     H_    0.444493 0.236596 0.271367 0.180822
H6    H     H_    0.590481 0.750511 0.711713 0.183169
H7    H     H_    0.393866 0.300267 0.343963 0.160523
H8    H     H_    0.627838 0.701538 0.629435 0.177837
H9    H     H_    0.411989 0.219592 0.427894 0.155555
H10   H     H_    0.593357 0.790082 0.552227 0.146408
H11   H     H_    0.533739 0.011237 0.368768 0.133737
H12   H     H_    0.479398 0.969169 0.638049 0.134051
H13   H     H_    0.478139 0.878638 0.423385 0.178747
H14   H     H_    0.514878 0.118618 0.576223 0.157359
H15   H     H_    0.456443 0.799180 0.874380 0.171382
H16   H     H_    0.552175 0.226210 0.125407 0.182480
H17   H     H_    0.451855 0.799034 0.963487 0.138855
H18   H     H_    0.554841 0.223181 0.036386 0.141827
H19   H     H_    0.425651 0.765461 0.126768 0.190027
H20   H     H_    0.542254 0.211350 0.870728 0.177200
H21   H     H_    0.254562 0.334560 0.499772 0.135937
H22   H     H_    0.738901 0.634487 0.434696 0.146931
H23   H     H_    0.430063 0.774235 0.037653 0.142242
H24   H     H_    0.541780 0.207405 0.959824 0.140223
H25   H     H_    0.429303 0.572331 0.726527 0.174282
H26   H     H_    0.563028 0.390314 0.273953 0.196469
H27   H     H_    0.654420 0.408412 0.566603 0.202887
H28   H     H_    0.353403 0.705581 0.506435 0.165546
H29   H     H_    0.742361 0.413142 0.566742 0.159822
H30   H     H_    0.264943 0.727735 0.505323 0.151133
N1    N     N_R   0.202706 0.544563 0.500175 -0.475680
N2    N     N_R   0.798014 0.526119 0.500376 -0.473256
N3    N     N_R   0.493707 0.505511 0.212745 -0.419769
N4    N     N_R   0.502384 0.507793 0.786785 -0.412997
N5    N     N_R   0.500000 0.499970 0.374520 -0.198076
N6    N     N_R   0.500000 0.500030 0.625480 -0.207486
O1    O     O_R   0.500000 0.319660 0.542350 -0.571662
O2    O     O_R   0.500000 0.680340 0.457650 -0.541263
O3    O     O_R   0.500000 0.319630 0.457650 -0.542023
O4    O     O_R   0.500000 0.680370 0.542350 -0.547149
O5    O     O_R   0.430260 0.500030 0.542340 -0.559449
O6    O     O_R   0.569740 0.499970 0.457660 -0.549366
O7    O     O_R   0.430270 0.500010 0.457650 -0.556631
O8    O     O_R   0.569730 0.499990 0.542350 -0.546003
O9    O     O_2   0.473805 0.714631 0.788761 -0.512862
O10   O     O_2   0.525123 0.299252 0.209207 -0.546907
O11   O     O_2   0.203532 0.609428 0.584093 -0.493976
O12   O     O_2   0.800234 0.408805 0.426216 -0.498435
O13   O     O_2   0.793296 0.643401 0.574505 -0.498625
O14   O     O_2   0.204952 0.483000 0.415807 -0.505445
O15   O     O_2   0.432461 0.663844 0.209902 -0.555007
O16   O     O_2   0.528840 0.299258 0.785708 -0.586715
C93   C     C_2   0.420021 0.615761 0.630930 0.473538
H31   H     H_    0.383809 0.593179 0.642056 0.046736
O17   O     O_2   0.425462 0.702382 0.603201 -0.534247
C94   C     C_2   0.575726 0.365414 0.368784 0.427728
H32   H     H_    0.611893 0.381883 0.355569 0.035000
O18   O     O_2   0.570167 0.283585 0.398663 -0.542392
O19   O     O_3   0.519006 0.085257 0.270724 -0.538220
C95   C     C_3   0.567273 0.046720 0.280164 0.114441
H33   H     H_    0.568609 0.952926 0.296342 0.159990
H34   H     H_    0.585412 0.112821 0.305619 0.138163
C96   C     C_3   0.595042 0.039554 0.230895 -0.693134
H35   H     H_    0.596703 0.132400 0.214329 0.256464
H36   H     H_    0.632389 0.003607 0.237660 0.188212
H37   H     H_    0.577199 0.976859 0.204012 0.267775
O20   O     O_3   0.514723 0.890348 0.729783 -0.538619
C97   C     C_3   0.488192 0.003517 0.734053 0.099015
H38   H     H_    0.452041 0.995263 0.716695 0.149677
H39   H     H_    0.507798 0.079868 0.716647 0.134424
C98   C     C_3   0.480542 0.035308 0.789335 -0.666020
H40   H     H_    0.515865 0.041965 0.808477 0.251964
H41   H     H_    0.460184 0.124834 0.793296 0.204437
H42   H     H_    0.459580 0.963232 0.807542 0.247571
C99   C     C_2   0.348047 0.273153 0.505434 0.288536
H43   H     H_    0.326539 0.195405 0.494949 0.090009
O21   O     O_2   0.388473 0.253048 0.521959 -0.575056
C100  C     C_2   0.644386 0.662698 0.424858 0.338236
H44   H     H_    0.661958 0.679390 0.389315 0.079579
O22   O     O_2   0.605639 0.715112 0.433887 -0.558389
O23   O     O_3   0.435434 0.650593 0.378026 -0.571721
C101  C     C_3   0.392002 0.665506 0.350272 0.024804
H45   H     H_    0.384403 0.583059 0.326426 0.154232
H46   H     H_    0.393517 0.747476 0.326051 0.159992
C102  C     C_3   0.349653 0.686197 0.385748 -0.730731
H47   H     H_    0.357465 0.759392 0.413783 0.241490
H48   H     H_    0.316978 0.714721 0.364265 0.224886
H49   H     H_    0.342444 0.598749 0.404734 0.253436
O24   O     O_3   0.575970 0.389578 0.624730 -0.580812
C103  C     C_3   0.576983 0.264636 0.639274 0.036663
H50   H     H_    0.540204 0.227377 0.639739 0.132886
H51   H     H_    0.592435 0.253235 0.677387 0.151822
C104  C     C_3   0.608589 0.188059 0.602999 -0.778094
H52   H     H_    0.646782 0.213274 0.607100 0.238720
H53   H     H_    0.605897 0.088731 0.611381 0.215094
H54   H     H_    0.596956 0.204177 0.563727 0.252532
C105  C     C_2   0.485193 0.741641 0.287639 0.460434
H55   H     H_    0.469620 0.813528 0.311983 0.060791
O25   O     O_2   0.510625 0.771956 0.252822 -0.527196
C106  C     C_2   0.593671 0.469361 0.726252 0.403157
H56   H     H_    0.624645 0.438140 0.704025 0.094549
O26   O     O_2   0.600749 0.506438 0.768965 -0.520884
C107  C     C_2   0.123174 0.574154 0.641444 0.471840
H57   H     H_    0.109217 0.634630 0.671272 0.044818
O27   O     O_2   0.154267 0.495851 0.651271 -0.487041
C108  C     C_2   0.878991 0.422628 0.364785 0.468022
H58   H     H_    0.895146 0.347621 0.342413 0.045523
O28   O     O_2   0.845472 0.483956 0.347351 -0.497163
C109  C     C_2   0.872900 0.650181 0.634858 0.471801
H59   H     H_    0.884231 0.729181 0.656651 0.046694
O29   O     O_2   0.843815 0.581877 0.653038 -0.490799
C110  C     C_2   0.125002 0.537060 0.357979 0.468345
H60   H     H_    0.111599 0.483380 0.326640 0.044327
O30   O     O_2   0.155871 0.611763 0.350251 -0.494329

loop_
_geom_bond_atom_site_label_1
_geom_bond_atom_site_label_2
_ccdc_geom_bond_type
C15   C18   A    
C106  O26   D    
C109  H59   S    
C63   C65   A    
C98   H40   S    
C3    C91   A    
C10   C28   A    
C3    C85   A    
C99   O21   D    
C64   C77   A    
C59   C105  S    
C93   H31   S    
C71   C82   A    
C52   O9    S    
O20   C97   S    
C52   N4    A    
C53   H26   S    
C60   C106  S    
C5    C20   A    
C70   H20   S    
C15   C19   A    
C6    C19   A    
C109  O29   D    
C13   C23   S    
C96   H35   S    
C49   C65   A    
C45   C76   A    
C52   C72   A    
C82   H16   S    
C57   N5    A    
C93   O17   D    
C76   C78   A    
C5    C11   A    
C2    O2    A    
C67   N1    A    
C6    C12   A    
C83   O14   S    
C103  H51   S    
C110  O30   D    
C57   C59   A    
C4    C86   A    
C58   C60   A    
Cu2   O3    S    
C103  H50   S    
C46   H24   S    
C85   H30   S    
C60   C62   A    
C99   H43   S    
C14   C24   S    
C107  O27   D    
C14   C90   A    
C104  H54   S    
Cu1   O8    S    
C17   C19   A    
C57   O23   S    
C53   C61   A    
C38   O20   S    
C9    C107  S    
C16   C17   A    
C55   N5    A    
Cu2   O6    S    
C32   H10   S    
C68   O12   S    
C89   C91   A    
C95   H34   S    
C72   C81   A    
C13   C87   A    
C102  H49   S    
C51   O10   S    
C24   O6    A    
C101  H46   S    
C106  H56   S    
C96   H36   S    
C74   C80   A    
C54   H25   S    
C33   C48   S    
C29   C31   A    
C41   C43   A    
C80   H18   S    
C26   C110  S    
C51   C71   A    
C83   N1    A    
C1    O3    A    
C46   C75   A    
C100  O22   D    
C97   H39   S    
C53   C55   A    
C84   N2    A    
C49   N3    A    
C54   C56   A    
C59   C61   A    
Cu2   N5    S    
C104  H53   S    
C74   C75   A    
C85   C87   A    
C36   H12   S    
C105  H55   S    
C30   C32   A    
C37   O19   S    
C30   C40   A    
C95   C96   S    
C80   C82   A    
Cu1   O4    S    
C79   C81   A    
C110  H60   S    
C108  H58   S    
C6    C8    A    
C21   H1    S    
C12   C84   A    
C24   O8    A    
C45   C69   A    
Cu2   O2    S    
C58   O24   S    
C32   C34   A    
C31   H9    S    
O24   C103  S    
C105  O25   D    
C35   H11   S    
C97   C98   S    
C75   C77   A    
C1    C44   S    
C90   C92   A    
O23   C101  S    
C15   C21   A    
C2    C43   S    
C16   C20   A    
C69   H19   S    
C29   C39   A    
C31   C33   A    
C73   C79   A    
C49   O15   S    
C23   O5    A    
C61   N3    S    
Cu1   Cu2   S    
C2    O4    A    
C92   H22   S    
C95   H33   S    
C30   H8    S    
C29   H7    S    
C8    C10   A    
C101  H45   S    
C81   H15   S    
C8    C68   A    
C96   H37   S    
C22   C26   A    
C73   C76   A    
C94   O18   D    
C62   N4    S    
C50   N4    A    
C90   C100  S    
Cu1   N6    S    
C67   O11   S    
C68   N2    A    
C100  H44   S    
C9    C27   A    
C55   C94   S    
C5    C7    A    
C97   H38   S    
C84   O13   S    
C28   H4    S    
C65   C69   A    
C21   C25   A    
C27   H3    S    
C16   C22   A    
C41   H13   S    
C13   C89   A    
C17   C28   A    
C22   H2    S    
C23   O7    A    
C18   C27   A    
C63   C71   A    
C88   H27   S    
C25   C109  S    
C10   C108  S    
C40   H6    S    
C87   H28   S    
C50   C66   A    
Cu1   O5    S    
C18   C20   A    
C79   H17   S    
C98   H42   S    
C54   C62   A    
C12   C25   A    
C11   C26   A    
C103  C104  S    
C4    N2    S    
C3    N1    S    
C51   N3    A    
C101  C102  S    
C56   C93   S    
C36   C38   A    
C42   C44   A    
C89   C99   S    
C35   C37   A    
C37   C39   A    
C38   C40   A    
C50   O16   S    
C66   C70   A    
C42   H14   S    
C58   N6    A    
C1    O1    A    
C33   C35   A    
C41   C48   A    
C91   H21   S    
C86   C88   A    
C42   C47   A    
C64   C72   A    
C107  H57   S    
C45   H23   S    
C46   C70   A    
C14   C88   A    
C102  H47   S    
C7    C9    A    
C39   H5    S    
C104  H52   S    
C34   C36   A    
C98   H41   S    
C74   C78   A    
C7    C67   A    
C86   H29   S    
Cu2   O7    S    
C73   C77   A    
C94   H32   S    
C11   C83   A    
C34   C47   S    
C4    C92   A    
O19   C95   S    
Cu1   O1    S    
C43   C47   A    
C108  O28   D    
C56   N6    A    
C44   C48   A    
C64   C66   A    
C102  H48   S    
C63   C78   A    
