data_mof_unit_2177.cif
_audit_creation_date              2012-12-10T18:53:00-0500
_audit_creation_method            fapswitch 2.2
_symmetry_space_group_name_H-M    P1
_symmetry_Int_Tables_number       1
_space_group_crystal_system       triclinic
_cell_length_a                    9.905807
_cell_length_b                    10.624538
_cell_length_c                    16.842693
_cell_angle_alpha                 90.621463
_cell_angle_beta                  84.194334
_cell_angle_gamma                 89.015676
_cell_volume                      1763.10933931

loop_
_atom_site_label
_atom_site_type_symbol
_atom_type_description
_atom_site_fract_x
_atom_site_fract_y
_atom_site_fract_z
_atom_type_partial_charge
C1    C     C_R   0.499061 0.739479 0.500086 1.048219
C2    C     C_R   0.500939 0.260521 0.499914 1.048229
C3    C     C_R   0.543143 0.935202 0.565848 0.332945
C4    C     C_R   0.456856 0.064798 0.434152 0.332943
C5    C     C_R   0.546128 0.065099 0.565195 0.308791
C6    C     C_R   0.453871 0.934901 0.434805 0.308787
C7    C     C_R   0.502744 0.128033 0.499419 -0.346119
C8    C     C_R   0.497255 0.871966 0.500580 -0.346118
C9    C     C_R   0.941974 0.442740 0.439158 0.042494
C10   C     C_R   0.058025 0.557260 0.560842 0.042518
C11   C     C_R   0.084879 0.444476 0.439347 -0.114818
C12   C     C_R   0.915121 0.555524 0.560653 -0.114815
C13   C     C_R   0.480401 0.495665 0.652803 0.952204
C14   C     C_R   0.519599 0.504343 0.347197 0.952203
C15   C     C_R   0.468531 0.474144 0.738083 -0.091710
C16   C     C_R   0.531467 0.525912 0.261921 -0.091690
C17   C     C_R   0.579428 0.420749 0.771893 -0.090012
C18   C     C_R   0.420540 0.579264 0.228117 -0.089927
C19   C     C_R   0.572220 0.402366 0.853193 -0.103029
C20   C     C_R   0.427755 0.597712 0.146824 -0.103020
C21   C     C_R   0.455426 0.439912 0.901483 0.031766
C22   C     C_R   0.544583 0.560265 0.098529 0.031732
C23   C     C_R   0.340992 0.487225 0.868007 0.446773
C24   C     C_R   0.659047 0.513008 0.132001 0.446774
C25   C     C_R   0.347678 0.503167 0.785828 -0.194407
C26   C     C_R   0.652354 0.497005 0.214175 -0.194436
C27   C     C_2   0.465402 0.451782 0.986267 0.282466
C28   C     C_2   0.534612 0.548398 0.013744 0.282557
H1    H     H_    0.672749 0.395088 0.735734 0.197224
H2    H     H_    0.327192 0.604843 0.264277 0.197187
H3    H     H_    0.739018 0.457484 0.240035 0.183686
H4    H     H_    0.261041 0.542733 0.759964 0.183728
H5    H     H_    0.339186 0.633384 0.120811 0.205259
H6    H     H_    0.660766 0.366653 0.879210 0.205239
H7    H     H_    0.149782 0.399116 0.391426 0.169403
H8    H     H_    0.850218 0.600884 0.608573 0.169406
N1    N     N_R   0.142790 0.500030 0.500020 -0.092570
N2    N     N_R   0.857210 0.499970 0.499980 -0.092575
O1    O     O_R   0.385380 0.683250 0.500010 -0.540483
O2    O     O_R   0.614620 0.316750 0.499990 -0.540485
O3    O     O_R   0.614710 0.683220 0.500000 -0.607545
O4    O     O_R   0.385290 0.316780 0.500000 -0.607539
O5    O     O_R   0.371780 0.500040 0.615800 -0.616463
O6    O     O_R   0.628220 0.499960 0.384200 -0.616478
O7    O     O_R   0.601110 0.500010 0.615800 -0.619687
O8    O     O_R   0.398890 0.499990 0.384200 -0.619698
Zn1   Zn    Zn3+2 0.346870 0.500020 0.500000 1.051137
Zn2   Zn    Zn3+2 0.653130 0.499980 0.500000 1.051133
Cl1   Cl    Cl    0.609415 0.666161 0.951206 -0.444613
Cl2   Cl    Cl    0.390617 0.334003 0.048800 -0.444724
Cl3   Cl    Cl    0.192815 0.536055 0.927804 -0.444195
Cl4   Cl    Cl    0.807274 0.464314 0.072201 -0.444180
Cl5   Cl    Cl    0.592474 0.852198 0.649305 -0.459894
Cl6   Cl    Cl    0.407525 0.147801 0.350695 -0.459891
Cl7   Cl    Cl    0.599269 0.148469 0.647796 -0.514202
Cl8   Cl    Cl    0.400728 0.851530 0.352204 -0.514197
C29   C     C_2   0.890729 0.376536 0.371429 0.465265
H9    H     H_    0.941234 0.388465 0.311800 0.059302
O9    O     O_2   0.800440 0.300317 0.381495 -0.497186
C30   C     C_2   0.109269 0.623465 0.628571 0.465226
H10   H     H_    0.058750 0.611548 0.688199 0.059315
O10   O     O_2   0.199571 0.699672 0.618507 -0.497204

loop_
_geom_bond_atom_site_label_1
_geom_bond_atom_site_label_2
_ccdc_geom_bond_type
C24   Cl4   S    
C10   C30   S    
C15   C17   A    
C11   N1    A    
C18   H2    S    
C14   C16   S    
N1    Zn1   S    
C1    C8    S    
C17   H1    S    
C28   Cl1   S    
C18   C20   A    
C2    C7    S    
C27   Cl2   S    
C9    C11   A    
C3    C5    A    
C25   H4    S    
C23   C25   A    
C21   C27   S    
C26   H3    S    
C14   O8    A    
C16   C18   A    
C22   C28   S    
C12   N2    A    
C3    Cl5   S    
C24   C26   A    
C29   H9    S    
C10   C12   A    
C2    O4    A    
C10   N1    A    
C20   H5    S    
C30   O10   D    
C9    N2    A    
C17   C19   A    
O3    Zn2   S    
C20   C22   A    
C9    C29   S    
O4    Zn1   S    
C21   C23   A    
C13   C15   S    
C16   C26   A    
C22   C24   A    
C29   O9    D    
C4    C6    A    
C12   H8    S    
C1    O1    A    
C2    O2    A    
C13   O5    A    
N2    Zn2   S    
C13   O7    A    
C15   C25   A    
C14   O6    A    
C3    C8    A    
O7    Zn2   S    
C1    O3    A    
C27   C28   D    
C5    C7    A    
O2    Zn2   S    
C4    C7    A    
C6    C8    A    
C4    Cl6   S    
O8    Zn1   S    
O1    Zn1   S    
O5    Zn1   S    
C11   H7    S    
C5    Cl7   S    
C23   Cl3   S    
O6    Zn2   S    
C6    Cl8   S    
C30   H10   S    
C19   C21   A    
C19   H6    S    
