data_mof_unit_1828.cif
_audit_creation_date              2012-12-10T17:30:20-0500
_audit_creation_method            fapswitch 2.2
_symmetry_space_group_name_H-M    P1
_symmetry_Int_Tables_number       1
_space_group_crystal_system       triclinic
_cell_length_a                    12.077693
_cell_length_b                    12.823343
_cell_length_c                    14.899648
_cell_angle_alpha                 91.032123
_cell_angle_beta                  86.984644
_cell_angle_gamma                 94.192074
_cell_volume                      2298.01113563

loop_
_atom_site_label
_atom_site_type_symbol
_atom_type_description
_atom_site_fract_x
_atom_site_fract_y
_atom_site_fract_z
_atom_type_partial_charge
C1    C     C_R   0.522752 0.700377 0.500725 0.912016
C2    C     C_R   0.370921 0.139217 0.552297 -0.250861
C3    C     C_R   0.450755 0.867598 0.540473 -0.210187
C4    C     C_R   0.554760 0.132301 0.479617 -0.188659
C5    C     C_R   0.457902 0.975601 0.538311 0.082406
C6    C     C_R   0.555754 0.027396 0.498065 0.075239
C7    C     C_R   0.950138 0.411320 0.406140 -0.119977
C8    C     C_R   0.052996 0.611491 0.573815 -0.114108
C9    C     C_R   0.835285 0.419235 0.417720 -0.007147
C10   C     C_R   0.167092 0.597939 0.567075 -0.014694
C11   C     C_R   0.859697 0.540153 0.538871 0.056982
C12   C     C_R   0.477499 0.299599 0.500982 0.916774
C13   C     C_R   0.138893 0.452408 0.468005 0.065811
C14   C     C_R   0.977949 0.541407 0.526653 -0.048977
C15   C     C_R   0.023092 0.467739 0.465595 -0.038074
C16   C     C_R   0.501072 0.501997 0.672536 0.902124
C17   C     C_R   0.498955 0.497911 0.327462 0.913855
C18   C     C_R   0.512953 0.400859 0.184140 -0.052188
C19   C     C_R   0.486863 0.598934 0.815846 -0.081207
C20   C     C_R   0.497089 0.494379 0.232173 -0.104743
C21   C     C_R   0.503216 0.505548 0.767804 -0.123624
C22   C     C_R   0.479569 0.586926 0.190050 -0.239649
C23   C     C_R   0.466328 0.687064 0.962335 -0.147920
C24   C     C_R   0.522096 0.413320 0.809861 -0.228746
C25   C     C_R   0.480667 0.589738 0.097532 0.130601
C26   C     C_R   0.521314 0.410580 0.902373 0.125558
C27   C     C_R   0.499399 0.498165 0.046868 0.062346
C28   C     C_R   0.502398 0.502109 0.953048 0.061497
C29   C     C_R   0.515147 0.402850 0.089938 0.041515
C30   C     C_R   0.485998 0.597275 0.909994 0.042337
C31   C     C_R   0.464141 0.683216 0.055283 -0.186939
C32   C     C_R   0.538078 0.317162 0.944618 -0.182407
C33   C     C_2   0.522820 0.301915 0.232652 0.884536
C34   C     C_R   0.535304 0.313179 0.037581 -0.149471
C35   C     C_2   0.473863 0.697195 0.767339 0.895580
C36   C     C_2   0.988485 0.354510 0.324245 0.914102
C37   C     C_2   0.019851 0.706942 0.621985 0.920017
C38   C     C_2   0.760122 0.023566 0.444302 0.958158
C39   C     C_2   0.269374 0.985579 0.622995 0.894073
C40   C     C_2   0.181782 0.354878 0.430963 0.951639
C41   C     C_2   0.808584 0.589036 0.619626 0.964258
C42   C     C_R   0.464491 0.187981 0.507853 -0.083762
C43   C     C_R   0.538597 0.812217 0.505939 -0.078613
C44   C     C_R   0.649864 0.971789 0.472682 -0.065167
C45   C     C_R   0.366699 0.032627 0.569095 -0.031800
C46   C     C_R   0.639124 0.863355 0.475783 -0.184846
H1    H     H_    0.466583 0.657218 0.229833 0.143513
H2    H     H_    0.708520 0.818732 0.453285 0.211750
H3    H     H_    0.224658 0.651614 0.601322 0.195688
H4    H     H_    0.779268 0.377811 0.372743 0.204719
H5    H     H_    0.457974 0.155826 0.259650 0.344921
H6    H     H_    0.535811 0.843615 0.738150 0.366512
H7    H     H_    0.968603 0.226627 0.244293 0.368934
H8    H     H_    0.023317 0.793718 0.736029 0.358067
H9    H     H_    0.876327 0.142271 0.462995 0.390228
H10   H     H_    0.212834 0.890847 0.724607 0.371389
H11   H     H_    0.173171 0.197386 0.435147 0.360978
H12   H     H_    0.535473 0.343121 0.770055 0.151838
H13   H     H_    0.783896 0.586874 0.754487 0.357449
H14   H     H_    0.449217 0.753486 0.094245 0.160741
H15   H     H_    0.553262 0.246953 0.905650 0.163952
H16   H     H_    0.451502 0.760589 0.932258 0.183799
H17   H     H_    0.550070 0.239645 0.067665 0.179756
H18   H     H_    0.624034 0.171776 0.441958 0.214114
H19   H     H_    0.374400 0.825441 0.564342 0.208855
H20   H     H_    0.303704 0.185043 0.577551 0.208353
N1    N     N_R   0.207800 0.519350 0.516680 -0.156247
N2    N     N_R   0.792200 0.480650 0.483320 -0.154566
O1    O     O_R   0.421700 0.658830 0.504450 -0.634282
O2    O     O_R   0.442923 0.218556 0.222867 -0.767136
O3    O     O_2   0.393813 0.704276 0.721535 -0.598384
O4    O     O_R   0.553386 0.781344 0.774484 -0.775502
O5    O     O_2   0.061373 0.395122 0.273490 -0.575580
O6    O     O_R   0.936496 0.257023 0.302448 -0.774047
O7    O     O_2   0.968890 0.770449 0.583652 -0.563181
O8    O     O_R   0.051189 0.726293 0.710024 -0.767730
O9    O     O_2   0.818227 0.983473 0.385495 -0.579642
O10   O     O_R   0.799725 0.115625 0.487414 -0.772606
O11   O     O_2   0.176153 0.012023 0.610648 -0.566348
O12   O     O_R   0.578300 0.341170 0.495550 -0.604689
O13   O     O_R   0.284884 0.914953 0.690848 -0.782254
O14   O     O_2   0.249653 0.357018 0.367247 -0.551621
O15   O     O_R   0.139692 0.259196 0.466841 -0.796630
O16   O     O_2   0.757847 0.667297 0.613504 -0.569116
O17   O     O_R   0.822062 0.546881 0.703873 -0.780890
O18   O     O_R   0.609310 0.646410 0.493750 -0.592823
O19   O     O_R   0.390690 0.353590 0.506250 -0.622801
O20   O     O_R   0.406180 0.506230 0.637500 -0.591027
O21   O     O_R   0.593820 0.493770 0.362500 -0.611942
O22   O     O_R   0.593800 0.493820 0.626800 -0.613071
O23   O     O_R   0.406200 0.506180 0.373200 -0.575512
O24   O     O_2   0.600420 0.293554 0.280833 -0.641171
Zn1   Zn    Zn3+2 0.374730 0.508290 0.507150 1.016042
Zn2   Zn    Zn3+2 0.625270 0.491710 0.492850 1.019540

loop_
_geom_bond_atom_site_label_1
_geom_bond_atom_site_label_2
_ccdc_geom_bond_type
C25   C31   A    
C16   O22   A    
C16   C21   S    
C27   C29   A    
C7    C36   S    
H7    O6    S    
C17   O23   A    
H10   O13   S    
C10   N1    A    
C26   C32   A    
C3    C43   A    
C19   C21   A    
C24   C26   A    
C32   H15   S    
O1    Zn1   S    
C5    C6    A    
C11   C14   A    
O19   Zn1   S    
C17   C20   S    
O21   Zn2   S    
C13   C40   S    
C12   C42   S    
O18   Zn2   S    
C32   C34   A    
C1    C43   S    
C23   H16   S    
C22   C25   A    
H11   O15   S    
H5    O2    S    
C39   C45   S    
C7    C15   A    
C22   H1    S    
C37   O7    D    
C35   O3    D    
C6    C44   A    
C40   O15   S    
C3    H19   S    
C43   C46   A    
C44   C46   A    
O22   Zn2   S    
C2    C45   A    
C46   H2    S    
C23   C30   A    
C40   O14   D    
C17   O21   A    
C39   O13   S    
C4    C6    A    
C33   O24   D    
H9    O10   S    
C38   O10   S    
C3    C5    A    
C41   O16   D    
C5    C45   A    
C29   C34   A    
N2    Zn2   S    
C39   O11   D    
C31   H14   S    
H13   O17   S    
C38   C44   S    
H6    O4    S    
O23   Zn1   S    
C18   C29   A    
C36   O6    S    
C33   O2    S    
H8    O8    S    
C8    C10   A    
C37   O8    S    
C20   C22   A    
C35   O4    S    
C13   C15   A    
C8    C37   S    
O12   Zn2   S    
C11   N2    A    
C16   O20   A    
C13   N1    A    
C1    O18   A    
C7    C9    A    
O20   Zn1   S    
C8    C14   A    
C12   O19   A    
C9    H4    S    
C2    H20   S    
C38   O9    D    
C25   C27   A    
C41   O17   S    
C4    H18   S    
C26   C28   A    
C28   C30   A    
C9    N2    A    
C19   C35   S    
C19   C30   A    
C4    C42   A    
C2    C42   A    
C12   O12   A    
C34   H17   S    
C11   C41   S    
C18   C20   A    
C18   C33   S    
C1    O1    A    
C36   O5    D    
C24   H12   S    
C21   C24   A    
C27   C28   A    
N1    Zn1   S    
C14   C15   A    
C10   H3    S    
C23   C31   A    
