data_mof_unit_3343.cif
_audit_creation_date              2012-12-10T17:33:44-0500
_audit_creation_method            fapswitch 2.2
_symmetry_space_group_name_H-M    P1
_symmetry_Int_Tables_number       1
_space_group_crystal_system       triclinic
_cell_length_a                    11.692637
_cell_length_b                    12.331796
_cell_length_c                    13.183498
_cell_angle_alpha                 116.627077
_cell_angle_beta                  77.938854
_cell_angle_gamma                 101.099369
_cell_volume                      1651.16232843

loop_
_atom_site_label
_atom_site_type_symbol
_atom_type_description
_atom_site_fract_x
_atom_site_fract_y
_atom_site_fract_z
_atom_type_partial_charge
C1    C     C_R   0.510698 0.854832 0.286544 0.770320
C2    C     C_R   0.457478 0.228053 0.834307 -0.041803
C3    C     C_R   0.593090 0.814021 0.086280 -0.187144
C4    C     C_R   0.618263 0.734468 0.971967 -0.146856
C5    C     C_R   0.575204 0.611595 0.933991 -0.156278
C6    C     C_R   0.501418 0.566061 0.009739 0.077008
C7    C     C_R   0.465054 0.650459 0.123015 0.012042
C8    C     C_R   0.461185 0.440001 0.976233 0.004560
C9    C     C_R   0.376956 0.401571 0.051951 0.059701
C10   C     C_R   0.332069 0.488081 0.159044 0.450327
C11   C     C_R   0.373807 0.611385 0.192052 -0.287962
C12   C     C_R   0.715721 0.999565 0.499791 0.818774
C13   C     C_R   0.502807 0.350500 0.869359 -0.217564
C14   C     C_R   0.376866 0.190607 0.910050 -0.217992
C15   C     C_R   0.519214 0.772832 0.163457 -0.070083
C16   C     C_R   0.685101 0.344963 0.327253 -0.292912
C17   C     C_R   0.342715 0.760238 0.645622 0.074738
C18   C     C_R   0.308556 0.664375 0.677870 -0.255532
C19   C     C_R   0.368117 0.560904 0.623369 -0.197358
C20   C     C_R   0.463301 0.552164 0.535444 -0.018489
C21   C     C_R   0.495497 0.653189 0.505705 0.271029
C22   C     C_R   0.527195 0.447287 0.475596 -0.043943
C23   C     C_R   0.482764 0.145115 0.713348 0.793162
C24   C     C_R   0.621222 0.445871 0.387634 0.167115
C25   C     C_R   0.651428 0.545227 0.360469 -0.281223
C26   C     C_R   0.590449 0.646686 0.418532 -0.181361
C27   C     C_R   0.502221 0.342752 0.498516 0.022041
C28   C     C_R   0.656226 0.245497 0.354114 0.077401
C29   C     C_R   0.284286 0.000323 0.500065 0.816866
C30   C     C_1   0.837386 0.999079 0.499778 -0.182472
C31   C     C_1   0.940007 0.999356 0.499711 0.001096
C32   C     C_1   0.060018 0.000077 0.499682 0.000735
C33   C     C_1   0.162636 0.000528 0.499774 -0.182416
C34   C     C_R   0.337428 0.276685 0.018499 -0.149660
Cu1   Cu    Cu3+1 0.526510 0.098270 0.475420 0.937777
Cu2   Cu    Cu3+1 0.473490 0.901730 0.524580 0.923225
H1    H     H_    0.340652 0.095823 0.883830 0.149119
H2    H     H_    0.723558 0.544871 0.293567 0.158995
H3    H     H_    0.757017 0.343145 0.259821 0.144804
H4    H     H_    0.432378 0.335750 0.563707 0.125423
H5    H     H_    0.296049 0.840270 0.688461 0.127818
H6    H     H_    0.337746 0.489417 0.651676 0.140262
H7    H     H_    0.235633 0.670269 0.745308 0.148100
H8    H     H_    0.621387 0.718180 0.391950 0.208735
H9    H     H_    0.273692 0.245355 0.074929 0.179087
H10   H     H_    0.570001 0.373284 0.810260 0.144855
H11   H     H_    0.634060 0.907494 0.114858 0.148658
H12   H     H_    0.599151 0.555679 0.844190 0.127627
H13   H     H_    0.674593 0.767487 0.912906 0.143317
H14   H     H_    0.330633 0.676417 0.270865 0.184748
H15   H     H_    0.705140 0.167198 0.307892 0.123525
N1    N     N_R   0.566700 0.246290 0.438210 -0.180346
N2    N     N_R   0.434010 0.754320 0.561170 -0.208310
O1    O     O_R   0.533340 0.972510 0.318140 -0.581268
O2    O     O_R   0.488570 0.806530 0.359650 -0.606594
O3    O     O_R   0.685190 0.083000 0.479260 -0.572659
O4    O     O_R   0.640410 0.917020 0.520770 -0.587013
O5    O     O_R   0.511430 0.193470 0.640350 -0.586951
O6    O     O_R   0.466660 0.027490 0.681860 -0.583946
O7    O     O_R   0.359590 0.082980 0.479230 -0.574229
O8    O     O_R   0.314810 0.917000 0.520740 -0.585613
O9    O     O_3   0.240232 0.452425 0.227111 -0.589476
C35   C     C_3   0.279873 0.470270 0.327998 -0.301605
H16   H     H_    0.290864 0.568823 0.387053 0.181463
H17   H     H_    0.363063 0.429044 0.309059 0.162421
H18   H     H_    0.212211 0.424412 0.373007 0.192183

loop_
_geom_bond_atom_site_label_1
_geom_bond_atom_site_label_2
_ccdc_geom_bond_type
C16   C28   A    
C23   O5    A    
C23   O6    A    
C1    O1    A    
C35   H17   S    
C24   C25   A    
C14   C34   A    
C6    C7    A    
C1    C15   S    
C29   C33   S    
C25   H2    S    
C21   N2    A    
C9    C10   A    
C27   H4    S    
C19   C20   A    
C19   H6    S    
C4    H13   S    
C21   C26   A    
Cu2   O6    S    
C32   C33   T    
C20   C21   A    
C7    C15   A    
C17   C18   A    
C1    O2    A    
C35   H18   S    
C26   H8    S    
C16   C24   A    
C11   H14   S    
C12   O3    A    
C18   H7    S    
C10   O9    S    
Cu1   O1    S    
C7    C11   A    
C28   N1    A    
C30   C31   T    
O9    C35   S    
C34   H9    S    
Cu1   O5    S    
C12   O4    A    
C3    H11   S    
C28   H15   S    
C20   C22   A    
C9    C34   A    
Cu2   O4    S    
C29   O8    A    
C22   C27   A    
C5    C6    A    
C2    C14   A    
C5    H12   S    
C22   C24   A    
Cu1   O3    S    
C17   H5    S    
C10   C11   A    
C16   H3    S    
Cu2   O8    S    
Cu1   O7    S    
C8    C13   A    
C17   N2    A    
Cu1   N1    S    
C3    C15   A    
C27   N1    A    
C18   C19   A    
C2    C23   S    
Cu2   O2    S    
C2    C13   A    
C13   H10   S    
C8    C9    A    
C6    C8    A    
Cu2   N2    S    
C12   C30   S    
C25   C26   A    
C29   O7    A    
C31   C32   S    
C3    C4    A    
C35   H16   S    
C4    C5    A    
C14   H1    S    
Cu1   Cu2   S    
