data_mof_unit_3731.cif
_audit_creation_date              2012-12-10T17:44:30-0500
_audit_creation_method            fapswitch 2.2
_symmetry_space_group_name_H-M    P1
_symmetry_Int_Tables_number       1
_space_group_crystal_system       triclinic
_cell_length_a                    9.893461
_cell_length_b                    10.724461
_cell_length_c                    15.545311
_cell_angle_alpha                 91.435661
_cell_angle_beta                  67.931204
_cell_angle_gamma                 89.501393
_cell_volume                      1527.77201698

loop_
_atom_site_label
_atom_site_type_symbol
_atom_type_description
_atom_site_fract_x
_atom_site_fract_y
_atom_site_fract_z
_atom_type_partial_charge
C1    C     C_R   0.501750 0.740092 0.494227 0.891867
C2    C     C_R   0.402864 0.545422 0.916717 0.099971
C3    C     C_R   0.258209 0.510551 0.970257 0.176354
C4    C     C_R   0.502686 0.571460 0.960310 0.062532
C5    C     C_R   0.463330 0.542695 0.054740 0.071817
C6    C     C_R   0.316443 0.513106 0.107424 -0.225607
C7    C     C_R   0.215187 0.499498 0.065792 -0.241793
C8    C     C_R   0.640483 0.624590 0.912677 -0.217334
C9    C     C_R   0.741086 0.639902 0.954655 -0.212957
C10   C     C_R   0.709163 0.599700 0.044420 0.166133
C11   C     C_R   0.571621 0.547172 0.093825 0.096931
C12   C     C_R   0.408677 0.502117 0.675832 0.870436
C13   C     C_R   0.812118 0.612584 0.086211 -0.216088
C14   C     C_R   0.779039 0.574231 0.176835 -0.210266
C15   C     C_R   0.547126 0.498998 0.180694 -0.249506
C16   C     C_R   0.253689 0.891135 0.476712 -0.154929
C17   C     C_R   0.119038 0.953456 0.504605 -0.159959
C18   C     C_R   0.097746 0.066189 0.554239 -0.130057
C19   C     C_R   0.215292 0.122384 0.567304 -0.131860
C20   C     C_R   0.356101 0.065318 0.530794 0.100114
C21   C     C_R   0.369627 0.941265 0.498748 0.121040
C22   C     C_R   0.498747 0.874058 0.490685 -0.116457
C23   C     C_R   0.494337 0.261108 0.509537 0.884355
C24   C     C_R   0.620050 0.936118 0.494607 -0.220781
C25   C     C_R   0.615178 0.063056 0.506548 -0.205903
C26   C     C_R   0.485503 0.128606 0.521636 -0.134601
C27   C     C_R   0.790978 0.670426 0.617579 -0.211836
C28   C     C_R   0.827805 0.754267 0.674570 -0.305266
C29   C     C_R   0.966640 0.750742 0.677725 -0.005711
C30   C     C_R   0.069213 0.663601 0.620755 -0.226871
C31   C     C_R   0.037205 0.581674 0.559122 0.123652
C32   C     C_R   0.893197 0.583170 0.558301 0.194486
C33   C     C_R   0.962236 0.420789 0.444028 -0.137825
C34   C     C_R   0.591068 0.500774 0.324253 0.875085
C35   C     C_R   0.105615 0.421135 0.443808 -0.118709
C36   C     C_R   0.351147 0.510804 0.777070 -0.039787
C37   C     C_R   0.644913 0.518911 0.224514 -0.059159
C38   C     C_R   0.159792 0.483459 0.926985 -0.213871
C39   C     C_R   0.205830 0.484508 0.830574 -0.180005
C40   C     C_R   0.446902 0.543393 0.820258 -0.260043
H1    H     H_    0.104215 0.475488 0.108074 0.149504
H2    H     H_    0.915988 0.655739 0.049909 0.151309
H3    H     H_    0.720166 0.886962 0.487225 0.171820
H4    H     H_    0.265665 0.806284 0.435491 0.168406
H5    H     H_    0.030282 0.912674 0.489584 0.143246
H6    H     H_    0.991495 0.112026 0.579996 0.145056
H7    H     H_    0.194710 0.210066 0.606396 0.158208
H8    H     H_    0.714109 0.109780 0.502241 0.169452
H9    H     H_    0.935847 0.356134 0.398379 0.144618
H10   H     H_    0.680866 0.677036 0.622953 0.219275
H11   H     H_    0.745778 0.820738 0.717746 0.195192
H12   H     H_    0.450158 0.447254 0.216866 0.149500
H13   H     H_    0.173426 0.662018 0.625681 0.245514
H14   H     H_    0.187208 0.356708 0.397950 0.150568
H15   H     H_    0.855414 0.591587 0.210450 0.157037
H16   H     H_    0.844973 0.681803 0.916211 0.166612
H17   H     H_    0.049021 0.457012 0.967354 0.151275
H18   H     H_    0.129859 0.460208 0.797947 0.158323
H19   H     H_    0.558671 0.559875 0.776947 0.158759
H20   H     H_    0.275535 0.503235 0.181703 0.147779
H21   H     H_    0.671370 0.659602 0.843871 0.161344
N1    N     N_R   0.856800 0.501200 0.500850 -0.115277
N2    N     N_R   0.142390 0.501280 0.500880 -0.119900
O1    O     O_R   0.385310 0.683220 0.500000 -0.642435
O2    O     O_R   0.614640 0.683250 0.500010 -0.640650
O3    O     O_R   0.319840 0.499980 0.632240 -0.638030
O4    O     O_R   0.549160 0.500000 0.632250 -0.633319
O5    O     O_R   0.385360 0.316750 0.499990 -0.626032
O6    O     O_R   0.614690 0.316780 0.500000 -0.613578
O7    O     O_R   0.450840 0.500000 0.367750 -0.616643
O8    O     O_R   0.680160 0.500020 0.367760 -0.613264
Zn1   Zn    Zn3+2 0.346880 0.499980 0.499990 0.925579
Zn2   Zn    Zn3+2 0.653120 0.500020 0.500010 0.933713
C41   C     C_2   0.005735 0.838414 0.739789 0.905526
O9    O     O_2   0.914937 0.913155 0.790653 -0.637987
O10   O     O_R   0.147028 0.836260 0.740016 -0.824840
H22   H     H_    0.160434 0.900852 0.784746 0.346745

loop_
_geom_bond_atom_site_label_1
_geom_bond_atom_site_label_2
_ccdc_geom_bond_type
C8    C9    A    
C16   C21   A    
C34   C37   S    
C23   O6    A    
C19   C20   A    
C4    C8    A    
C41   O10   S    
C28   C29   A    
C17   H5    S    
C5    C11   A    
C3    C7    A    
C5    C6    A    
C28   H11   S    
C19   H7    S    
C33   H9    S    
O2    Zn2   S    
C18   C19   A    
C23   C26   S    
C15   C37   A    
C11   C15   A    
O3    Zn1   S    
C3    C38   A    
C16   C17   A    
C1    O2    A    
N1    Zn2   S    
O6    Zn2   S    
O4    Zn2   S    
C12   C36   S    
C9    C10   A    
C34   O7    A    
C27   H10   S    
C8    H21   S    
O1    Zn1   S    
C14   H15   S    
C1    C22   S    
C40   H19   S    
C21   C22   A    
C35   H14   S    
C18   H6    S    
C13   H2    S    
C12   O4    A    
O10   H22   S    
C38   C39   A    
C30   H13   S    
C41   O9    D    
C31   N2    A    
C36   C40   A    
C24   C25   A    
O8    Zn2   S    
C33   N1    A    
C29   C41   S    
C25   C26   A    
C39   H18   S    
C12   O3    A    
C23   O5    A    
C2    C4    A    
C29   C30   A    
C6    H20   S    
C38   H17   S    
C31   C32   A    
O5    Zn1   S    
C17   C18   A    
C9    H16   S    
C15   H12   S    
N2    Zn1   S    
C25   H8    S    
C22   C24   A    
C1    O1    A    
C16   H4    S    
C27   C32   A    
C36   C39   A    
C4    C5    A    
C10   C13   A    
C35   N2    A    
C6    C7    A    
C2    C3    A    
C32   N1    A    
C14   C37   A    
C30   C31   A    
C20   C26   A    
C33   C35   A    
C7    H1    S    
C10   C11   A    
C2    C40   A    
C20   C21   A    
C27   C28   A    
C24   H3    S    
O7    Zn1   S    
C13   C14   A    
C34   O8    A    
