data_mof_unit_1140.cif
_audit_creation_date              2012-12-10T17:32:15-0500
_audit_creation_method            fapswitch 2.2
_symmetry_space_group_name_H-M    P1
_symmetry_Int_Tables_number       1
_space_group_crystal_system       triclinic
_cell_length_a                    12.419411
_cell_length_b                    12.922297
_cell_length_c                    15.011727
_cell_angle_alpha                 76.801261
_cell_angle_beta                  102.36943
_cell_angle_gamma                 116.934391
_cell_volume                      2074.01470316

loop_
_atom_site_label
_atom_site_type_symbol
_atom_type_description
_atom_site_fract_x
_atom_site_fract_y
_atom_site_fract_z
_atom_type_partial_charge
C1    C     C_R   0.855461 0.285026 0.504895 0.971048
C2    C     C_R   0.052677 0.608154 0.081995 0.084310
C3    C     C_R   0.826928 0.300653 0.056653 0.258632
C4    C     C_R   0.820571 0.303185 0.961346 0.271028
C5    C     C_R   0.908956 0.398215 0.910239 -0.088117
C6    C     C_R   0.980466 0.502816 0.949191 -0.027067
C7    C     C_R   0.049301 0.608095 0.893723 0.092162
C8    C     C_R   0.115101 0.711947 0.932517 -0.116839
C9    C     C_R   0.116658 0.711992 0.025053 -0.146407
C10   C     C_R   0.926496 0.395124 0.820918 0.237289
C11   C     C_R   0.996851 0.499823 0.767148 -0.183332
C12   C     C_R   0.999693 0.499508 0.670929 0.904880
C13   C     C_R   0.050391 0.607353 0.800688 0.142390
C14   C     C_R   0.281014 0.043629 0.404161 0.392899
C15   C     C_R   0.230417 0.842595 0.481591 -0.231533
C16   C     C_R   0.817118 0.070951 0.543953 0.444847
C17   C     C_R   0.734044 0.952502 0.555006 0.209376
C18   C     C_R   0.611052 0.921344 0.526836 -0.228636
C19   C     C_R   0.567588 0.006327 0.485047 0.056103
C20   C     C_R   0.652882 0.121761 0.456588 -0.045368
C21   C     C_R   0.441577 0.978567 0.468542 0.002238
C22   C     C_R   0.403111 0.062334 0.412682 -0.093403
C23   C     C_R   0.145777 0.715627 0.491018 0.898379
C24   C     C_R   0.486997 0.165123 0.367128 -0.240251
C25   C     C_R   0.613008 0.195341 0.386022 0.550784
C26   C     C_R   0.355858 0.876665 0.515829 0.359208
C27   C     C_R   0.191389 0.928612 0.428722 0.388638
C28   C     C_R   0.775664 0.158341 0.499206 -0.196585
C29   C     C_R   0.383797 0.387901 0.674626 0.143656
C30   C     C_R   0.755496 0.640981 0.369418 0.537772
C31   C     C_R   0.667074 0.686058 0.346787 0.232913
C32   C     C_R   0.560552 0.630052 0.389416 0.346661
C33   C     C_R   0.554933 0.546811 0.470011 -0.156926
C34   C     C_R   0.999519 0.499812 0.329139 0.938603
C35   C     C_R   0.656924 0.515537 0.499344 0.036890
C36   C     C_R   0.455728 0.496263 0.526226 -0.004971
C37   C     C_R   0.478038 0.445614 0.618394 -0.021356
C38   C     C_R   0.591678 0.443680 0.650186 -0.135831
C39   C     C_R   0.657777 0.444871 0.586362 0.321180
C40   C     C_R   0.336802 0.493849 0.497203 -0.066526
C41   C     C_R   0.266777 0.379372 0.638308 0.385398
C42   C     C_R   0.055912 0.607540 0.176133 0.090338
C43   C     C_R   0.998872 0.500554 0.232268 -0.197780
C44   C     C_R   0.938715 0.394487 0.196208 0.235676
C45   C     C_R   0.916733 0.396884 0.099752 -0.071959
C46   C     C_R   0.982648 0.502699 0.043602 -0.029131
Cu1   Cu    Cu3+1 0.098270 0.475420 0.521130 1.004574
Cu2   Cu    Cu3+1 0.901730 0.524580 0.478870 1.082386
H1    H     H_    0.452318 0.221510 0.317772 0.174688
H2    H     H_    0.550832 0.829624 0.534739 0.185020
H3    H     H_    0.610825 0.405391 0.720228 0.220845
H4    H     H_    0.312158 0.533255 0.430253 0.225428
H5    H     H_    0.168402 0.794157 0.892603 0.216222
H6    H     H_    0.170345 0.794342 0.051268 0.212443
N1    N     N_R   0.246280 0.438190 0.553160 -0.261415
N2    N     N_R   0.754320 0.561190 0.447410 -0.247482
O1    O     O_R   0.972510 0.318130 0.526570 -0.533904
O2    O     O_R   0.806530 0.359650 0.490890 -0.533770
O3    O     O_R   0.082980 0.479210 0.647590 -0.562188
O4    O     O_R   0.917000 0.520730 0.611900 -0.561434
O5    O     O_R   0.193470 0.640350 0.509110 -0.623317
O6    O     O_R   0.027490 0.681870 0.473430 -0.472079
O7    O     O_R   0.083000 0.479270 0.388100 -0.589269
O8    O     O_R   0.917020 0.520790 0.352410 -0.526661
Br1   Br    Br    0.142622 0.750426 0.231122 -0.577535
O9    O     O_3   0.248283 0.135793 0.368825 -0.595871
C47   C     C_3   0.288559 0.212326 0.434932 -0.288247
H7    H     H_    0.385124 0.275965 0.431263 0.184556
H8    H     H_    0.277654 0.165078 0.506770 0.176452
H9    H     H_    0.233759 0.263781 0.418801 0.187848
O10   O     O_3   0.390152 0.854667 0.610525 -0.525841
C48   C     C_3   0.378028 0.738931 0.642771 -0.135098
H10   H     H_    0.391551 0.697397 0.591658 0.141168
H11   H     H_    0.288894 0.683552 0.668398 0.195330
H12   H     H_    0.448819 0.741369 0.702595 0.196329
O11   O     O_3   0.935926 0.100568 0.584345 -0.499082
C49   C     C_3   0.002664 0.094440 0.522176 -0.133886
H13   H     H_    0.957212 0.010437 0.493395 0.170932
H14   H     H_    0.091441 0.099842 0.560248 0.203219
H15   H     H_    0.020668 0.169705 0.465302 0.167644
Br2   Br    Br    0.784392 0.830910 0.615907 -0.431676
O12   O     O_3   0.700249 0.289504 0.335719 -0.560847
C50   C     C_3   0.652751 0.353116 0.262118 -0.206607
H16   H     H_    0.612981 0.400204 0.288450 0.116575
H17   H     H_    0.586254 0.295621 0.211893 0.192440
H18   H     H_    0.728255 0.420095 0.223933 0.185198
Br3   Br    Br    0.135373 0.277060 0.708297 -0.280569
Br4   Br    Br    0.410733 0.314113 0.799982 -0.361277
Br5   Br    Br    0.917476 0.251162 0.281010 -0.550095
O13   O     O_3   0.850961 0.684697 0.317595 -0.524442
C51   C     C_3   0.807799 0.677361 0.222706 -0.191003
H19   H     H_    0.815442 0.764328 0.184775 0.208223
H20   H     H_    0.712701 0.609816 0.209107 0.102073
H21   H     H_    0.866289 0.653699 0.193070 0.189272
O14   O     O_3   0.470801 0.669741 0.358493 -0.583726
C52   C     C_3   0.407624 0.628504 0.274326 -0.251752
H22   H     H_    0.375225 0.531734 0.280131 0.132805
H23   H     H_    0.464073 0.674728 0.217006 0.220444
H24   H     H_    0.325995 0.646802 0.256213 0.220646
O15   O     O_3   0.683980 0.783570 0.279632 -0.585586
C53   C     C_3   0.713496 0.881651 0.322142 -0.184914
H25   H     H_    0.784306 0.889289 0.383227 0.137920
H26   H     H_    0.631160 0.879029 0.342129 0.215034
H27   H     H_    0.750915 0.962379 0.271622 0.223956
Br6   Br    Br    0.624612 0.282954 0.597196 -0.455644
Br7   Br    Br    0.694252 0.177452 0.120144 -0.396784
Br8   Br    Br    0.671929 0.193646 0.899893 -0.270329
Br9   Br    Br    0.872351 0.249382 0.774039 -0.307561
Br10  Br    Br    0.120966 0.752549 0.717632 -0.452675
O16   O     O_3   0.066851 0.899680 0.410243 -0.553402
C54   C     C_3   0.033799 0.952563 0.321852 -0.108246
H28   H     H_    0.938828 0.897242 0.297142 0.203461
H29   H     H_    0.090210 0.962366 0.269245 0.186288
H30   H     H_    0.034446 0.037429 0.326115 0.193514

loop_
_geom_bond_atom_site_label_1
_geom_bond_atom_site_label_2
_ccdc_geom_bond_type
C16   C28   A    
C21   C26   A    
C53   H25   S    
C10   Br9   S    
O14   C52   S    
C30   O13   S    
C7    C8    A    
C49   H13   S    
C2    C46   A    
C50   H16   S    
C5    C6    A    
C36   C37   A    
C19   C21   A    
Cu1   O7    S    
C38   C39   A    
Cu2   O8    S    
Cu1   O1    S    
C20   C25   A    
C52   H24   S    
C33   C36   A    
C39   Br6   S    
C18   C19   A    
O16   C54   S    
C41   N1    A    
C29   Br4   S    
C13   Br10  S    
C12   O3    A    
C15   C27   A    
C23   O6    A    
C19   C20   A    
C27   O16   S    
C16   C17   A    
C52   H23   S    
C42   Br1   S    
C14   C27   A    
C15   C23   S    
O9    C47   S    
C53   H26   S    
C21   C22   A    
C26   O10   S    
C48   H12   S    
Cu2   O4    S    
C49   H14   S    
C3    Br7   S    
C41   Br3   S    
C4    Br8   S    
C47   H7    S    
C36   C40   A    
O11   C49   S    
C48   H11   S    
C51   H19   S    
C8    C9    A    
C15   C26   A    
C38   H3    S    
C20   C28   A    
C40   H4    S    
C30   N2    A    
C3    C45   A    
C47   H8    S    
C35   C39   A    
C43   C44   A    
C37   C38   A    
C1    O1    A    
C51   H20   S    
Cu2   O6    S    
Cu1   Cu2   S    
C7    C13   A    
C40   N1    A    
C52   H22   S    
C50   H18   S    
C34   O8    A    
C17   C18   A    
C14   O9    S    
C54   H29   S    
C1    C28   S    
C31   O15   S    
C24   C25   A    
C50   H17   S    
C53   H27   S    
C25   O12   S    
C22   C24   A    
C42   C43   A    
C3    C4    A    
C44   C45   A    
C18   H2    S    
Cu1   N1    S    
C49   H15   S    
C24   H1    S    
Cu2   N2    S    
C6    C46   A    
C54   H28   S    
C29   C41   A    
C35   N2    A    
C16   O11   S    
C31   C32   A    
C34   C43   S    
C48   H10   S    
C8    H5    S    
Cu1   O5    S    
C11   C12   S    
Cu2   O2    S    
C6    C7    A    
C47   H9    S    
C32   C33   A    
C14   C22   A    
C5    C10   A    
C1    O2    A    
C51   H21   S    
C11   C13   A    
O13   C51   S    
C30   C31   A    
C2    C42   A    
C4    C5    A    
C34   O7    A    
C33   C35   A    
C54   H30   S    
C17   Br2   S    
C10   C11   A    
Cu1   O3    S    
C12   O4    A    
C45   C46   A    
C23   O5    A    
C32   O14   S    
O10   C48   S    
O12   C50   S    
C29   C37   A    
O15   C53   S    
C9    H6    S    
C2    C9    A    
C44   Br5   S    
