data_mof_unit_1633.cif
_audit_creation_date              2012-12-10T17:14:29-0500
_audit_creation_method            fapswitch 2.2
_symmetry_space_group_name_H-M    P1
_symmetry_Int_Tables_number       1
_space_group_crystal_system       triclinic
_cell_length_a                    15.693879
_cell_length_b                    14.565668
_cell_length_c                    10.128532
_cell_angle_alpha                 90.58875
_cell_angle_beta                  84.639602
_cell_angle_gamma                 89.981184
_cell_volume                      2305.05071692

loop_
_atom_site_label
_atom_site_type_symbol
_atom_type_description
_atom_site_fract_x
_atom_site_fract_y
_atom_site_fract_z
_atom_type_partial_charge
C1    C     C_R   0.383487 0.116927 0.554516 0.949789
C2    C     C_2   0.510043 0.999414 0.070944 -0.130905
C3    C     C_2   0.989959 0.499440 0.929032 -0.136876
C4    C     C_2   0.010043 0.499414 0.070943 -0.130899
C5    C     C_2   0.338162 0.794645 0.571144 -0.479605
C6    C     C_2   0.691568 0.172962 0.416936 -0.489898
C7    C     C_2   0.664207 0.795604 0.425382 -0.463649
C8    C     C_2   0.305800 0.170441 0.586550 -0.489190
C9    C     C_2   0.838160 0.294647 0.571146 -0.479572
C10   C     C_2   0.191569 0.672962 0.416935 -0.489880
C11   C     C_2   0.164208 0.295604 0.425382 -0.463665
C12   C     C_R   0.610119 0.876001 0.448127 0.943096
C13   C     C_2   0.805799 0.670440 0.586550 -0.489208
C14   C     C_2   0.325275 0.737120 0.469822 0.405417
C15   C     C_2   0.756176 0.170473 0.496367 0.401083
C16   C     C_2   0.675353 0.738333 0.525890 0.382956
C17   C     C_2   0.242738 0.169055 0.504300 0.401743
C18   C     C_2   0.825275 0.237120 0.469825 0.405402
C19   C     C_2   0.256177 0.670471 0.496364 0.401079
C20   C     C_2   0.175354 0.238334 0.525891 0.382941
C21   C     C_2   0.742738 0.669055 0.504297 0.401724
C22   C     C_3   0.819961 0.074926 0.642529 0.050836
C23   C     C_R   0.615387 0.118075 0.446851 0.953202
C24   C     C_3   0.815621 0.977873 0.584434 -0.340557
C25   C     C_3   0.885927 0.916777 0.630048 -0.972675
C26   C     C_3   0.378206 0.672286 0.264107 0.076896
C27   C     C_3   0.463011 0.626964 0.288864 -0.360306
C28   C     C_3   0.469529 0.530403 0.227968 -0.986679
C29   C     C_3   0.179376 0.062843 0.372987 0.055883
C30   C     C_3   0.183566 0.975604 0.455550 -0.361223
C31   C     C_3   0.112985 0.908115 0.428451 -0.966374
C32   C     C_3   0.598569 0.671011 0.704195 0.052537
C33   C     C_3   0.525579 0.694474 0.809253 -0.274864
C34   C     C_R   0.391057 0.875289 0.550386 0.937908
C35   C     C_3   0.489803 0.608219 0.877502 -1.036000
C36   C     C_3   0.319968 0.574920 0.642515 0.050834
C37   C     C_3   0.315623 0.477867 0.584424 -0.340545
C38   C     C_3   0.385925 0.416767 0.630042 -0.972664
C39   C     C_3   0.878207 0.172283 0.264113 0.076902
C40   C     C_3   0.963006 0.126953 0.288882 -0.360320
C41   C     C_3   0.969521 0.030394 0.227979 -0.986639
C42   C     C_3   0.679383 0.562851 0.372963 0.055853
C43   C     C_3   0.683593 0.475590 0.455470 -0.361191
C44   C     C_3   0.612985 0.408124 0.428410 -0.966418
C45   C     C_R   0.883487 0.616927 0.554516 0.949800
C46   C     C_3   0.098542 0.171018 0.704162 0.052561
C47   C     C_3   0.025603 0.194491 0.809302 -0.274867
C48   C     C_3   0.989803 0.108234 0.877513 -1.036012
C49   C     C_R   0.110119 0.376001 0.448127 0.943100
C50   C     C_R   0.115387 0.618075 0.446851 0.953202
C51   C     C_R   0.891055 0.375291 0.550387 0.937922
C52   C     C_2   0.489959 0.999440 0.929032 -0.136874
H1    H     H_    0.388219 0.000345 0.144105 0.179031
H2    H     H_    0.808317 0.282699 0.670747 0.150490
H3    H     H_    0.799697 0.711368 0.677314 0.153033
H4    H     H_    0.195629 0.283212 0.326551 0.148972
H5    H     H_    0.576398 0.999044 0.092975 0.160910
H6    H     H_    0.423607 0.999143 0.906981 0.162998
H7    H     H_    0.076398 0.499044 0.092975 0.160909
H8    H     H_    0.923607 0.499143 0.906981 0.162994
H9    H     H_    0.819956 0.069742 0.751853 0.176213
H10   H     H_    0.881338 0.108456 0.606703 0.114979
H11   H     H_    0.752821 0.946844 0.617388 0.264771
H12   H     H_    0.611784 0.000242 0.855895 0.177155
H13   H     H_    0.821837 0.981244 0.474524 0.199618
H14   H     H_    0.948763 0.951663 0.615703 0.261023
H15   H     H_    0.889282 0.851631 0.571997 0.271959
H16   H     H_    0.872077 0.900706 0.736865 0.268910
H17   H     H_    0.382012 0.692695 0.158446 0.160049
H18   H     H_    0.325663 0.621378 0.275535 0.121204
H19   H     H_    0.516646 0.669879 0.244552 0.225363
H20   H     H_    0.468372 0.622165 0.397093 0.205022
H21   H     H_    0.430940 0.481554 0.292055 0.269850
H22   H     H_    0.537008 0.507155 0.217606 0.266114
H23   H     H_    0.888218 0.500345 0.144105 0.179023
H24   H     H_    0.445711 0.528717 0.128459 0.272779
H25   H     H_    0.180645 0.042569 0.266842 0.171336
H26   H     H_    0.118053 0.099526 0.398491 0.117030
H27   H     H_    0.245802 0.941461 0.429676 0.264411
H28   H     H_    0.177951 0.993624 0.562853 0.190827
H29   H     H_    0.049835 0.942434 0.441984 0.274546
H30   H     H_    0.113058 0.849954 0.498410 0.274285
H31   H     H_    0.123568 0.880831 0.325419 0.268021
H32   H     H_    0.648688 0.631941 0.750596 0.145159
H33   H     H_    0.571590 0.627336 0.627101 0.112711
H34   H     H_    0.111784 0.500242 0.855895 0.177156
H35   H     H_    0.548849 0.741867 0.884773 0.232615
H36   H     H_    0.473726 0.729529 0.761424 0.222404
H37   H     H_    0.472141 0.556718 0.803459 0.267514
H38   H     H_    0.431652 0.626205 0.943393 0.259993
H39   H     H_    0.538340 0.577774 0.937162 0.280709
H40   H     H_    0.319969 0.569738 0.751838 0.176223
H41   H     H_    0.381343 0.608448 0.606679 0.114979
H42   H     H_    0.252821 0.446842 0.617378 0.264775
H43   H     H_    0.321841 0.481235 0.474513 0.199613
H44   H     H_    0.448763 0.451650 0.615704 0.261012
H45   H     H_    0.696724 0.213261 0.326770 0.143725
H46   H     H_    0.389279 0.351622 0.571989 0.271956
H47   H     H_    0.372071 0.400695 0.736858 0.268908
H48   H     H_    0.882022 0.192694 0.158452 0.160046
H49   H     H_    0.825660 0.121380 0.275531 0.121205
H50   H     H_    0.016647 0.169865 0.244583 0.225362
H51   H     H_    0.968359 0.122147 0.397113 0.205016
H52   H     H_    0.930913 0.981548 0.292044 0.269836
H53   H     H_    0.036999 0.007135 0.217648 0.266110
H54   H     H_    0.945725 0.028719 0.128452 0.272776
H55   H     H_    0.680640 0.542606 0.266809 0.171315
H56   H     H_    0.308321 0.782694 0.670746 0.150494
H57   H     H_    0.618058 0.599521 0.398505 0.117048
H58   H     H_    0.745816 0.441438 0.429514 0.264431
H59   H     H_    0.678026 0.493583 0.562781 0.190858
H60   H     H_    0.549844 0.442459 0.442007 0.274546
H61   H     H_    0.613070 0.349951 0.498346 0.274288
H62   H     H_    0.623527 0.380856 0.325366 0.268026
H63   H     H_    0.148656 0.131886 0.750482 0.145126
H64   H     H_    0.071503 0.127402 0.627058 0.112708
H65   H     H_    0.048934 0.241834 0.884832 0.232602
H66   H     H_    0.973750 0.229605 0.761555 0.222442
H67   H     H_    0.299699 0.211371 0.677312 0.153049
H68   H     H_    0.972104 0.056767 0.803450 0.267506
H69   H     H_    0.931671 0.126230 0.943440 0.259996
H70   H     H_    0.038339 0.077742 0.937126 0.280706
H71   H     H_    0.695630 0.783213 0.326552 0.148973
H72   H     H_    0.196723 0.713262 0.326770 0.143718
N1    N     N_2   0.549450 0.000000 0.831550 -0.176600
N2    N     N_2   0.450550 1.000000 0.168450 -0.173064
N3    N     N_2   0.049450 0.500000 0.831550 -0.176600
N4    N     N_2   0.950550 0.500000 0.168450 -0.173068
O1    O     O_R   0.398960 0.091100 0.433300 -0.535947
O2    O     O_R   0.569290 0.908910 0.353790 -0.619432
O3    O     O_R   0.569290 0.091090 0.353790 -0.627850
O4    O     O_R   0.430710 0.908910 0.646210 -0.627684
O5    O     O_R   0.930710 0.591090 0.646210 -0.624608
O6    O     O_R   0.069290 0.408910 0.353790 -0.619428
O7    O     O_R   0.069290 0.591090 0.353790 -0.627849
O8    O     O_R   0.930710 0.408910 0.646210 -0.627695
O9    O     O_3   0.746312 0.125559 0.617941 -0.622271
O10   O     O_3   0.363906 0.753358 0.341884 -0.621453
O11   O     O_3   0.251443 0.119258 0.385597 -0.621950
O12   O     O_R   0.601040 0.908900 0.566700 -0.554906
O13   O     O_3   0.633547 0.753555 0.651491 -0.622312
O14   O     O_3   0.246317 0.625553 0.617935 -0.622276
O15   O     O_3   0.863908 0.253355 0.341889 -0.621465
O16   O     O_3   0.751447 0.619267 0.385587 -0.621945
O17   O     O_3   0.133552 0.253556 0.651493 -0.622310
O18   O     O_R   0.601040 0.091100 0.566700 -0.536627
O19   O     O_R   0.398960 0.908900 0.433300 -0.551532
O20   O     O_R   0.898960 0.591100 0.433300 -0.535944
O21   O     O_R   0.101040 0.408900 0.566700 -0.554906
O22   O     O_R   0.101040 0.591100 0.566700 -0.536630
O23   O     O_R   0.898960 0.408900 0.433300 -0.551553
O24   O     O_R   0.430710 0.091090 0.646210 -0.624605
Zn1   Zn    Zn3+2 0.478810 0.000000 0.357840 0.983091
Zn2   Zn    Zn3+2 0.521190 0.000000 0.642160 0.974886
Zn3   Zn    Zn3+2 0.978810 0.500000 0.357840 0.983081
Zn4   Zn    Zn3+2 0.021190 0.500000 0.642160 0.974881

loop_
_geom_bond_atom_site_label_1
_geom_bond_atom_site_label_2
_ccdc_geom_bond_type
C15   C18   S    
O1    Zn1   S    
C49   O6    A    
C16   C21   S    
C29   O11   S    
C45   O20   A    
C25   H15   S    
C38   H46   S    
C28   H22   S    
C39   O15   S    
C2    H5    S    
O7    Zn3   S    
C48   H68   S    
C35   H39   S    
C22   O9    S    
C26   C27   S    
C37   C38   S    
C31   H30   S    
C12   O2    A    
C46   H63   S    
C18   O15   S    
C42   H57   S    
C1    O1    A    
C50   O7    A    
C48   H70   S    
C30   C31   S    
O8    Zn4   S    
C3    N3    D    
C46   O17   S    
C6    C23   S    
O5    Zn4   S    
C17   C20   S    
C31   H31   S    
C37   H43   S    
C1    O24   A    
H23   N4    S    
C34   O19   A    
C36   O14   S    
N4    Zn3   S    
C6    C15   D    
C36   H41   S    
C47   H66   S    
C29   H26   S    
C14   O10   S    
C9    C51   S    
O4    Zn2   S    
C12   O12   A    
O20   Zn3   S    
O23   Zn3   S    
C42   H55   S    
C30   H28   S    
C3    H8    S    
C36   H40   S    
C34   O4    A    
O22   Zn4   S    
C2    N2    D    
C25   H16   S    
C43   H59   S    
C32   H32   S    
C28   H21   S    
C39   H49   S    
C7    C12   S    
C52   H6    S    
C23   O18   A    
C11   C20   D    
C41   H54   S    
C4    N4    D    
C23   O3    A    
C6    H45   S    
O3    Zn1   S    
C24   C25   S    
C48   H69   S    
C1    C8    S    
C43   C44   S    
C51   O23   A    
C29   C30   S    
C11   C49   S    
C22   H10   S    
C51   O8    A    
C50   O22   A    
C47   C48   S    
O18   Zn2   S    
C10   C19   D    
C5    C34   S    
C32   O13   S    
C13   C21   D    
C17   O11   S    
C5    C14   D    
C2    C52   S    
C24   H13   S    
C30   H27   S    
C35   H37   S    
C40   C41   S    
C43   H58   S    
O24   Zn2   S    
C44   H61   S    
C19   O14   S    
C42   O16   S    
C26   H18   S    
C22   C24   S    
C13   H3    S    
C42   C43   S    
C3    C4    S    
C10   C50   S    
C44   H60   S    
C39   C40   S    
C27   H19   S    
N1    Zn2   S    
O6    Zn3   S    
C46   C47   S    
C7    C16   D    
H34   N3    S    
C45   O5    A    
C14   C19   S    
C33   H36   S    
C25   H14   S    
C21   O16   S    
C7    H71   S    
C38   H47   S    
C26   O10   S    
N3    Zn4   S    
C52   N1    D    
C46   H64   S    
C24   H11   S    
C10   H72   S    
C8    C17   D    
C31   H29   S    
C41   H52   S    
C49   O21   A    
C32   C33   S    
C16   O13   S    
C33   H35   S    
C22   H9    S    
C13   C45   S    
C39   H48   S    
C32   H33   S    
C4    H7    S    
O21   Zn4   S    
C33   C35   S    
C37   H42   S    
O2    Zn1   S    
C35   H38   S    
O19   Zn1   S    
C44   H62   S    
H1    N2    S    
C27   H20   S    
C40   H50   S    
N2    Zn1   S    
C9    C18   D    
C47   H65   S    
C29   H25   S    
C41   H53   S    
C36   C37   S    
H12   N1    S    
C38   H44   S    
C27   C28   S    
C26   H17   S    
C20   O17   S    
C9    H2    S    
C15   O9    S    
C11   H4    S    
C8    H67   S    
O12   Zn2   S    
C40   H51   S    
C5    H56   S    
C28   H24   S    
