data_mof_unit_1030.cif
_audit_creation_date              2012-12-11T15:37:25-0500
_audit_creation_method            fapswitch 2.2
_symmetry_space_group_name_H-M    P1
_symmetry_Int_Tables_number       1
_space_group_crystal_system       triclinic
_cell_length_a                    17.394826
_cell_length_b                    24.383377
_cell_length_c                    14.85616
_cell_angle_alpha                 89.904355
_cell_angle_beta                  126.072885
_cell_angle_gamma                 90.13553
_cell_volume                      5093.01543834

loop_
_atom_site_label
_atom_site_type_symbol
_atom_type_description
_atom_site_fract_x
_atom_site_fract_y
_atom_site_fract_z
_atom_type_partial_charge
C1    C     C_R   0.809601 0.625883 0.906902 -0.128677
C2    C     C_3   0.597713 0.500651 0.535745 0.107182
C3    C     C_3   0.074208 0.999616 0.422907 -0.285575
C4    C     C_3   0.922084 0.000272 0.351301 0.103355
C5    C     C_3   0.094294 0.001002 0.539524 0.106145
C6    C     C_R   0.658513 0.312927 0.899016 -0.170619
C7    C     C_R   0.207808 0.767292 0.098059 -0.172913
C8    C     C_R   0.327171 0.300339 0.101087 -0.180411
C9    C     C_R   0.659812 0.687906 0.899033 -0.171890
C10   C     C_R   0.161891 0.807856 0.896516 -0.175227
C11   C     C_R   0.712422 0.266615 0.099760 -0.170870
C12   C     C_R   0.714094 0.734142 0.099825 -0.171981
C13   C     C_R   0.176202 0.360081 0.092407 -0.137204
C14   C     C_R   0.287739 0.264555 0.899967 -0.170594
C15   C     C_R   0.108814 0.765668 0.896335 -0.175405
C16   C     C_R   0.760318 0.312185 0.100568 -0.172398
C17   C     C_R   0.761737 0.688626 0.100611 -0.173501
C18   C     C_R   0.226904 0.301007 0.899178 -0.173910
C19   C     C_R   0.611122 0.266978 0.898109 -0.173475
C20   C     C_R   0.261162 0.809392 0.098236 -0.173031
C21   C     C_R   0.387474 0.263603 0.101706 -0.175941
C22   C     C_R   0.612629 0.733784 0.898141 -0.173943
C23   C     C_R   0.138727 0.741217 0.997354 0.143456
C24   C     C_R   0.147577 0.652982 0.091692 -0.140613
C25   C     C_R   0.740286 0.331677 0.000212 0.144599
C26   C     C_R   0.741408 0.669097 0.000226 0.145222
C27   C     C_R   0.241263 0.314242 0.999658 0.152294
C28   C     C_R   0.644224 0.240510 0.998492 0.142912
C29   C     C_R   0.244766 0.825303 0.997766 0.148822
C30   C     C_R   0.360585 0.240459 0.000997 0.143461
C31   C     C_R   0.645714 0.760139 0.998537 0.143960
C32   C     C_R   0.107372 0.451979 0.629290 -0.168760
C33   C     C_R   0.111113 0.550966 0.537949 -0.175992
C34   C     C_R   0.115287 0.451683 0.541958 -0.177474
C35   C     C_R   0.809256 0.374401 0.906940 -0.128367
C36   C     C_R   0.102440 0.551223 0.624559 -0.170951
C37   C     C_R   0.386295 0.951506 0.459623 -0.179132
C38   C     C_R   0.398931 0.051068 0.376397 -0.171625
C39   C     C_R   0.394452 0.951788 0.372543 -0.169555
C40   C     C_R   0.390081 0.050814 0.462805 -0.177825
C41   C     C_R   0.106070 0.501040 0.487984 0.139993
C42   C     C_R   0.089219 0.501551 0.661236 0.146440
C43   C     C_R   0.412806 0.001402 0.340680 0.147527
C44   C     C_R   0.395770 0.000915 0.513369 0.137963
C45   C     C_R   0.904018 0.375892 0.093862 -0.126135
C46   C     C_R   0.352233 0.152629 0.907483 -0.128743
C47   C     C_R   0.053146 0.651581 0.906426 -0.140651
C48   C     C_R   0.082508 0.361865 0.906587 -0.133526
C49   C     C_R   0.904412 0.624409 0.093873 -0.126122
C50   C     C_R   0.409296 0.867275 0.091667 -0.127159
C51   C     C_R   0.556700 0.150652 0.906032 -0.123316
C52   C     C_R   0.557071 0.849588 0.906004 -0.123377
C53   C     C_R   0.447798 0.151802 0.093009 -0.139418
C54   C     C_R   0.053387 0.545992 0.306605 -0.142515
C55   C     C_R   0.010086 0.454883 0.739638 -0.124236
C56   C     C_R   0.016092 0.546922 0.747779 -0.131185
C57   C     C_R   0.650144 0.847761 0.091725 -0.142467
C58   C     C_R   0.053566 0.454425 0.307286 -0.143496
C59   C     C_R   0.484752 0.046908 0.252950 -0.132649
C60   C     C_R   0.448723 0.954257 0.694060 -0.125161
C61   C     C_R   0.449002 0.046168 0.694569 -0.125190
C62   C     C_R   0.492949 0.954966 0.263815 -0.129124
C63   C     C_R   0.739339 0.454642 0.699275 -0.150371
C64   C     C_R   0.267311 0.546112 0.243908 -0.131435
C65   C     C_R   0.269281 0.455357 0.249687 -0.124130
C66   C     C_R   0.739694 0.545597 0.699588 -0.149791
C67   C     C_R   0.237141 0.954937 0.701504 -0.147401
C68   C     C_R   0.649827 0.152416 0.091676 -0.140522
C69   C     C_R   0.767203 0.045547 0.241700 -0.128002
C70   C     C_R   0.767223 0.954597 0.241970 -0.127965
C71   C     C_R   0.236622 0.046152 0.704528 -0.137422
C72   C     C_R   0.813785 0.638535 0.000649 0.040914
C73   C     C_R   0.168007 0.342547 0.999168 0.045475
C74   C     C_R   0.114161 0.684258 0.998251 0.052232
C75   C     C_R   0.813178 0.361943 0.000660 0.040467
C76   C     C_R   0.387192 0.184260 0.000701 0.050478
C77   C     C_R   0.619920 0.817169 0.998248 0.044881
C78   C     C_R   0.619147 0.183215 0.998223 0.045071
C79   C     C_R   0.311710 0.870949 0.905555 -0.132499
C80   C     C_R   0.318296 0.854303 0.998603 0.042904
C81   C     C_R   0.072009 0.500399 0.371795 0.050353
C82   C     C_R   0.042782 0.501166 0.716968 0.040674
C83   C     C_R   0.459530 0.001110 0.285485 0.044118
C84   C     C_R   0.430614 0.000389 0.629683 0.043644
C85   C     C_R   0.688563 0.500231 0.641729 0.063485
C86   C     C_R   0.322898 0.500959 0.267796 0.053442
C87   C     C_R   0.184204 0.000724 0.647336 0.059435
C88   C     C_R   0.822152 0.000119 0.262691 0.050153
C89   C     C_3   0.522361 0.456534 0.501887 0.049769
C90   C     C_3   0.422873 0.501618 0.353142 0.102203
C91   C     C_3   0.497487 0.545871 0.386253 0.043893
C92   C     C_3   0.496501 0.457089 0.384548 0.042428
C93   C     C_3   0.523442 0.545128 0.503670 0.050495
C94   C     C_3   0.018484 0.957001 0.504331 0.048893
C95   C     C_3   0.997469 0.044359 0.386010 0.044900
C96   C     C_3   0.996883 0.955579 0.388999 0.043626
C97   C     C_3   0.019099 0.045574 0.501408 0.044923
C98   C     C_3   0.448811 0.500965 0.472605 -0.278112
C99   C     C_3   0.573117 0.501358 0.416963 -0.284912
C100  C     C_3   0.943733 0.001603 0.468925 -0.274230
H1    H     H_    0.751505 0.632295 0.820817 0.092547
H2    H     H_    0.004772 0.664988 0.821064 0.083552
H3    H     H_    0.046886 0.348049 0.822156 0.082220
H4    H     H_    0.932824 0.629586 0.180309 0.092439
H5    H     H_    0.442221 0.852477 0.174923 0.082528
H6    H     H_    0.510438 0.163726 0.820191 0.080960
H7    H     H_    0.511119 0.836590 0.820099 0.082912
H8    H     H_    0.496208 0.165341 0.178274 0.082442
H9    H     H_    0.072545 0.587954 0.334313 0.082898
H10   H     H_    0.009539 0.413737 0.714015 0.083277
H11   H     H_    0.027730 0.589480 0.739492 0.093640
H12   H     H_    0.225357 0.345947 0.176770 0.083637
H13   H     H_    0.072494 0.412575 0.335988 0.083647
H14   H     H_    0.472691 0.089451 0.260422 0.094460
H15   H     H_    0.431302 0.912204 0.666277 0.082508
H16   H     H_    0.431638 0.088311 0.667532 0.081793
H17   H     H_    0.496853 0.914124 0.293218 0.083956
H18   H     H_    0.725688 0.412905 0.669017 0.104113
H19   H     H_    0.289426 0.588559 0.259207 0.109850
H20   H     H_    0.296289 0.414676 0.279427 0.099482
H21   H     H_    0.726610 0.587411 0.669727 0.103898
H22   H     H_    0.222766 0.913527 0.669474 0.101445
H23   H     H_    0.186242 0.666902 0.176835 0.083557
H24   H     H_    0.790294 0.087822 0.258427 0.109535
H25   H     H_    0.790256 0.912363 0.258904 0.109907
H26   H     H_    0.221908 0.088402 0.677200 0.103517
H27   H     H_    0.398336 0.500868 0.495350 0.135247
H28   H     H_    0.624711 0.501458 0.395996 0.133644
H29   H     H_    0.890957 0.002366 0.488179 0.134514
H30   H     H_    0.128371 0.998862 0.405898 0.137110
H31   H     H_    0.636379 0.329705 0.819763 0.105748
H32   H     H_    0.228182 0.751952 0.177562 0.105287
H33   H     H_    0.345115 0.314093 0.180431 0.112903
H34   H     H_    0.751024 0.368108 0.820860 0.092717
H35   H     H_    0.637528 0.671152 0.819769 0.106210
H36   H     H_    0.142498 0.822427 0.816971 0.107238
H37   H     H_    0.736015 0.249463 0.179219 0.105145
H38   H     H_    0.737843 0.751260 0.179302 0.105991
H39   H     H_    0.270033 0.250775 0.820729 0.104545
H40   H     H_    0.051634 0.748842 0.816905 0.105565
H41   H     H_    0.818908 0.328082 0.180194 0.107183
H42   H     H_    0.820254 0.672731 0.180240 0.107421
H43   H     H_    0.165685 0.315250 0.819677 0.102964
H44   H     H_    0.554793 0.249858 0.818498 0.104584
H45   H     H_    0.312005 0.165839 0.821738 0.082009
H46   H     H_    0.319992 0.825559 0.177485 0.102908
H47   H     H_    0.447832 0.248841 0.181279 0.105487
H48   H     H_    0.556287 0.750864 0.818525 0.105444
H49   H     H_    0.106069 0.413007 0.663166 0.104869
H50   H     H_    0.110801 0.590051 0.503431 0.105142
H51   H     H_    0.118395 0.412473 0.510458 0.105087
H52   H     H_    0.096217 0.590424 0.653502 0.107260
H53   H     H_    0.383099 0.912296 0.491277 0.105293
H54   H     H_    0.404967 0.090282 0.347090 0.107457
H55   H     H_    0.395976 0.912841 0.338937 0.103519
H56   H     H_    0.688506 0.833599 0.176685 0.085192
H57   H     H_    0.390009 0.089895 0.496862 0.105484
H58   H     H_    0.471371 0.385488 0.519417 0.100113
H59   H     H_    0.548228 0.418794 0.639184 0.101831
H60   H     H_    0.545010 0.616638 0.362887 0.105618
H61   H     H_    0.464431 0.582813 0.245172 0.107895
H62   H     H_    0.542380 0.386801 0.357765 0.105276
H63   H     H_    0.461787 0.421620 0.241565 0.112312
H64   H     H_    0.474113 0.615853 0.524163 0.102319
H65   H     H_    0.550099 0.581323 0.642492 0.101744
H66   H     H_    0.965836 0.887127 0.523424 0.102179
H67   H     H_    0.687963 0.166550 0.176601 0.083177
H68   H     H_    0.040905 0.921822 0.641954 0.103367
H69   H     H_    0.047500 0.114121 0.362992 0.105148
H70   H     H_    0.970305 0.078990 0.245820 0.107454
H71   H     H_    0.046229 0.884307 0.370854 0.104780
H72   H     H_    0.969157 0.917781 0.251252 0.107857
H73   H     H_    0.967296 0.117148 0.514757 0.102353
H74   H     H_    0.040636 0.083936 0.635697 0.106246
H75   H     H_    0.253629 0.865358 0.819226 0.091975
H76   H     H_    0.932270 0.370882 0.180309 0.093079
N1    N     N_R   0.892620 0.603790 0.941800 -0.039558
N2    N     N_R   0.047790 0.602400 0.942090 -0.036596
N3    N     N_R   0.047790 0.397600 0.942090 -0.036458
N4    N     N_R   0.952210 0.602400 0.057910 -0.039340
N5    N     N_R   0.452210 0.897600 0.057910 -0.036748
N6    N     N_R   0.547790 0.102400 0.942090 -0.036790
N7    N     N_R   0.547790 0.897600 0.942090 -0.037986
N8    N     N_R   0.452210 0.102400 0.057910 -0.036289
N9    N     N_R   0.026300 0.529110 0.206760 -0.036927
N10   N     N_R   0.973700 0.470890 0.793240 -0.038882
N11   N     N_R   0.973700 0.529110 0.793240 -0.039692
N12   N     N_R   0.107380 0.396210 0.058200 -0.037159
N13   N     N_R   0.026300 0.470890 0.206760 -0.037064
N14   N     N_R   0.526300 0.029110 0.206760 -0.041005
N15   N     N_R   0.473700 0.970890 0.793240 -0.038835
N16   N     N_R   0.473700 0.029110 0.793240 -0.039075
N17   N     N_R   0.526300 0.970890 0.206760 -0.039697
N18   N     N_R   0.818530 0.472270 0.792960 -0.037885
N19   N     N_R   0.181470 0.527730 0.207040 -0.042953
N20   N     N_R   0.181470 0.472270 0.207040 -0.042213
N21   N     N_R   0.818530 0.527730 0.792960 -0.037834
N22   N     N_R   0.318530 0.972270 0.792960 -0.037722
N23   N     N_R   0.107380 0.603790 0.058200 -0.037649
N24   N     N_R   0.681470 0.027730 0.207040 -0.045359
N25   N     N_R   0.681470 0.972270 0.207040 -0.045309
N26   N     N_R   0.318530 0.027730 0.792960 -0.038509
N27   N     N_3   0.535889 0.406820 0.564181 -0.228928
N28   N     N_3   0.480652 0.595243 0.321865 -0.223727
N29   N     N_3   0.478446 0.408406 0.318101 -0.228003
N30   N     N_3   0.538102 0.594136 0.568041 -0.229213
N31   N     N_3   0.030371 0.908442 0.568641 -0.228882
N32   N     N_3   0.983138 0.092677 0.320150 -0.223209
N33   N     N_3   0.982031 0.905832 0.326590 -0.223882
N34   N     N_R   0.892620 0.396210 0.941800 -0.041112
N35   N     N_3   0.031349 0.095559 0.562134 -0.226681
N36   N     N_R   0.392620 0.103790 0.941800 -0.037690
N37   N     N_R   0.607380 0.896210 0.058200 -0.038360
N38   N     N_R   0.607380 0.103790 0.058200 -0.036888
N39   N     N_R   0.392620 0.896210 0.941800 -0.039049
N40   N     N_R   0.952210 0.397600 0.057910 -0.040910
Ni1   Ni    Ni4+2 0.934150 0.565840 0.869060 0.210340
Ni2   Ni    Ni4+2 0.065850 0.434160 0.130940 0.209545
Ni3   Ni    Ni4+2 0.065850 0.565840 0.130940 0.207039
Ni4   Ni    Ni4+2 0.934150 0.434160 0.869060 0.213242
Ni5   Ni    Ni4+2 0.434150 0.065840 0.869060 0.205762
Ni6   Ni    Ni4+2 0.565850 0.934160 0.130940 0.208868
Ni7   Ni    Ni4+2 0.565850 0.065840 0.130940 0.205651
Ni8   Ni    Ni4+2 0.434150 0.934160 0.869060 0.207943

loop_
_geom_bond_atom_site_label_1
_geom_bond_atom_site_label_2
_ccdc_geom_bond_type
N7    N37   A    
C71   N26   A    
N2    N23   A    
C19   H44   S    
N3    Ni4   S    
N8    Ni7   S    
C3    H30   S    
C43   C83   S    
C14   C18   A    
N2    Ni1   S    
C36   C42   A    
C42   C82   S    
C52   N7    A    
C62   C83   A    
C67   N22   A    
C70   C88   A    
N39   Ni8   S    
C45   N40   A    
C49   H4    S    
N19   Ni3   S    
C5    C94   S    
N34   Ni4   S    
C65   C86   A    
C6    C19   A    
C35   C75   A    
C60   H15   S    
C64   H19   S    
C69   N24   A    
C17   C26   A    
C21   H47   S    
C18   H43   S    
C35   N34   A    
C14   C30   A    
N16   Ni5   S    
C13   H12   S    
C33   H50   S    
C51   H6    S    
H71   N33   S    
N34   N40   A    
C9    C22   A    
N18   N21   A    
C91   C93   S    
C64   N19   A    
C95   N32   S    
C33   C36   A    
C26   C72   S    
C35   H34   S    
C2    C85   S    
C11   C16   A    
C55   N10   A    
C64   C86   A    
C62   H17   S    
C92   N29   S    
H61   N28   S    
N14   N17   A    
C4    C96   S    
C1    N1    A    
C32   H49   S    
C24   N23   A    
N7    Ni8   S    
C49   C72   A    
C12   C17   A    
N22   N26   A    
C50   H5    S    
C71   H26   S    
C31   C77   S    
C3    C96   S    
C45   C75   A    
C28   C78   S    
H65   N30   S    
C56   H11   S    
C91   N28   S    
C20   C29   A    
C49   N4    A    
C51   N6    A    
C70   N25   A    
C79   N39   A    
C8    H33   S    
C47   H2    S    
C63   C85   A    
C55   C82   A    
H58   N27   S    
N26   Ni5   S    
H73   N35   S    
C34   C41   A    
N25   Ni6   S    
C66   C85   A    
N21   Ni1   S    
C93   N30   S    
H69   N32   S    
C46   C76   A    
C9    C26   A    
N8    N36   A    
C40   C44   A    
N36   Ni5   S    
C58   H13   S    
C68   C78   A    
C57   H56   S    
C66   H21   S    
C1    C72   A    
C22   C31   A    
C94   N31   S    
H74   N35   S    
C79   H75   S    
C40   H57   S    
N23   Ni3   S    
C52   H7    S    
C53   H8    S    
H72   N33   S    
C86   C90   S    
C53   N8    A    
N1    Ni1   S    
C63   H18   S    
C100  H29   S    
N24   N25   A    
N19   N20   A    
C39   C43   A    
N3    N12   A    
C69   H24   S    
C3    C5    S    
C48   H3    S    
N10   Ni4   S    
C54   N9    A    
C24   H23   S    
H59   N27   S    
N15   N16   A    
C54   H9    S    
C39   H55   S    
C17   H42   S    
C25   C75   S    
C32   C34   A    
C2    C89   S    
N22   Ni8   S    
H62   N29   S    
H70   N32   S    
C59   C83   A    
C57   C77   A    
C61   N16   A    
C4    C95   S    
C30   C76   S    
N37   Ni6   S    
C90   C92   S    
C56   N11   A    
C94   C100  S    
C10   H36   S    
N1    N4    A    
C41   C81   S    
C61   H16   S    
C8    C21   A    
H68   N31   S    
N5    N39   A    
C14   H39   S    
C89   C92   S    
C94   C96   S    
C58   N13   A    
C7    H32   S    
C69   C88   A    
C56   C82   A    
C46   N36   A    
C71   C87   A    
C9    H35   S    
C70   H25   S    
N17   Ni6   S    
C89   N27   S    
C22   H48   S    
C2    C99   S    
C4    C100  S    
C55   H10   S    
C19   C28   A    
C20   H46   S    
C45   H76   S    
C53   C76   A    
H66   N31   S    
C38   H54   S    
C23   C74   S    
C52   C77   A    
C67   H22   S    
C1    H1    S    
C97   C100  S    
C68   N38   A    
N13   Ni2   S    
N6    N38   A    
C15   H40   S    
N11   Ni1   S    
C16   C25   A    
C98   H27   S    
N6    Ni5   S    
C96   N33   S    
N9    Ni3   S    
N5    Ni6   S    
C13   C73   A    
N24   Ni7   S    
C48   C73   A    
C2    C93   S    
C36   H52   S    
C18   C27   A    
C47   C74   A    
C57   N37   A    
C6    H31   S    
C59   N14   A    
C61   C84   A    
C50   C80   A    
H60   N28   S    
N20   Ni2   S    
C34   H51   S    
C95   C97   S    
N9    N13   A    
C99   H28   S    
C4    C88   S    
N12   Ni2   S    
C47   N2    A    
C21   C30   A    
C67   C87   A    
N18   Ni4   S    
C44   C84   S    
C89   C98   S    
C10   C15   A    
C33   C41   A    
C65   N20   A    
C37   C44   A    
C16   H41   S    
C11   H37   S    
C51   C78   A    
C50   N5    A    
C12   C31   A    
H64   N30   S    
N14   Ni7   S    
C37   H53   S    
C38   C40   A    
C6    C25   A    
C60   C84   A    
C10   C29   A    
C24   C74   A    
C90   C91   S    
C29   C80   S    
C11   C28   A    
C58   C81   A    
C59   H14   S    
C7    C23   A    
C93   C98   S    
C15   C23   A    
C65   H20   S    
H63   N29   S    
C5    C97   S    
C46   H45   S    
C12   H38   S    
C48   N3    A    
C97   N35   S    
C66   N21   A    
N38   Ni7   S    
C79   C80   A    
C5    C87   S    
C68   H67   S    
C60   N15   A    
C38   C43   A    
C63   N18   A    
C37   C39   A    
C7    C20   A    
C13   N12   A    
C8    C27   A    
C32   C42   A    
N4    Ni3   S    
C3    C95   S    
C62   N17   A    
C91   C99   S    
N10   N11   A    
C27   C73   S    
N15   Ni8   S    
C90   C98   S    
C54   C81   A    
N40   Ni2   S    
C92   C99   S    
