data_mof_unit_2658.cif
_audit_creation_date              2012-12-10T20:27:16-0500
_audit_creation_method            fapswitch 2.2
_symmetry_space_group_name_H-M    P1
_symmetry_Int_Tables_number       1
_space_group_crystal_system       triclinic
_cell_length_a                    10.388335
_cell_length_b                    10.660814
_cell_length_c                    9.868381
_cell_angle_alpha                 89.7394
_cell_angle_beta                  102.151199
_cell_angle_gamma                 90.117827
_cell_volume                      1068.4068473

loop_
_atom_site_label
_atom_site_type_symbol
_atom_type_description
_atom_site_fract_x
_atom_site_fract_y
_atom_site_fract_z
_atom_type_partial_charge
C1    C     C_R   0.499351 0.260444 0.500148 0.869810
C2    C     C_R   0.497753 0.128824 0.498406 -0.076765
C3    C     C_R   0.413279 0.067793 0.389889 -0.225170
C4    C     C_R   0.406581 0.937623 0.389114 -0.026850
C5    C     C_R   0.492765 0.871620 0.495602 -0.135428
C6    C     C_R   0.586474 0.934348 0.593519 0.018441
C7    C     C_3   0.615283 0.923383 0.748023 -0.521761
C8    C     C_3   0.612060 0.065871 0.752187 0.336255
C9    C     C_R   0.390124 0.532886 0.046604 0.187438
C10   C     C_R   0.602890 0.450501 0.094982 -0.114190
C11   C     C_R   0.603684 0.451784 0.951227 -0.112512
C12   C     C_R   0.256993 0.504896 0.443948 0.858624
C13   C     C_R   0.389650 0.531827 0.904089 0.217337
C14   C     C_3   0.321049 0.654784 0.881796 -0.443035
C15   C     C_3   0.323464 0.657033 0.035968 -0.493636
C16   C     C_R   0.495526 0.739536 0.498605 0.885985
C17   C     C_R   0.743800 0.503398 0.555932 0.773385
C18   C     C_2   0.115441 0.521476 0.415865 -0.233603
C19   C     C_2   0.065321 0.615158 0.482032 0.539795
C20   C     C_2   0.886137 0.527494 0.580291 0.301617
C21   C     C_2   0.925973 0.607679 0.491752 -0.310235
C22   C     C_R   0.586609 0.062326 0.597109 0.016075
H1    H     H_    0.855384 0.657285 0.412676 0.140797
H2    H     H_    0.707753 0.112000 0.797703 0.038812
H3    H     H_    0.685354 0.411708 0.167726 0.210170
H4    H     H_    0.688260 0.415829 0.916192 0.150631
H5    H     H_    0.382959 0.728760 0.848269 0.203816
H6    H     H_    0.220114 0.645422 0.817449 0.254839
H7    H     H_    0.388536 0.731632 0.091338 0.223360
H8    H     H_    0.223868 0.651157 0.060228 0.219524
H9    H     H_    0.345830 0.122024 0.312890 0.184858
H10   H     H_    0.534434 0.877497 0.787783 0.220721
H11   H     H_    0.714873 0.884055 0.789439 0.165089
N1    N     N_R   0.499160 0.499140 0.142600 -0.107920
N2    N     N_R   0.499160 0.499180 0.856960 -0.106603
O1    O     O_R   0.500020 0.316790 0.614700 -0.573973
O2    O     O_R   0.500000 0.316760 0.385350 -0.629523
O3    O     O_R   0.317820 0.500020 0.571850 -0.558151
O4    O     O_R   0.317800 0.499980 0.342510 -0.627281
O5    O     O_R   0.500000 0.683240 0.614650 -0.593688
O6    O     O_R   0.499980 0.683210 0.385300 -0.637025
O7    O     O_R   0.682200 0.500020 0.657490 -0.618433
O8    O     O_R   0.682180 0.499980 0.428150 -0.591087
Zn1   Zn    Zn3+2 0.500010 0.500020 0.653140 0.976160
Zn2   Zn    Zn3+2 0.499990 0.499980 0.346860 0.940197
O9    O     O_3   0.149852 0.709698 0.547513 -0.633293
C23   C     C_3   0.080772 0.812448 0.588198 0.050496
H12   H     H_    0.035012 0.784764 0.676233 0.168304
H13   H     H_    0.003579 0.847353 0.500123 0.142233
C24   C     C_3   0.175460 0.920484 0.635255 -0.767086
H14   H     H_    0.215202 0.956425 0.546818 0.256151
H15   H     H_    0.122641 0.998010 0.674964 0.206395
H16   H     H_    0.258179 0.889640 0.718868 0.264322
O10   O     O_3   0.978641 0.474321 0.688063 -0.610099
C25   C     C_3   0.945465 0.349423 0.714716 0.094204
H17   H     H_    0.913766 0.295198 0.616909 0.118728
H18   H     H_    0.866136 0.347841 0.774735 0.150937
C26   C     C_3   0.066161 0.285042 0.800910 -0.810857
H19   H     H_    0.100354 0.335969 0.899971 0.259662
H20   H     H_    0.041386 0.187019 0.824300 0.204652
H21   H     H_    0.146885 0.283676 0.742810 0.264316
C27   C     C_2   0.035651 0.428509 0.322079 0.308865
H22   H     H_    0.081490 0.342637 0.297086 0.078728
O11   O     O_2   0.920917 0.448364 0.267604 -0.600224
C28   C     C_2   0.300090 0.874446 0.288065 0.380046
H23   H     H_    0.275143 0.777231 0.302596 0.099409
O12   O     O_2   0.237122 0.931050 0.187964 -0.600294
O13   O     O_3   0.501215 0.111451 0.798631 -0.567742
C29   C     C_3   0.530630 0.117845 0.944633 0.105726
H24   H     H_    0.612954 0.184530 0.981473 0.127633
H25   H     H_    0.557603 0.023856 0.991715 0.141534
C30   C     C_3   0.409745 0.163949 0.993581 -0.763438
H26   H     H_    0.328455 0.094728 0.966199 0.270661
H27   H     H_    0.434026 0.176550 0.107648 0.217859
H28   H     H_    0.376804 0.255225 0.943808 0.245303

loop_
_geom_bond_atom_site_label_1
_geom_bond_atom_site_label_2
_ccdc_geom_bond_type
C2    C22   A    
C29   C30   S    
C8    C22   S    
C25   H17   S    
C17   O8    A    
O3    Zn1   S    
C6    C7    S    
C10   N1    A    
C14   H5    S    
C25   H18   S    
C7    H11   S    
O10   C25   S    
C24   H15   S    
C23   H12   S    
C14   C15   S    
C1    O2    A    
O4    Zn2   S    
C14   H6    S    
C8    O13   S    
C11   N2    A    
C2    C3    A    
C9    C15   S    
C19   O9    S    
C7    C8    S    
C23   H13   S    
N1    Zn2   S    
C13   C14   S    
C3    H9    S    
N2    Zn1   S    
O8    Zn2   S    
C9    N1    A    
O7    Zn1   S    
C26   H21   S    
C30   H28   S    
C27   O11   D    
C5    C6    A    
C10   H3    S    
C20   O10   S    
C8    H2    S    
C16   O5    A    
C15   H7    S    
C23   C24   S    
C29   H24   S    
C28   H23   S    
C21   H1    S    
C12   O3    A    
C4    C28   S    
O1    Zn1   S    
C24   H16   S    
C10   C11   A    
O2    Zn2   S    
C3    C4    A    
C6    C22   A    
C13   N2    A    
O5    Zn1   S    
C17   C20   S    
C20   C21   D    
C15   H8    S    
C30   H27   S    
C1    C2    S    
C25   C26   S    
C12   C18   S    
C29   H25   S    
C9    C13   A    
C17   O7    A    
C18   C19   D    
C5    C16   S    
O6    Zn2   S    
C7    H10   S    
C24   H14   S    
C11   H4    S    
C19   C21   S    
C26   H19   S    
O9    C23   S    
C4    C5    A    
C26   H20   S    
C16   O6    A    
O13   C29   S    
C12   O4    A    
C18   C27   S    
C27   H22   S    
C1    O1    A    
C30   H26   S    
C28   O12   D    
