data_mof_unit_182.cif
_audit_creation_date              2013-03-05T15:43:33-0500
_audit_creation_method            fapswitch 2.2
_symmetry_space_group_name_H-M    P1
_symmetry_Int_Tables_number       1
_space_group_crystal_system       triclinic
_cell_length_a                    10.015253
_cell_length_b                    10.658768
_cell_length_c                    13.13278
_cell_angle_alpha                 90.172413
_cell_angle_beta                  71.109101
_cell_angle_gamma                 90.614684
_cell_volume                      1326.33885303

loop_
_atom_site_label
_atom_site_type_symbol
_atom_site_description
_atom_site_fract_x
_atom_site_fract_y
_atom_site_fract_z
_atom_type_partial_charge
O1    O     O_R   0.386950 0.680940 0.500020 -0.585283
O2    O     O_R   0.613110 0.680900 0.499980 -0.623959
C1    C     C_R   0.501051 0.737797 0.499662 0.944440
O3    O     O_R   0.330780 0.500000 0.653640 -0.625560
O4    O     O_R   0.556930 0.499960 0.653610 -0.593175
C2    C     C_R   0.423425 0.511606 0.703241 0.866223
Zn1   Zn    Zn3+2 0.349000 0.500030 0.500020 1.002737
Zn2   Zn    Zn3+2 0.651000 0.499970 0.499980 0.993978
O5    O     O_R   0.386890 0.319100 0.500020 -0.617476
O6    O     O_R   0.613050 0.319060 0.499980 -0.562358
O7    O     O_R   0.443070 0.500040 0.346390 -0.565886
O8    O     O_R   0.669220 0.500000 0.346360 -0.618759
C3    C     C_R   0.494767 0.263113 0.510735 0.979565
C4    C     C_R   0.576630 0.510804 0.296961 0.891541
C5    C     C_R   0.796206 0.571153 0.008678 -0.174378
H1    H     H_    0.842716 0.511093 0.149382 0.170942
H2    H     H_    0.827178 0.644973 0.806475 0.142907
H3    H     H_    0.906107 0.573737 0.958849 0.144064
C6    C     C_R   0.619209 0.543809 0.183387 -0.169722
C7    C     C_R   0.239464 0.503977 0.881209 -0.186113
C8    C     C_R   0.201219 0.500777 0.992504 -0.147516
C9    C     C_R   0.300856 0.527780 0.042629 -0.118923
C10   C     C_R   0.438505 0.569042 0.982630 0.094245
C11   C     C_R   0.475144 0.580203 0.869932 0.092102
C12   C     C_R   0.545875 0.584493 0.029969 -0.007357
C13   C     C_R   0.688694 0.592783 0.964276 0.146529
C14   C     C_R   0.719809 0.623986 0.856309 -0.190335
C15   C     C_R   0.611528 0.627253 0.811690 -0.166805
C16   C     C_R   0.515663 0.587161 0.141034 0.220435
C17   C     C_R   0.760469 0.537448 0.116929 -0.215984
C18   C     C_R   0.377713 0.536983 0.819038 -0.108522
H4    H     H_    0.163110 0.473144 0.843671 0.161525
H5    H     H_    0.270877 0.507800 0.127338 0.177574
H6    H     H_    0.096581 0.468972 0.039757 0.141970
H7    H     H_    0.638304 0.661407 0.730128 0.163984
C19   C     C_2   0.575262 0.066301 0.565599 0.360565
C20   C     C_2   0.479714 0.132351 0.536516 -0.462136
H8    H     H_    0.384770 0.088557 0.529621 0.156881
C21   C     C_2   0.568623 0.929925 0.562177 -0.218567
C22   C     C_2   0.503542 0.870685 0.501274 -0.349286
H9    H     H_    0.621684 0.877124 0.608348 0.185814
H10   H     H_    0.451991 0.917677 0.451376 0.173310
C23   C     C_2   0.098873 0.423859 0.441779 -0.040922
N1    N     N_2   0.148270 0.498670 0.498870 -0.166451
H11   H     H_    0.170640 0.358617 0.388112 0.158333
H12   H     H_    0.080006 0.556366 0.553710 0.159032
C24   C     C_2   0.946899 0.419695 0.446030 -0.067798
N2    N     N_2   0.852610 0.498640 0.498840 -0.181395
H13   H     H_    0.915721 0.346626 0.400379 0.165530
H14   H     H_    0.882399 0.571621 0.538089 0.162105
N3    N     N_R   0.408890 0.672852 0.202208 0.206481
O9    O     O_R   0.290584 0.633401 0.270774 -0.394443
O10   O     O_R   0.423593 0.791730 0.178581 -0.370991
N4    N     N_R   0.682421 0.124661 0.601577 0.225667
O11   O     O_R   0.806075 0.073491 0.578507 -0.391115
O12   O     O_R   0.648559 0.212874 0.673937 -0.367260

loop_
_geom_bond_atom_site_label_1
_geom_bond_atom_site_label_2
_geom_bond_distance
_ccdc_geom_bond_type
C5    H3    1.083314 S    
N3    O10   1.300874 A    
C10   C11   1.409886 A    
Zn2   N2    2.014579 S    
C20   H8    1.084555 S    
O4    Zn2   1.930654 S    
C3    C20   1.430115 S    
C24   N2    1.292379 D    
Zn2   O8    1.965974 S    
N2    H14   1.025666 S    
O2    C1    1.282581 A    
C11   C18   1.421958 A    
C24   H13   1.084757 S    
C21   H9    1.088081 S    
O1    Zn1   1.961374 S    
C8    C9    1.389244 A    
Zn1   O7    1.930654 S    
C23   H11   1.084750 S    
C13   C14   1.390220 A    
O3    Zn1   1.965974 S    
C22   H10   1.083260 S    
C19   C20   1.345359 D    
O8    C4    1.298584 A    
C1    C22   1.416592 S    
C2    C18   1.464498 S    
C10   C12   1.413664 A    
C23   N1    1.292617 D    
C12   C16   1.390689 A    
O4    C2    1.291039 A    
O7    C4    1.287913 A    
N4    O12   1.301881 A    
O3    C2    1.299607 A    
C19   N4    1.440238 S    
C16   N3    1.443409 S    
H1    C17   1.082624 S    
N3    O9    1.300870 A    
H2    C14   1.083835 S    
C21   C22   1.337530 D    
C7    C8    1.386249 A    
C5    C17   1.396085 A    
Zn2   O6    1.961374 S    
C7    H4    1.083309 S    
C14   C15   1.390337 A    
Zn1   O5    1.969464 S    
C9    H5    1.075573 S    
O5    C3    1.286854 A    
C9    C10   1.414382 A    
C5    C13   1.401893 A    
C8    H6    1.082038 S    
Zn1   N1    2.015198 S    
C12   C13   1.413056 A    
N4    O11   1.301342 A    
C6    C17   1.403575 A    
C23   C24   1.505091 S    
C4    C6    1.455461 S    
O6    C3    1.286823 A    
C19   C21   1.455623 S    
O2    Zn2   1.969461 S    
C11   C15   1.418932 A    
C15   H7    1.079818 S    
N1    H12   1.025582 S    
O1    C1    1.286406 A    
C7    C18   1.402409 A    
C6    C16   1.408432 A    
