data_mof_unit_2648.cif
_audit_creation_date              2012-12-11T15:46:43-0500
_audit_creation_method            fapswitch 2.2
_symmetry_space_group_name_H-M    P1
_symmetry_Int_Tables_number       1
_space_group_crystal_system       triclinic
_cell_length_a                    11.569125
_cell_length_b                    11.493687
_cell_length_c                    19.547289
_cell_angle_alpha                 90.621864
_cell_angle_beta                  89.993023
_cell_angle_gamma                 59.901107
_cell_volume                      2248.58255811

loop_
_atom_site_label
_atom_site_type_symbol
_atom_type_description
_atom_site_fract_x
_atom_site_fract_y
_atom_site_fract_z
_atom_type_partial_charge
C1    C     C_R   0.640239 0.117809 0.599241 0.541451
C2    C     C_1   0.640726 0.704353 0.668064 0.004899
C3    C     C_1   0.146479 0.188237 0.863107 0.000744
C4    C     C_1   0.227015 0.145260 0.735530 -0.030469
C5    C     C_1   0.187457 0.164267 0.804990 -0.029334
C6    C     C_1   0.258319 0.133265 0.675928 0.001519
C7    C     C_1   0.678983 0.190425 0.860872 0.004375
C8    C     C_1   0.657930 0.167520 0.729125 -0.031368
C9    C     C_1   0.665655 0.180429 0.800444 -0.030572
C10   C     C_1   0.652192 0.150391 0.668683 0.002525
C11   C     C_R   0.675462 0.638591 0.198960 0.009865
C12   C     C_R   0.612179 0.746294 0.598686 0.538117
C13   C     C_R   0.579932 0.625114 0.235445 0.040843
C14   C     C_R   0.573734 0.632640 0.304977 0.024372
C15   C     C_R   0.775449 0.646286 0.306491 -0.151213
C16   C     C_R   0.780871 0.637794 0.235064 -0.150137
C17   C     C_3   0.432854 0.695409 0.226065 -0.281495
C18   C     C_3   0.423280 0.703765 0.303070 -0.269590
C19   C     C_R   0.662628 0.659460 0.340886 0.014828
C20   C     C_R   0.126267 0.205419 0.195854 -0.016437
C21   C     C_R   0.122980 0.307863 0.235507 0.088149
C22   C     C_R   0.145021 0.293239 0.304528 -0.009499
C23   C     C_R   0.297896 0.120275 0.605394 0.556943
C24   C     C_R   0.155059 0.078599 0.299933 -0.170991
C25   C     C_R   0.133825 0.093436 0.229185 -0.168848
C26   C     C_3   0.199300 0.379436 0.226171 0.149927
C27   C     C_3   0.222351 0.366026 0.302726 -0.228718
C28   C     C_R   0.172264 0.173916 0.337090 0.004980
C29   C     C_R   0.665999 0.184122 0.191667 0.014285
C30   C     C_R   0.733887 0.054540 0.218749 0.017307
C31   C     C_R   0.730413 0.035314 0.287658 0.033060
C32   C     C_R   0.575790 0.271284 0.305128 -0.171259
C33   C     C_R   0.578403 0.291525 0.234750 -0.170747
C34   C     C_R   0.644818 0.112558 0.402438 0.546409
C35   C     C_3   0.876763 0.943952 0.213221 -0.267664
C36   C     C_3   0.872792 0.925480 0.289490 -0.265347
C37   C     C_R   0.659691 0.143271 0.332572 0.020552
C38   C     C_R   0.084501 0.229511 0.929277 0.544597
C39   C     C_R   0.684059 0.604292 0.929507 0.544135
C40   C     C_R   0.708573 0.206257 0.930176 0.546408
C41   C     C_R   0.081749 0.236297 0.125785 0.541095
C42   C     C_R   0.684895 0.607716 0.127044 0.541499
C43   C     C_R   0.707578 0.210893 0.126596 0.550534
C44   C     C_R   0.618907 0.734418 0.404181 0.548481
C45   C     C_R   0.242132 0.141826 0.401970 0.557953
C46   C     C_1   0.670491 0.646570 0.860174 0.004314
C47   C     C_1   0.654328 0.684147 0.728494 -0.030721
C48   C     C_1   0.663298 0.666984 0.799753 -0.030827
Cr1   Cr    Cr6+3 0.404720 0.198220 0.499960 1.018484
Cr2   Cr    Cr6+3 0.698290 0.897110 0.500380 1.024434
Cr3   Cr    Cr6+3 0.396970 0.904720 0.499610 1.022171
Cr4   Cr    Cr6+3 0.926290 0.152010 0.028150 1.020876
Cr5   Cr    Cr6+3 0.921440 0.451830 0.027490 1.052131
Cr6   Cr    Cr6+3 0.626370 0.446880 0.028730 1.020181
H1    H     H_    0.851572 0.655808 0.333861 0.134841
H2    H     H_    0.290495 0.320494 0.193787 0.103452
H3    H     H_    0.329300 0.300336 0.315314 0.128295
H4    H     H_    0.170656 0.463083 0.331580 0.149618
H5    H     H_    0.511222 0.355732 0.338061 0.122838
H6    H     H_    0.521055 0.392481 0.215374 0.129428
H7    H     H_    0.947388 0.978600 0.199416 0.156508
H8    H     H_    0.887065 0.857186 0.182579 0.140493
H9    H     H_    0.883993 0.827066 0.302824 0.146604
H10   H     H_    0.937114 0.954127 0.319049 0.138369
H11   H     H_    0.863512 0.635762 0.208288 0.192544
H12   H     H_    0.399931 0.628817 0.202760 0.125704
H13   H     H_    0.393222 0.794981 0.201424 0.136902
H14   H     H_    0.374539 0.809289 0.321598 0.169315
H15   H     H_    0.383177 0.642288 0.325150 0.122864
H16   H     H_    0.166422 0.989503 0.324298 0.117315
H17   H     H_    0.126884 0.016200 0.200519 0.123797
O1    O     O_R   0.267750 0.231960 0.575440 -0.498581
O2    O     O_R   0.685950 0.784660 0.430010 -0.503689
O3    O     O_R   0.502510 0.767000 0.423980 -0.523662
O4    O     O_R   0.288320 0.026340 0.429250 -0.502252
O5    O     O_3   0.499990 0.000020 0.499980 -0.271886
O6    O     O_R   0.821590 0.119350 0.952850 -0.505067
O7    O     O_R   0.037230 0.162540 0.957390 -0.494853
O8    O     O_R   0.056530 0.344750 0.951370 -0.505595
O9    O     O_R   0.798000 0.560370 0.957490 -0.494132
O10   O     O_R   0.596230 0.579400 0.952760 -0.505501
O11   O     O_R   0.639160 0.321170 0.958690 -0.493947
O12   O     O_R   0.527290 0.186640 0.570530 -0.510228
O13   O     O_R   0.821370 0.124220 0.104400 -0.522812
O14   O     O_R   0.037020 0.167050 0.097880 -0.512681
O15   O     O_R   0.056310 0.349620 0.102920 -0.478438
O16   O     O_R   0.797790 0.564880 0.097980 -0.496501
O17   O     O_R   0.596000 0.584270 0.104310 -0.520495
O18   O     O_R   0.638950 0.325690 0.099180 -0.508627
O19   O     O_3   0.824700 0.350240 0.028120 -0.254414
O20   O     O_R   0.728110 0.003450 0.576380 -0.501100
O21   O     O_R   0.682980 0.789190 0.570500 -0.495172
O22   O     O_R   0.499300 0.771880 0.575540 -0.511506
O23   O     O_R   0.285350 0.030870 0.569740 -0.486882
O24   O     O_R   0.270960 0.227070 0.423890 -0.518477
O25   O     O_R   0.530270 0.182120 0.430040 -0.509552
O26   O     O_R   0.731320 0.998570 0.424830 -0.512043
O27   O     O_3   0.113873 0.513245 0.205868 -0.560812
C49   C     C_3   0.189902 0.576477 0.196300 -0.141299
H18   H     H_    0.267609 0.524329 0.155923 0.118213
H19   H     H_    0.235926 0.582394 0.245184 0.103204
H20   H     H_    0.122862 0.680692 0.179072 0.132698

loop_
_geom_bond_atom_site_label_1
_geom_bond_atom_site_label_2
_ccdc_geom_bond_type
C21   C26   S    
C34   C37   S    
C14   C18   S    
Cr4   O19   S    
C35   C36   S    
Cr3   O3    S    
C2    C12   S    
C20   C41   S    
C24   H16   S    
C15   C19   A    
C41   O15   A    
C26   C27   S    
C43   O18   A    
C30   C35   S    
Cr4   O14   S    
Cr5   O8    S    
C34   O25   A    
Cr6   O19   S    
C30   C31   A    
C20   C25   A    
C18   H14   S    
C15   C16   A    
C29   C33   A    
C34   O26   A    
C11   C42   S    
Cr4   O13   S    
C49   H18   S    
C3    C38   S    
C8    C9    S    
Cr1   O1    S    
C7    C40   S    
Cr5   O15   S    
C25   H17   S    
C36   H9    S    
C18   H15   S    
C1    O20   A    
C22   C28   A    
C13   C14   A    
C29   C43   S    
C43   O13   A    
Cr4   O7    S    
C14   C19   A    
C46   C48   T    
C28   C45   S    
C17   H13   S    
C40   O11   A    
Cr5   O9    S    
C24   C25   A    
C39   O10   A    
Cr6   O18   S    
C4    C6    T    
C27   H3    S    
Cr2   O2    S    
C38   O7    A    
Cr1   O24   S    
C31   C37   A    
C15   H1    S    
C29   C30   A    
Cr2   O5    S    
C11   C16   A    
C47   C48   S    
C17   C18   S    
C17   H12   S    
Cr1   O5    S    
Cr5   O16   S    
C32   C37   A    
Cr3   O5    S    
C44   O3    A    
Cr3   O22   S    
C39   C46   S    
Cr2   O21   S    
C49   H19   S    
C26   O27   S    
C33   H6    S    
C22   C27   S    
C12   O22   A    
C42   O17   A    
Cr4   O6    S    
C45   O24   A    
Cr6   O11   S    
C19   C44   S    
C7    C9    T    
Cr2   O26   S    
C31   C36   S    
C23   O1    A    
C12   O21   A    
C1    C10   S    
C24   C28   A    
Cr3   O4    S    
C4    C5    S    
C3    C5    T    
C27   H4    S    
C26   H2    S    
C42   O16   A    
C2    C47   T    
C1    O12   A    
C41   O14   A    
C23   O23   A    
C13   C17   S    
C45   O4    A    
C32   C33   A    
Cr1   O12   S    
C36   H10   S    
C39   O9    A    
Cr6   O17   S    
C11   C13   A    
C35   H7    S    
C6    C23   S    
C35   H8    S    
Cr1   O25   S    
C44   O2    A    
Cr3   O23   S    
Cr2   O20   S    
C49   H20   S    
C20   C21   A    
C8    C10   T    
O27   C49   S    
C38   O8    A    
Cr5   O19   S    
C40   O6    A    
C16   H11   S    
C32   H5    S    
C21   C22   A    
Cr6   O10   S    
