data_mof_unit_3676.cif
_audit_creation_date              2012-12-10T17:44:30-0500
_audit_creation_method            fapswitch 2.2
_symmetry_space_group_name_H-M    P1
_symmetry_Int_Tables_number       1
_space_group_crystal_system       triclinic
_cell_length_a                    10.0
_cell_length_b                    10.727464
_cell_length_c                    15.607655
_cell_angle_alpha                 94.791137
_cell_angle_beta                  68.134872
_cell_angle_gamma                 88.239879
_cell_volume                      1544.96824677

loop_
_atom_site_label
_atom_site_type_symbol
_atom_type_description
_atom_site_fract_x
_atom_site_fract_y
_atom_site_fract_z
_atom_type_partial_charge
C1    C     C_R   0.499688 0.739627 0.495094 0.960232
C2    C     C_R   0.417958 0.474842 0.909775 0.134764
C3    C     C_R   0.280964 0.431577 0.959134 0.057502
C4    C     C_R   0.519898 0.490051 0.952054 -0.002004
C5    C     C_R   0.473255 0.491646 0.049406 0.055886
C6    C     C_R   0.322131 0.484670 0.101492 0.004529
C7    C     C_R   0.233242 0.439996 0.056070 -0.340164
C8    C     C_R   0.667947 0.498995 0.898493 -0.324982
C9    C     C_R   0.768117 0.521902 0.939918 0.476000
C10   C     C_R   0.723248 0.526225 0.036160 0.106853
C11   C     C_R   0.579529 0.499687 0.089626 0.025915
C12   C     C_R   0.409875 0.496183 0.674963 0.889718
C13   C     C_R   0.822431 0.547857 0.079650 -0.150441
C14   C     C_R   0.781568 0.538497 0.174289 -0.229567
C15   C     C_R   0.549841 0.472141 0.180127 -0.132285
C16   C     C_R   0.226327 0.902419 0.528248 -0.087155
C17   C     C_R   0.097239 0.973660 0.577810 -0.267557
C18   C     C_R   0.099024 0.092619 0.620531 0.053291
C19   C     C_R   0.232409 0.142768 0.606116 -0.107753
C20   C     C_R   0.363416 0.074172 0.549443 0.043430
C21   C     C_R   0.361477 0.947331 0.521992 0.022379
C22   C     C_R   0.495455 0.873323 0.488354 -0.193714
C23   C     C_R   0.498052 0.261815 0.506444 0.862933
C24   C     C_R   0.628010 0.930232 0.460081 0.451946
C25   C     C_R   0.626370 0.059278 0.471793 -0.313328
C26   C     C_R   0.495953 0.130338 0.515210 -0.155305
C27   C     C_R   0.774628 0.650769 0.645071 0.469847
C28   C     C_R   0.796914 0.695639 0.724552 -0.530294
C29   C     C_R   0.933386 0.697690 0.724839 0.331088
C30   C     C_R   0.050037 0.648127 0.645215 0.442646
C31   C     C_R   0.028977 0.571876 0.571325 -0.041369
C32   C     C_R   0.884572 0.572890 0.570961 -0.011931
C33   C     C_R   0.968751 0.429927 0.433902 0.476661
C34   C     C_R   0.590468 0.498016 0.324725 0.862463
C35   C     C_R   0.111933 0.430824 0.434147 -0.195852
C36   C     C_R   0.357602 0.477627 0.773430 -0.124518
C37   C     C_R   0.644503 0.500160 0.224535 -0.050024
C38   C     C_R   0.192296 0.391694 0.910273 0.005884
C39   C     C_R   0.232228 0.416343 0.817010 -0.118753
C40   C     C_R   0.448275 0.506160 0.820149 -0.246601
H1    H     H_    0.121238 0.427944 0.097220 0.128881
H2    H     H_    0.931194 0.572510 0.040925 0.193299
H3    H     H_    0.216450 0.815741 0.491681 0.203174
H4    H     H_    0.995835 0.935398 0.582792 0.145232
H5    H     H_    0.233684 0.235854 0.638194 0.165870
H6    H     H_    0.727162 0.104345 0.444421 0.182514
H7    H     H_    0.708424 0.743270 0.783344 0.173450
H8    H     H_    0.452013 0.428376 0.217399 0.145199
H9    H     H_    0.199290 0.374371 0.380374 0.131007
H10   H     H_    0.856779 0.560049 0.207689 0.179470
H11   H     H_    0.167814 0.385815 0.777751 0.205357
H12   H     H_    0.541992 0.556428 0.786201 0.170049
H13   H     H_    0.708833 0.484647 0.823678 0.175278
N1    N     N_R   0.856800 0.501200 0.500850 -0.088671
N2    N     N_R   0.142390 0.501280 0.500880 -0.080700
O1    O     O_R   0.385310 0.683220 0.500000 -0.588465
O2    O     O_R   0.614640 0.683250 0.500010 -0.484497
O3    O     O_R   0.319840 0.499980 0.632240 -0.562835
O4    O     O_R   0.549160 0.500000 0.632250 -0.581202
O5    O     O_R   0.385360 0.316750 0.499990 -0.627668
O6    O     O_R   0.614690 0.316780 0.500000 -0.591097
O7    O     O_R   0.450840 0.500000 0.367750 -0.610253
O8    O     O_R   0.680160 0.500020 0.367760 -0.569213
Zn1   Zn    Zn3+2 0.346880 0.499980 0.499990 1.005678
Zn2   Zn    Zn3+2 0.653120 0.500020 0.500010 1.067748
O9    O     O_3   0.757146 0.858439 0.417349 -0.741295
H14   H     H_    0.839021 0.913440 0.403377 0.332757
C41   C     C_2   0.961275 0.165633 0.675452 0.429751
H15   H     H_    0.859373 0.124305 0.685597 0.062622
O10   O     O_2   0.959570 0.272644 0.709571 -0.590610
O11   O     O_3   0.939747 0.357341 0.366557 -0.759429
H16   H     H_    0.030345 0.310743 0.323701 0.298926
O12   O     O_3   0.651491 0.697156 0.637425 -0.705165
H17   H     H_    0.590747 0.754063 0.692743 0.312360
O13   O     O_3   0.957513 0.756809 0.799636 -0.733977
H18   H     H_    0.864034 0.786667 0.849795 0.359367
O14   O     O_3   0.183170 0.684257 0.636669 -0.708281
H19   H     H_    0.179782 0.752822 0.684299 0.367662
O15   O     O_3   0.912096 0.531851 0.887211 -0.734671
H20   H     H_    0.930334 0.504078 0.821475 0.369718
C42   C     C_2   0.065959 0.316219 0.952367 0.425438
H21   H     H_    0.036360 0.290703 0.022433 0.056156
O16   O     O_2   0.995125 0.277588 0.907833 -0.527601
C43   C     C_2   0.246296 0.540718 0.198811 0.360585
H22   H     H_    0.143680 0.507243 0.241290 0.074298
O17   O     O_2   0.292475 0.629948 0.230454 -0.546584

loop_
_geom_bond_atom_site_label_1
_geom_bond_atom_site_label_2
_ccdc_geom_bond_type
C8    C9    A    
C39   H11   S    
O8    Zn2   S    
C28   H7    S    
C16   C21   A    
C34   C37   S    
O12   H17   S    
C19   C20   A    
C4    C8    A    
C42   H21   S    
N1    Zn2   S    
O14   H19   S    
C28   C29   A    
C1    O1    A    
C43   O17   D    
C5    C11   A    
C3    C7    A    
C5    C6    A    
C18   C41   S    
C34   O7    A    
C18   C19   A    
C9    O15   S    
C23   C26   S    
C15   C37   A    
O7    Zn1   S    
C12   O4    A    
C11   C15   A    
C3    C38   A    
C16   C17   A    
C35   H9    S    
O1    Zn1   S    
C2    C40   A    
C13   C14   A    
C12   C36   S    
C9    C10   A    
C24   O9    S    
C12   O3    A    
O9    H14   S    
C1    C22   S    
C21   C22   A    
C30   O14   S    
C15   H8    S    
C32   N1    A    
C13   H2    S    
C42   O16   D    
O3    Zn1   S    
C23   O5    A    
C6    C43   S    
C35   N2    A    
C36   C40   A    
C38   C39   A    
C43   H22   S    
C41   H15   S    
C25   C26   A    
C40   H12   S    
C2    C4    A    
O13   H18   S    
C29   C30   A    
C1    O2    A    
C31   C32   A    
C30   C31   A    
N2    Zn1   S    
C17   C18   A    
C24   C25   A    
C16   H3    S    
C38   C42   S    
C22   C24   A    
C33   N1    A    
C27   C32   A    
C36   C39   A    
O2    Zn2   S    
C4    C5    A    
C10   C13   A    
C8    H13   S    
C19   H5    S    
C6    C7    A    
C29   O13   S    
O5    Zn1   S    
C2    C3    A    
C17   H4    S    
O11   H16   S    
O4    Zn2   S    
C14   C37   A    
C14   H10   S    
C20   C26   A    
C34   O8    A    
C33   C35   A    
C7    H1    S    
C10   C11   A    
C33   O11   S    
O15   H20   S    
O6    Zn2   S    
C23   O6    A    
C20   C21   A    
C41   O10   D    
C27   C28   A    
C31   N2    A    
C27   O12   S    
C25   H6    S    
