data_mof_unit_622.cif
_audit_creation_date              2013-03-05T16:12:15-0500
_audit_creation_method            fapswitch 2.2
_symmetry_space_group_name_H-M    P1
_symmetry_Int_Tables_number       1
_space_group_crystal_system       triclinic
_cell_length_a                    11.007798
_cell_length_b                    9.647193
_cell_length_c                    27.540026
_cell_angle_alpha                 90.926463
_cell_angle_beta                  88.960031
_cell_angle_gamma                 88.898519
_cell_volume                      2923.17398432

loop_
_atom_site_label
_atom_site_type_symbol
_atom_site_description
_atom_site_fract_x
_atom_site_fract_y
_atom_site_fract_z
_atom_type_partial_charge
O1    O     O_R   0.317570 0.620260 0.500030 -0.570893
O2    O     O_R   0.317570 0.379740 0.500030 -0.595373
C1    C     C_R   0.262485 0.501140 0.504114 0.792697
O3    O     O_R   0.499900 0.620250 0.430280 -0.518018
O4    O     O_R   0.499900 0.379750 0.430280 -0.527362
C2    C     C_R   0.495379 0.499360 0.407546 0.894817
Cu1   Cu    Cu3+1 0.499860 0.642410 0.500020 1.057779
Cu2   Cu    Cu3+1 0.499860 0.357590 0.500020 1.067120
O5    O     O_R   0.682190 0.620260 0.500010 -0.562735
O6    O     O_R   0.682190 0.379740 0.500010 -0.509373
O7    O     O_R   0.499860 0.620280 0.569750 -0.552922
O8    O     O_R   0.499860 0.379720 0.569750 -0.546176
C3    C     C_R   0.741581 0.498386 0.498179 0.855775
C4    C     C_R   0.499586 0.500500 0.592344 0.762259
C5    C     C_R   0.288977 0.540973 0.181843 0.614565
O9    O     O_2   0.194462 0.484482 0.205624 -0.429497
N1    N     N_R   0.391779 0.570932 0.206714 -0.460165
C6    C     C_R   0.490466 0.625982 0.183640 0.566206
C7    C     C_R   0.506119 0.453103 0.269861 -0.119229
C8    C     C_R   0.540278 0.443129 0.318211 0.334265
C9    C     C_R   0.354123 0.566074 0.342334 -0.154955
C10   C     C_R   0.325936 0.585435 0.293508 -0.001093
C11   C     C_R   0.404272 0.532236 0.256867 0.232726
C12   C     C_R   0.394675 0.589914 0.106035 -0.110937
C13   C     C_R   0.284666 0.561815 0.131137 -0.137431
C14   C     C_R   0.177117 0.545570 0.104346 0.369618
C15   C     C_R   0.499648 0.624208 0.132453 -0.016346
C16   C     C_R   0.464097 0.500741 0.355405 -0.122883
H1    H     H_    0.291687 0.606746 0.369972 0.203315
H2    H     H_    0.245905 0.645875 0.284412 0.207586
C17   C     C_R   0.492375 0.500208 0.645764 0.025672
C18   C     C_R   0.300503 0.559390 0.975835 0.010007
C19   C     C_R   0.523045 0.553590 0.980116 0.055780
C20   C     C_R   0.415967 0.547211 0.952549 0.081060
C21   C     C_R   0.196853 0.565909 0.946446 -0.251320
C22   C     C_R   0.205513 0.556421 0.895667 0.365180
C23   C     C_R   0.320996 0.539908 0.872441 -0.138166
C24   C     C_R   0.425113 0.528976 0.901365 -0.089641
C25   C     C_R   0.539173 0.500039 0.879107 -0.008469
C26   C     C_R   0.547127 0.478764 0.828757 0.559014
N2    N     N_R   0.448826 0.506011 0.800317 -0.463707
C27   C     C_R   0.337712 0.540363 0.821281 0.592209
C28   C     C_R   0.380994 0.433439 0.718528 -0.060421
C29   C     C_R   0.393946 0.434565 0.668097 -0.235869
C30   C     C_R   0.582324 0.559380 0.675103 0.139748
C31   C     C_R   0.563780 0.566548 0.725563 -0.080998
C32   C     C_R   0.463862 0.502888 0.747895 0.267306
O10   O     O_2   0.245486 0.580727 0.792886 -0.467574
C33   C     C_R   0.293107 0.562056 0.027646 0.019368
C34   C     C_R   0.400298 0.580929 0.054537 0.077043
C35   C     C_R   0.514034 0.587488 0.030228 0.020215
C36   C     C_R   0.182635 0.545789 0.053525 -0.254184
H3    H     H_    0.326829 0.383290 0.646528 0.146071
H4    H     H_    0.305633 0.379020 0.734654 0.185729
H5    H     H_    0.106811 0.580027 0.961965 0.174459
H6    H     H_    0.098427 0.529543 0.035129 0.174303
O11   O     O_2   0.580005 0.678404 0.210736 -0.482201
C37   C     C_R   0.609940 0.650621 0.106768 0.106222
H7    H     H_    0.567396 0.412454 0.241603 0.181259
C38   C     C_R   0.635829 0.521975 0.956921 -0.193241
C39   C     C_R   0.643208 0.492909 0.907436 -0.097583
O12   O     O_2   0.652836 0.431517 0.808441 -0.503884
C40   C     C_R   0.615590 0.629253 0.056499 -0.166186
H8    H     H_    0.719359 0.513512 0.976727 0.159565
H9    H     H_    0.731682 0.468556 0.891262 0.217913
H10   H     H_    0.629625 0.619170 0.747657 0.180659
H11   H     H_    0.700342 0.649811 0.037844 0.149786
C41   C     C_3   0.071024 0.625325 0.535377 -0.075102
C42   C     C_3   0.077363 0.361843 0.524771 -0.035119
H12   H     H_    0.112017 0.721008 0.520552 0.233382
H13   H     H_    0.103673 0.281701 0.496846 0.255008
C43   C     C_3   0.930800 0.630750 0.527099 0.092230
C44   C     C_3   0.937052 0.370155 0.528573 0.107376
H14   H     H_    0.883562 0.627592 0.563151 0.129997
H15   H     H_    0.910370 0.397645 0.566777 0.134533
H16   H     H_    0.108650 0.630854 0.442020 0.243393
H17   H     H_    0.149629 0.462145 0.426452 0.214566
C45   C     C_3   0.088907 0.522265 0.452053 -0.513047
C46   C     C_3   0.127381 0.501648 0.505571 -0.058497
C47   C     C_3   0.884219 0.496172 0.497218 -0.330380
C48   C     C_3   0.951250 0.491444 0.444118 0.490201
C49   C     C_3   0.606567 0.081593 0.527722 0.188913
C50   C     C_3   0.602382 0.916167 0.530117 0.168573
H18   H     H_    0.689746 0.102726 0.507208 0.196133
H19   H     H_    0.686402 0.875089 0.513754 0.188801
H20   H     H_    0.390485 0.119135 0.566810 0.219862
H21   H     H_    0.361992 0.876411 0.558812 0.216485
C51   C     C_3   0.393155 0.087001 0.528354 -0.305885
C52   C     C_3   0.386811 0.922732 0.523854 -0.245283
C53   C     C_3   0.491887 0.082356 0.449349 0.398519
C54   C     C_3   0.506407 0.913699 0.448953 0.380081
N3    N     N_3   0.500250 0.143650 0.501060 -0.304239
N4    N     N_3   0.500250 0.856350 0.501060 -0.300379
H22   H     H_    0.307169 0.136399 0.517803 0.218677
H23   H     H_    0.303837 0.898741 0.504325 0.231777
C55   C     C_3   0.725455 0.694232 0.131188 -0.564959
H24   H     H_    0.755517 0.613483 0.156860 0.287139
H25   H     H_    0.801553 0.708159 0.104776 0.217969
H26   H     H_    0.710490 0.795338 0.150388 0.259738
C56   C     C_3   0.703550 0.602849 0.655253 -0.687366
H27   H     H_    0.775272 0.530862 0.668352 0.226577
H28   H     H_    0.708207 0.600433 0.615067 0.219498
H29   H     H_    0.723635 0.708452 0.668964 0.279232
C57   C     C_3   0.102902 0.631367 0.589657 -0.822370
H30   H     H_    0.087053 0.738731 0.603892 0.273741
H31   H     H_    0.044698 0.563432 0.611706 0.238602
H32   H     H_    0.200009 0.603786 0.595115 0.229633
C58   C     C_3   0.132131 0.307618 0.572756 -0.794983
H33   H     H_    0.133858 0.192498 0.572108 0.263785
H34   H     H_    0.226365 0.340474 0.578021 0.214185
H35   H     H_    0.078769 0.339884 0.605593 0.244358
N5    N     N_R   0.901680 0.768326 0.507656 0.149449
O13   O     O_R   0.941962 0.802613 0.465016 -0.228900
O14   O     O_R   0.892373 0.868757 0.539487 -0.276520
N6    N     N_R   0.892455 0.228656 0.521151 0.161259
O15   O     O_R   0.886742 0.172459 0.478273 -0.208146
O16   O     O_R   0.906936 0.143783 0.556944 -0.266359
N7    N     N_R   0.902230 0.595512 0.410903 0.193666
O17   O     O_R   0.965297 0.628035 0.372388 -0.229482
O18   O     O_R   0.786926 0.625128 0.411607 -0.249642
N8    N     N_R   0.941384 0.356419 0.418675 0.170845
O19   O     O_R   0.034661 0.272680 0.411632 -0.250185
O20   O     O_R   0.846352 0.333573 0.392949 -0.163280
N9    N     N_R   0.621905 0.148065 0.576505 0.211859
O21   O     O_R   0.702234 0.242960 0.582793 -0.317682
O22   O     O_R   0.553592 0.120316 0.613999 -0.295525
N10   N     N_R   0.609865 0.866511 0.580621 0.178321
O23   O     O_R   0.715237 0.869516 0.601047 -0.307069
O24   O     O_R   0.515535 0.859480 0.609524 -0.325936
N11   N     N_R   0.372570 0.127426 0.427548 0.163220
O25   O     O_R   0.268994 0.076349 0.441180 -0.307810
O26   O     O_R   0.370495 0.199965 0.388077 -0.262063
N12   N     N_R   0.407703 0.860606 0.417137 0.169579
O27   O     O_R   0.315875 0.791274 0.433044 -0.356373
O28   O     O_R   0.407106 0.893281 0.371379 -0.230697
N13   N     N_R   0.587945 0.134025 0.416598 0.154138
O29   O     O_R   0.588082 0.100149 0.370624 -0.185074
O30   O     O_R   0.678984 0.202046 0.432617 -0.249390
N14   N     N_R   0.624217 0.868783 0.424602 0.144805
O31   O     O_R   0.623841 0.803372 0.382831 -0.177316
O32   O     O_R   0.727348 0.921227 0.436979 -0.256505
N15   N     N_R   0.059936 0.537280 0.127829 0.157203
O33   O     O_R   0.980209 0.451295 0.111384 -0.345006
O34   O     O_R   0.025042 0.632730 0.159272 -0.293725
N16   N     N_R   0.094790 0.553592 0.868938 0.164104
O35   O     O_R   0.007567 0.642587 0.879480 -0.335714
O36   O     O_R   0.071554 0.446161 0.841712 -0.292503
N17   N     N_R   0.662338 0.400624 0.326753 0.154234
O37   O     O_R   0.697867 0.277760 0.311662 -0.202486
O38   O     O_R   0.742479 0.497675 0.327417 -0.203116

loop_
_geom_bond_atom_site_label_1
_geom_bond_atom_site_label_2
_geom_bond_distance
_ccdc_geom_bond_type
C43   N5    1.471007 S    
N2    C27   1.375425 A    
N11   O26   1.302602 A    
C21   C22   1.401386 A    
C12   C15   1.418246 A    
C4    C17   1.471921 S    
C1    C46   1.486920 S    
N5    O14   1.297362 A    
N16   O35   1.301302 A    
C49   N3    1.511854 S    
Cu1   Cu2   2.747713 S    
H17   C45   1.111323 S    
Cu1   O7    1.935625 S    
N1    C11   1.444858 S    
C22   C23   1.417701 A    
H16   C45   1.112178 S    
C31   H10   1.083275 S    
C24   C25   1.408240 A    
O7    C4    1.321282 A    
H20   C51   1.098423 S    
C5    C13   1.415587 A    
N6    O15   1.294446 A    
C50   N4    1.509953 S    
C55   H26   1.110003 S    
C26   O12   1.350018 S    
C58   H33   1.110227 S    
C5    N1    1.366585 A    
C23   C27   1.417696 A    
C42   H13   1.112266 S    
C37   C55   1.512817 S    
N7    O17   1.303030 A    
C57   H30   1.111016 S    
O5    C3    1.334039 A    
C28   H4    1.082558 S    
C29   H3    1.078818 S    
C2    C16   1.482926 S    
C51   N3    1.503105 S    
C58   H34   1.101875 S    
N6    O16   1.301649 A    
C55   H25   1.110949 S    
C8    N17   1.422027 S    
C42   C44   1.546616 S    
Cu2   N3    2.064505 S    
Cu2   O8    1.928763 S    
C41   C46   1.550362 S    
C3    C47   1.569605 S    
O1    Cu1   2.022034 S    
C9    C10   1.400105 A    
C44   H15   1.113716 S    
O3    Cu1   1.929055 S    
C25   C39   1.398588 A    
C49   N9    1.493055 S    
N5    O13   1.297802 A    
N16   O36   1.301445 A    
C42   C58   1.556472 S    
C34   C35   1.411970 A    
C51   H22   1.097520 S    
C10   C11   1.399977 A    
C12   C34   1.419654 A    
Cu1   N4    2.063744 S    
C40   H11   1.080108 S    
C17   C29   1.402879 A    
C21   H5    1.077571 S    
C18   C21   1.411814 A    
C35   C40   1.404558 A    
C12   C13   1.416368 A    
N13   O30   1.288978 A    
C50   N10   1.481570 S    
C25   C26   1.399370 A    
C45   C46   1.555681 S    
C47   C48   1.625564 S    
C8    C16   1.412040 A    
C7    H7    1.084107 S    
C13   C14   1.416194 A    
C30   C31   1.401314 A    
C9    H1    1.080112 S    
C48   N7    1.470605 S    
O6    C3    1.330226 A    
C56   H29   1.108428 S    
C48   N8    1.475897 S    
C38   C39   1.387524 A    
O1    C1    1.315072 A    
C18   C20   1.415189 A    
C52   H23   1.094981 S    
C7    C11   1.399365 A    
C28   C29   1.393829 A    
N10   O24   1.300328 A    
C23   C24   1.410807 A    
C14   C36   1.399868 A    
C54   N4    1.547126 S    
C53   N13   1.476554 S    
C6    O11   1.348241 S    
C53   N3    1.538147 S    
C54   N12   1.500680 S    
C41   C43   1.564395 S    
C33   C36   1.410968 A    
C55   H24   1.110233 S    
C56   H28   1.106814 S    
N1    C6    1.368949 A    
N2    C32   1.449937 S    
C27   O10   1.348046 S    
N17   O37   1.300369 A    
N8    O19   1.303965 A    
C54   N14   1.502230 S    
C43   H14   1.113537 S    
C26   N2    1.371104 A    
C50   H19   1.086516 S    
C9    C16   1.409313 A    
O8    C4    1.311954 A    
C49   C50   1.599833 S    
C19   C38   1.411642 A    
C49   H18   1.091431 S    
H21   C52   1.100127 S    
N12   O27   1.296322 A    
N15   O34   1.301493 A    
C42   C46   1.562968 S    
O3    C2    1.316956 A    
N10   O23   1.298898 A    
N9    O22   1.300709 A    
C37   C40   1.396465 A    
Cu1   O5    2.014301 S    
C31   C32   1.406693 A    
C10   H2    1.082512 S    
C20   C24   1.419244 A    
O2    Cu2   2.013864 S    
C6    C15   1.411266 A    
C41   C57   1.542149 S    
N17   O38   1.298839 A    
N13   O29   1.302466 A    
C30   C56   1.502619 S    
O4    Cu2   1.935928 S    
N14   O31   1.303220 A    
C57   H31   1.106175 S    
C19   C35   1.414428 A    
C44   N6    1.471923 S    
C58   H35   1.106492 S    
C38   H8    1.079992 S    
C7    C8    1.394517 A    
O2    C1    1.310700 A    
C43   C47   1.622357 S    
N14   O32   1.300582 A    
C45   C48   1.568290 S    
C53   C54   1.631674 S    
O4    C2    1.322214 A    
C36   H6    1.077271 S    
C15   C37   1.423324 A    
C56   H27   1.110446 S    
C44   C47   1.608362 S    
C19   C20   1.415356 A    
N11   O25   1.302199 A    
C52   N4    1.513691 S    
N7    O18   1.295364 A    
C18   C33   1.427517 A    
N8    O20   1.294436 A    
C53   N11   1.513165 S    
C39   H9    1.083595 S    
C22   N16   1.435733 S    
C51   C52   1.590547 S    
Cu2   O6    2.022471 S    
C33   C34   1.417555 A    
C17   C30   1.412438 A    
N12   O28   1.304040 A    
C41   H12   1.115289 S    
N15   O33   1.301421 A    
C14   N15   1.436601 S    
C28   C32   1.402803 A    
C57   H32   1.110043 S    
C5    O9    1.347951 S    
N9    O21   1.296731 A    
