data_mof_unit_2813.cif
_audit_creation_date              2013-03-05T15:48:06-0500
_audit_creation_method            fapswitch 2.2
_symmetry_space_group_name_H-M    P1
_symmetry_Int_Tables_number       1
_space_group_crystal_system       triclinic
_cell_length_a                    15.075032
_cell_length_b                    13.018008
_cell_length_c                    11.663983
_cell_angle_alpha                 99.896525
_cell_angle_beta                  93.894387
_cell_angle_gamma                 90.278427
_cell_volume                      2249.43402247

loop_
_atom_site_label
_atom_site_type_symbol
_atom_site_description
_atom_site_fract_x
_atom_site_fract_y
_atom_site_fract_z
_atom_type_partial_charge
O1    O     O_R   0.504720 0.354460 0.582000 -0.589495
O2    O     O_R   0.495280 0.645540 0.418000 -0.589078
O3    O     O_R   0.493480 0.341410 0.386200 -0.587857
O4    O     O_R   0.506520 0.658590 0.613800 -0.586960
C1    C     C_R   0.498919 0.299080 0.478568 0.843217
C2    C     C_R   0.501115 0.700920 0.521432 0.843535
O5    O     O_R   0.375880 0.506510 0.597910 -0.582713
O6    O     O_R   0.624120 0.493490 0.402090 -0.585066
O7    O     O_R   0.364640 0.493450 0.402110 -0.585463
O8    O     O_R   0.635360 0.506550 0.597890 -0.587425
C3    C     C_R   0.328639 0.500092 0.500243 0.812339
C4    C     C_R   0.671377 0.499841 0.499747 0.817587
Cu1   Cu    Cu3+1 0.506660 0.507730 0.615930 0.983971
Cu2   Cu    Cu3+1 0.493340 0.492270 0.384070 0.983117
C5    C     C_R   0.809281 0.528461 0.406263 -0.129027
C6    C     C_R   0.190801 0.470316 0.593226 -0.131053
C7    C     C_R   0.768041 0.499402 0.499494 -0.105591
C8    C     C_R   0.232003 0.500248 0.500426 -0.103379
C9    C     C_R   0.818827 0.470282 0.592869 -0.130192
C10   C     C_R   0.181244 0.529827 0.407307 -0.133217
C11   C     C_R   0.911587 0.467328 0.593187 -0.023905
C12   C     C_R   0.088371 0.529275 0.405053 -0.026677
C13   C     C_R   0.953492 0.499417 0.499764 -0.009307
C14   C     C_R   0.046576 0.499648 0.499931 -0.007317
C15   C     C_R   0.902039 0.531407 0.406229 -0.022290
C16   C     C_R   0.098118 0.470196 0.594938 -0.023657
C17   C     C_R   0.962989 0.435161 0.686122 0.235337
C18   C     C_R   0.036917 0.560302 0.311470 0.233694
C19   C     C_R   0.056255 0.438604 0.688125 0.241192
C20   C     C_R   0.943909 0.563662 0.313453 0.244974
H1    H     H_    0.768240 0.549588 0.334417 0.190551
H2    H     H_    0.231805 0.445311 0.662794 0.188145
H3    H     H_    0.785137 0.449393 0.664790 0.199795
H4    H     H_    0.215082 0.554972 0.337772 0.197337
C21   C     C_R   0.501605 0.814266 0.534020 -0.137705
C22   C     C_R   0.498521 0.185735 0.465983 -0.137750
C23   C     C_R   0.497167 0.015517 0.342657 0.354989
C24   C     C_R   0.503070 0.984485 0.657351 0.355664
C25   C     C_R   0.494854 0.123803 0.355154 -0.211894
C26   C     C_R   0.505322 0.876198 0.644850 -0.211748
C27   C     C_R   0.503073 0.139593 0.565642 -0.173364
C28   C     C_R   0.497110 0.860410 0.434363 -0.173916
C29   C     C_R   0.501157 0.031426 0.556389 0.004331
C30   C     C_R   0.499066 0.968578 0.443619 0.004397
H5    H     H_    0.491244 0.811146 0.349502 0.209409
H6    H     H_    0.508925 0.188860 0.650500 0.209739
H7    H     H_    0.507195 0.840380 0.722230 0.201943
H8    H     H_    0.492968 0.159622 0.277774 0.201597
N1    N     N_R   0.516670 0.519360 0.790130 -0.199111
N2    N     N_R   0.483330 0.480640 0.209870 -0.200753
C31   C     C_R   0.416120 0.402239 0.021301 -0.215943
C32   C     C_R   0.583809 0.597840 0.978709 -0.227634
C33   C     C_R   0.424112 0.411549 0.143614 0.122352
C34   C     C_R   0.575844 0.588500 0.856393 0.115909
C35   C     C_R   0.536131 0.542225 0.157338 0.071067
C36   C     C_R   0.463841 0.457805 0.842665 0.081224
C37   C     C_R   0.530409 0.535540 0.034421 0.044580
C38   C     C_R   0.469539 0.464516 0.965586 0.045435
H9    H     H_    0.417179 0.403404 0.788893 0.137983
H10   H     H_    0.582793 0.596628 0.211110 0.142954
H11   H     H_    0.617248 0.636880 0.814383 0.145137
H12   H     H_    0.382692 0.363187 0.185626 0.146994
H13   H     H_    0.368559 0.346767 0.970835 0.190998
H14   H     H_    0.631340 0.653347 0.029182 0.193039
N3    N     N_R   0.921019 0.399503 0.779371 0.146515
O9    O     O_R   0.869878 0.316657 0.757674 -0.310801
O10   O     O_R   0.941554 0.442592 0.887052 -0.204180
N4    N     N_R   0.078707 0.590548 0.215057 0.151370
O11   O     O_R   0.122295 0.522469 0.146300 -0.271120
O12   O     O_R   0.066313 0.683096 0.189526 -0.249647
N5    N     N_R   0.108011 0.407422 0.783932 0.146888
O13   O     O_R   0.098254 0.314067 0.807509 -0.258718
O14   O     O_R   0.159111 0.475086 0.853692 -0.293079
N6    N     N_R   0.892313 0.599391 0.220392 0.141410
O15   O     O_R   0.897723 0.553145 0.113088 -0.229955
O16   O     O_R   0.845393 0.683281 0.241854 -0.323525
N7    N     N_R   0.499630 0.955287 0.227453 0.121306
O17   O     O_R   0.449895 0.980958 0.141543 -0.285760
O18   O     O_R   0.563065 0.889114 0.204031 -0.338493
N8    N     N_R   0.500673 0.044716 0.772562 0.122194
O19   O     O_R   0.550469 0.019049 0.858421 -0.283500
O20   O     O_R   0.437239 0.110874 0.796059 -0.345948

loop_
_geom_bond_atom_site_label_1
_geom_bond_atom_site_label_2
_geom_bond_distance
_ccdc_geom_bond_type
C26   H7    1.083580 S    
C3    C8    1.456948 S    
C17   C19   1.404966 A    
O7    Cu2   1.965541 S    
N7    O17   1.301320 A    
O5    C3    1.291671 A    
N6    O16   1.301225 A    
O1    C1    1.291876 A    
C18   N4    1.436164 S    
C14   C16   1.417993 A    
C20   N6    1.435944 S    
C5    C15   1.398700 A    
N1    C34   1.364791 A    
C1    C22   1.457436 S    
C2    C21   1.457432 S    
O4    Cu1   1.968328 S    
C21   C28   1.395106 A    
N4    O11   1.301272 A    
N3    O10   1.300512 A    
C4    C7    1.457446 S    
C27   H6    1.080825 S    
C10   H4    1.082124 S    
C11   C17   1.412771 A    
C12   C18   1.412760 A    
C35   H10   1.082725 S    
C27   C29   1.393641 A    
C22   C27   1.395108 A    
O2    C2    1.291878 A    
C28   C30   1.393645 A    
C32   C34   1.407698 A    
N7    O18   1.301457 A    
C6    C16   1.398688 A    
N2    C33   1.364806 A    
N6    O15   1.300347 A    
C31   H13   1.083310 S    
N8    O20   1.301453 A    
C32   H14   1.083320 S    
N5    O14   1.301257 A    
C23   N7    1.437593 S    
C31   C33   1.407696 A    
C28   H5    1.080828 S    
C29   C30   1.422929 A    
C17   N3    1.436294 S    
C33   H12   1.081737 S    
O6    C4    1.291773 A    
C31   C38   1.404976 A    
O7    C3    1.289564 A    
O3    Cu2   1.968330 S    
O8    C4    1.289722 A    
Cu1   N1    2.006630 S    
O4    C2    1.289822 A    
C10   C12   1.398484 A    
C35   C37   1.418016 A    
C9    H3    1.081924 S    
C12   C14   1.417557 A    
O1    Cu1   1.965962 S    
C15   C20   1.411435 A    
C5    C7    1.393942 A    
O6    Cu2   1.968136 S    
C9    C11   1.398848 A    
C22   C25   1.398484 A    
N8    O19   1.301318 A    
O3    C1    1.289826 A    
O8    Cu1   1.965541 S    
C5    H1    1.082191 S    
C34   H11   1.081735 S    
C6    H2    1.082185 S    
N1    C36   1.371390 A    
N2    C35   1.371379 A    
C36   H9    1.082714 S    
C23   C30   1.415604 A    
C11   C13   1.417177 A    
C21   C26   1.398482 A    
C24   C29   1.415604 A    
C23   C25   1.392891 A    
C24   C26   1.392881 A    
C37   C38   1.406421 A    
Cu2   N2    2.006628 S    
C24   N8    1.437581 S    
C18   C20   1.404628 A    
C7    C9    1.395532 A    
C36   C38   1.418020 A    
C8    C10   1.395426 A    
C13   C15   1.417628 A    
O2    Cu2   1.965963 S    
C32   C37   1.404972 A    
C13   C14   1.403113 A    
O5    Cu1   1.968133 S    
N5    O13   1.301094 A    
C16   C19   1.411788 A    
C6    C8    1.393994 A    
N3    O9    1.301217 A    
N4    O12   1.301183 A    
Cu1   Cu2   2.670846 S    
C25   H8    1.083579 S    
C19   N5    1.436279 S    
