data_mof_unit_143.cif
_audit_creation_date              2013-03-05T16:26:02-0500
_audit_creation_method            fapswitch 2.2
_symmetry_space_group_name_H-M    P1
_symmetry_Int_Tables_number       1
_space_group_crystal_system       triclinic
_cell_length_a                    19.378461
_cell_length_b                    18.195178
_cell_length_c                    10.895946
_cell_angle_alpha                 89.999351
_cell_angle_beta                  90.830072
_cell_angle_gamma                 90.000846
_cell_volume                      3841.44797527

loop_
_atom_site_label
_atom_site_type_symbol
_atom_site_description
_atom_site_fract_x
_atom_site_fract_y
_atom_site_fract_z
_atom_type_partial_charge
O1    O     O_R   0.400190 0.561980 0.499980 -0.543208
O2    O     O_R   0.599810 0.561980 0.500020 -0.543241
O3    O     O_R   0.400190 0.438070 0.500040 -0.568892
O4    O     O_R   0.599810 0.438070 0.499960 -0.568882
C1    C     C_R   0.367849 0.499989 0.500355 0.843297
C2    C     C_R   0.632152 0.499990 0.499641 0.843314
O5    O     O_R   0.500000 0.561940 0.321950 -0.580646
O6    O     O_R   0.500000 0.561940 0.678050 -0.580620
O7    O     O_R   0.500010 0.438030 0.322010 -0.545327
O8    O     O_R   0.499990 0.438030 0.677990 -0.545381
C3    C     C_R   0.501152 0.499958 0.265134 0.860467
C4    C     C_R   0.498848 0.499958 0.734866 0.860425
Cu1   Cu    Cu3+1 0.500000 0.573360 0.500000 1.021712
Cu2   Cu    Cu3+1 0.500000 0.426640 0.500000 1.005966
C5    C     C_2   0.501739 0.439099 0.932999 -0.157424
C6    C     C_2   0.498265 0.439099 0.067003 -0.157322
C7    C     C_2   0.494323 0.500708 0.866824 -0.304532
C8    C     C_2   0.505676 0.500710 0.133175 -0.304521
H1    H     H_    0.509486 0.386443 0.888226 0.185195
H2    H     H_    0.490524 0.386442 0.111779 0.185201
H3    H     H_    0.483065 0.553363 0.908189 0.129447
H4    H     H_    0.516929 0.553366 0.091808 0.129430
C9    C     C_R   0.742795 0.456369 0.413396 0.417596
C10   C     C_R   0.257186 0.456406 0.586593 0.417449
C11   C     C_R   0.815050 0.458846 0.411912 -0.236794
C12   C     C_R   0.184933 0.458887 0.588034 -0.236611
H5    H     H_    0.842519 0.428316 0.342625 0.145905
H6    H     H_    0.157454 0.428387 0.657347 0.146007
C13   C     C_R   0.851561 0.502296 0.497242 0.102053
C14   C     C_R   0.148438 0.502295 0.502624 0.101969
C15   C     C_R   0.815430 0.542797 0.585036 -0.088911
C16   C     C_R   0.184587 0.542754 0.414796 -0.088912
H7    H     H_    0.842811 0.575082 0.653576 0.166616
H8    H     H_    0.157219 0.575007 0.346196 0.166614
C17   C     C_R   0.743685 0.542564 0.584257 -0.248268
C18   C     C_R   0.256331 0.542521 0.415617 -0.248194
H9    H     H_    0.716489 0.575058 0.651448 0.176204
H10   H     H_    0.283542 0.574983 0.348399 0.176158
C19   C     C_R   0.707280 0.499785 0.498573 -0.117152
C20   C     C_R   0.292720 0.499781 0.501381 -0.117190
C21   C     C_R   0.963616 0.572758 0.496287 0.253701
C22   C     C_R   0.036384 0.572759 0.503433 0.253722
C23   C     C_R   0.072455 0.505109 0.504774 -0.040606
C24   C     C_R   0.927544 0.505107 0.495051 -0.040596
C25   C     C_R   0.035796 0.438824 0.502226 -0.226228
C26   C     C_R   0.964201 0.438823 0.497686 -0.226220
H11   H     H_    0.062837 0.386698 0.502308 0.153915
H12   H     H_    0.937159 0.386698 0.497683 0.153920
C27   C     C_R   0.457840 0.720962 0.419555 0.597781
C28   C     C_R   0.542164 0.720962 0.580439 0.597770
C29   C     C_R   0.456097 0.798763 0.421257 -0.368675
C30   C     C_R   0.543915 0.798762 0.578726 -0.368672
H13   H     H_    0.421312 0.827509 0.359445 0.152425
H14   H     H_    0.578703 0.827508 0.640533 0.152426
C31   C     C_R   0.500008 0.838863 0.499988 0.003491
N1    N     N_R   0.500000 0.683620 0.500000 -0.242599
C32   C     C_R   0.561253 0.961947 0.521897 -0.176730
C33   C     C_R   0.438775 0.961949 0.478063 -0.176730
H15   H     H_    0.609812 0.933727 0.536765 0.141336
H16   H     H_    0.390213 0.933732 0.463199 0.141336
C34   C     C_R   0.561183 0.039217 0.522359 -0.182575
C35   C     C_R   0.438851 0.039219 0.477592 -0.182585
H17   H     H_    0.609473 0.067887 0.538143 0.134101
H18   H     H_    0.390562 0.067890 0.461809 0.134108
C36   C     C_R   0.500018 0.079073 0.499974 0.167277
C37   C     C_R   0.500012 0.921815 0.499982 0.164830
C38   C     C_R   0.461447 0.201455 0.412775 -0.386638
C39   C     C_R   0.538583 0.201455 0.587182 -0.386178
H19   H     H_    0.433320 0.172180 0.341591 0.153759
H20   H     H_    0.566723 0.172186 0.658359 0.153681
C40   C     C_R   0.459884 0.279256 0.416103 0.581586
C41   C     C_R   0.540124 0.279255 0.583881 0.581753
N2    N     N_R   0.500000 0.316380 0.500000 -0.245496
C42   C     C_R   0.500019 0.161664 0.499975 0.011867
O9    O     O_3   0.424360 0.319527 0.327504 -0.590325
C43   C     C_3   0.355079 0.296364 0.311133 0.036220
H21   H     H_    0.321424 0.344762 0.327267 0.163077
H22   H     H_    0.338006 0.253007 0.376407 0.107682
C44   C     C_3   0.343973 0.270801 0.178557 -0.354035
H23   H     H_    0.358054 0.315986 0.114918 0.226567
H24   H     H_    0.377895 0.223037 0.159655 0.211852
C45   C     C_3   0.269058 0.248865 0.154060 -0.903282
H25   H     H_    0.254283 0.202616 0.214832 0.255388
H26   H     H_    0.262765 0.231060 0.057049 0.259534
H27   H     H_    0.234253 0.296283 0.170324 0.256712
O10   O     O_3   0.575639 0.319512 0.672502 -0.590394
C46   C     C_3   0.644963 0.296449 0.688655 0.036437
H28   H     H_    0.678545 0.344892 0.672405 0.163142
H29   H     H_    0.662022 0.253105 0.623347 0.107656
C47   C     C_3   0.656231 0.270900 0.821197 -0.354100
H30   H     H_    0.642147 0.316060 0.884882 0.226635
H31   H     H_    0.622394 0.223079 0.840193 0.211867
C48   C     C_3   0.731198 0.249083 0.845466 -0.903284
H32   H     H_    0.745979 0.202863 0.784643 0.255360
H33   H     H_    0.737608 0.231282 0.942457 0.259543
H34   H     H_    0.765920 0.296559 0.829102 0.256702
O11   O     O_3   0.706277 0.418593 0.323344 -0.607780
C49   C     C_3   0.711536 0.342278 0.345193 0.058691
H35   H     H_    0.705542 0.328854 0.444368 0.121197
H36   H     H_    0.762445 0.321808 0.313862 0.138053
C50   C     C_3   0.654141 0.303151 0.272925 -0.299046
H37   H     H_    0.603277 0.325253 0.300928 0.242600
H38   H     H_    0.660314 0.313839 0.173213 0.218954
C51   C     C_3   0.655298 0.220392 0.295517 -0.938986
H39   H     H_    0.704920 0.196607 0.264763 0.259069
H40   H     H_    0.612390 0.194026 0.243165 0.264113
H41   H     H_    0.648623 0.208398 0.394558 0.251875
O12   O     O_3   0.293673 0.418668 0.676725 -0.607788
C52   C     C_3   0.288601 0.342359 0.654687 0.058764
H42   H     H_    0.294990 0.329027 0.555560 0.121576
H43   H     H_    0.237596 0.321775 0.685369 0.137798
C53   C     C_3   0.345791 0.303275 0.727551 -0.299050
H44   H     H_    0.396739 0.325484 0.700201 0.242586
H45   H     H_    0.339222 0.313872 0.827210 0.218928
C54   C     C_3   0.344832 0.220532 0.704764 -0.938781
H46   H     H_    0.295096 0.196647 0.734787 0.258986
H47   H     H_    0.387556 0.194187 0.757641 0.264035
H48   H     H_    0.351947 0.208631 0.605787 0.251958
N3    N     N_R   0.926690 0.641179 0.490165 0.140413
O13   O     O_R   0.938407 0.692251 0.571425 -0.298447
O14   O     O_R   0.880489 0.652231 0.404288 -0.324095
N4    N     N_R   0.073311 0.641184 0.509458 0.140410
O15   O     O_R   0.061600 0.692211 0.428116 -0.298461
O16   O     O_R   0.119502 0.652284 0.595333 -0.324076
O17   O     O_3   0.412915 0.681452 0.344547 -0.579412
C55   C     C_3   0.420130 0.700470 0.219109 0.030190
H49   H     H_    0.433326 0.649731 0.168036 0.167280
H50   H     H_    0.462231 0.740676 0.200271 0.118041
C56   C     C_3   0.351370 0.729316 0.168102 -0.342392
H51   H     H_    0.310611 0.687235 0.181888 0.233339
H52   H     H_    0.336376 0.779893 0.218148 0.220458
C57   C     C_3   0.356022 0.746675 0.031409 -0.887840
H53   H     H_    0.395602 0.789694 0.015641 0.249251
H54   H     H_    0.305369 0.767180 0.996977 0.273853
H55   H     H_    0.369722 0.696443 0.979135 0.254393
O18   O     O_3   0.587084 0.681451 0.655454 -0.579428
C58   C     C_3   0.579869 0.700473 0.780889 0.030201
H56   H     H_    0.566665 0.649737 0.831966 0.167287
H57   H     H_    0.537772 0.740684 0.799720 0.118041
C59   C     C_3   0.648631 0.729313 0.831899 -0.342424
H58   H     H_    0.689386 0.687228 0.818119 0.233327
H59   H     H_    0.663631 0.779888 0.781848 0.220452
C60   C     C_3   0.643977 0.746675 0.968590 -0.887816
H60   H     H_    0.604402 0.789698 0.984351 0.249249
H61   H     H_    0.694632 0.767176 0.003023 0.273853
H62   H     H_    0.630271 0.696446 0.020867 0.254392

loop_
_geom_bond_atom_site_label_1
_geom_bond_atom_site_label_2
_geom_bond_distance
_ccdc_geom_bond_type
C33   C35   1.405953 A    
C60   H62   1.111146 S    
C40   O9    1.386887 S    
C46   H28   1.111344 S    
C3    C8    1.441816 S    
C48   H32   1.110877 S    
C21   C22   1.411161 A    
C17   C19   1.398615 A    
C59   C60   1.526459 S    
C32   C37   1.410804 A    
O9    C43   1.415960 S    
C53   H45   1.111989 S    
O11   C49   1.412250 S    
C25   C26   1.387570 A    
C5    H1    1.086561 S    
C58   H57   1.117028 S    
C55   H49   1.109738 S    
O1    C1    1.290385 A    
C16   C18   1.390208 A    
C17   H9    1.083750 S    
C10   C12   1.401193 A    
C52   H43   1.112903 S    
C32   H15   1.082108 S    
C39   C42   1.401777 A    
C5    C6    1.462619 S    
O12   C52   1.412238 S    
C5    C7    1.339461 D    
C34   H17   1.082925 S    
O2    Cu1   1.945214 S    
C51   H39   1.110681 S    
C35   H18   1.082925 S    
C33   C37   1.410799 A    
C30   H14   1.080931 S    
C57   H53   1.110974 S    
C27   C29   1.416118 A    
C4    C7    1.441813 S    
C28   C30   1.416119 A    
C15   H7    1.082992 S    
C10   O12   1.384118 S    
C29   C31   1.403992 A    
C30   C31   1.403989 A    
C6    H2    1.086562 S    
C56   C57   1.526460 S    
C25   H11   1.083570 S    
C48   H33   1.110568 S    
Cu1   Cu2   2.669595 S    
O2    C2    1.290385 A    
C51   H40   1.110472 S    
C53   H44   1.111472 S    
C50   H37   1.111338 S    
C24   C26   1.399797 A    
N3    O14   1.301266 A    
C11   C13   1.403913 A    
C58   C59   1.529183 S    
C26   H12   1.083569 S    
Cu2   N2    2.006200 S    
C18   C20   1.398619 A    
C59   H58   1.111804 S    
O4    C2    1.289257 A    
O8    Cu2   1.950416 S    
C52   C53   1.529307 S    
C40   N2    1.369543 A    
O10   C46   1.415961 S    
C41   N2    1.369530 A    
C55   C56   1.529183 S    
C54   H47   1.110563 S    
C45   H25   1.110876 S    
C21   N3    1.437007 S    
C36   C42   1.502765 S    
C39   C41   1.416370 A    
C29   H13   1.080931 S    
C16   H8    1.082992 S    
O5    C3    1.286861 A    
O7    Cu2   1.950413 S    
O7    C3    1.286312 A    
C47   H31   1.110762 S    
C54   H46   1.110820 S    
O6    C4    1.286858 A    
C54   H48   1.110523 S    
C38   C42   1.401786 A    
C43   H21   1.111350 S    
C23   C25   1.399800 A    
C51   H41   1.110383 S    
O3    Cu2   1.945324 S    
O8    C4    1.286315 A    
C6    C8    1.339466 D    
C9    O11   1.384153 S    
C12   C14   1.403913 A    
C48   H34   1.110935 S    
C45   H26   1.110574 S    
C46   H29   1.115543 S    
C13   C24   1.473859 S    
O17   C55   1.418749 S    
C21   C24   1.415501 A    
C15   C17   1.390200 A    
C14   C23   1.473859 S    
C1    C20   1.456080 S    
O1    Cu1   1.945212 S    
C22   C23   1.415502 A    
N4    O16   1.301267 A    
C49   C50   1.529241 S    
C31   C37   1.509323 S    
C22   N4    1.437004 S    
C47   C48   1.525413 S    
C44   H24   1.110757 S    
C56   H51   1.111806 S    
C50   H38   1.111880 S    
C60   H61   1.110315 S    
C55   H50   1.117027 S    
C35   C36   1.407804 A    
C8    H4    1.082350 S    
C43   H22   1.115547 S    
O18   C58   1.418750 S    
O3    C1    1.289251 A    
C44   C45   1.525411 S    
C41   O10   1.386845 S    
N3    O13   1.301229 A    
C32   C34   1.405962 A    
C59   H59   1.110525 S    
C50   C51   1.525905 S    
C45   H27   1.110937 S    
C27   O17   1.386380 S    
C58   H56   1.109737 S    
C12   H6    1.083303 S    
Cu1   N1    2.006200 S    
C18   H10   1.083750 S    
C13   C15   1.402787 A    
C27   N1    1.369923 A    
C28   O18   1.386377 S    
C52   H42   1.115633 S    
C14   C16   1.402791 A    
C47   H30   1.112060 S    
C57   H55   1.111146 S    
C9    C19   1.406255 A    
C10   C20   1.406265 A    
C38   C40   1.416415 A    
C9    C11   1.401235 A    
O4    Cu2   1.945314 S    
C49   H36   1.112792 S    
C28   N1    1.369923 A    
C44   H23   1.112060 S    
O6    Cu1   1.951117 S    
C34   C36   1.407804 A    
O5    Cu1   1.951123 S    
C43   C44   1.529813 S    
C57   H54   1.110315 S    
C49   H35   1.115567 S    
C46   C47   1.529785 S    
C39   H20   1.081752 S    
C2    C19   1.456095 S    
C38   H19   1.081739 S    
N4    O15   1.301228 A    
C33   H16   1.082110 S    
C53   C54   1.525928 S    
C60   H60   1.110974 S    
C56   H52   1.110524 S    
C11   H5    1.083299 S    
C7    H3    1.082351 S    
