data_mof_unit_1686.cif
_audit_creation_date              2012-12-11T17:02:23-0500
_audit_creation_method            fapswitch 2.2
_symmetry_space_group_name_H-M    P1
_symmetry_Int_Tables_number       1
_space_group_crystal_system       triclinic
_cell_length_a                    21.634321
_cell_length_b                    7.071025
_cell_length_c                    14.836173
_cell_angle_alpha                 90.178429
_cell_angle_beta                  106.016836
_cell_angle_gamma                 90.094865
_cell_volume                      2181.46857962

loop_
_atom_site_label
_atom_site_type_symbol
_atom_type_description
_atom_site_fract_x
_atom_site_fract_y
_atom_site_fract_z
_atom_type_partial_charge
O1    O     O_R   0.585850 0.505770 0.002130 -0.537278
O2    O     O_R   0.414150 0.005770 0.997870 -0.537141
O3    O     O_R   0.467530 0.173560 0.861970 -0.538430
O4    O     O_R   0.532470 0.673560 0.138030 -0.538314
C1    C     C_R   0.455163 0.343845 0.825326 0.683295
C2    C     C_R   0.544757 0.844759 0.174603 0.683528
O5    O     O_R   0.588690 0.175900 0.993250 -0.544670
O6    O     O_R   0.411310 0.675900 0.006750 -0.544709
O7    O     O_R   0.536170 0.007950 0.130090 -0.537145
O8    O     O_R   0.463830 0.507950 0.869910 -0.537351
C3    C     C_R   0.615069 0.344728 0.997772 0.690393
C4    C     C_R   0.384938 0.844535 0.002283 0.689596
O9    O     O_3   0.482630 0.339970 0.044740 -0.372503
O10   O     O_3   0.517370 0.839970 0.955260 -0.372676
V1    V     V_3+5 0.503220 0.064200 0.991700 1.408224
V2    V     V_3+5 0.496780 0.564200 0.008300 1.408133
C5    C     C_R   0.292460 0.010114 0.041475 0.103932
C6    C     C_R   0.707748 0.509826 0.958746 0.104859
C7    C     C_R   0.317024 0.852605 0.005414 -0.108070
C8    C     C_R   0.682999 0.352885 0.994750 -0.109417
C9    C     C_R   0.274764 0.699473 0.973879 -0.181250
C10   C     C_R   0.725027 0.199953 0.026086 -0.180708
H1    H     H_    0.291402 0.574733 0.945551 0.134041
H2    H     H_    0.708219 0.075636 0.054361 0.134876
C11   C     C_R   0.209372 0.711387 0.972069 -0.184298
C12   C     C_R   0.790403 0.211554 0.027742 -0.185793
H3    H     H_    0.177806 0.594195 0.943462 0.133322
H4    H     H_    0.821812 0.094692 0.056261 0.133918
C13   C     C_R   0.184142 0.877386 0.001139 -0.105542
C14   C     C_R   0.815839 0.377028 0.998709 -0.107048
C15   C     C_R   0.227801 0.022154 0.039477 0.106973
C16   C     C_R   0.772403 0.521584 0.960627 0.109994
C17   C     C_3   0.225128 0.227476 0.016643 -0.422964
C18   C     C_3   0.775464 0.727120 0.983779 -0.421779
C19   C     C_3   0.295686 0.214413 0.019050 -0.401286
C20   C     C_3   0.704916 0.714324 0.981516 -0.402908
H5    H     H_    0.216631 0.315872 0.074152 0.171082
H6    H     H_    0.784053 0.814933 0.926357 0.170633
H7    H     H_    0.193022 0.257126 0.945562 0.170578
H8    H     H_    0.807687 0.757322 0.054864 0.170173
H9    H     H_    0.327900 0.295137 0.078009 0.174560
H10   H     H_    0.672795 0.794621 0.922733 0.174560
H11   H     H_    0.304449 0.236933 0.949434 0.166428
H12   H     H_    0.696274 0.737492 0.051222 0.165626
C21   C     C_R   0.928434 0.883511 0.723319 -0.088546
C22   C     C_R   0.071351 0.386781 0.276937 -0.092007
C23   C     C_R   0.573456 0.854041 0.275840 -0.026333
C24   C     C_R   0.426546 0.348176 0.723900 -0.028777
C25   C     C_R   0.942377 0.878690 0.565906 0.479754
C26   C     C_R   0.058704 0.426096 0.433961 0.473353
C27   C     C_R   0.968512 0.878638 0.664335 -0.263559
C28   C     C_R   0.032555 0.424399 0.335715 -0.257747
C29   C     C_R   0.861935 0.883917 0.686392 -0.224447
C30   C     C_R   0.137003 0.356067 0.314240 -0.224224
C31   C     C_R   0.833152 0.878828 0.588609 0.027875
C32   C     C_R   0.166344 0.368034 0.411849 0.027743
C33   C     C_R   0.874486 0.876161 0.528686 0.035110
C34   C     C_R   0.126028 0.403294 0.471405 0.033478
C35   C     C_R   0.764731 0.876271 0.548739 0.087231
C36   C     C_R   0.234459 0.349941 0.451762 0.087356
C37   C     C_R   0.738473 0.870955 0.449073 0.066564
C38   C     C_R   0.261428 0.368731 0.550954 0.066429
C39   C     C_R   0.781397 0.869598 0.392624 -0.213567
C40   C     C_R   0.219322 0.400508 0.607113 -0.212788
C41   C     C_R   0.847492 0.872128 0.431534 -0.190335
C42   C     C_R   0.153473 0.416656 0.568244 -0.188595
C43   C     C_R   0.721642 0.878280 0.605274 -0.188874
C44   C     C_R   0.276604 0.315089 0.395663 -0.189050
C45   C     C_R   0.655586 0.874842 0.566326 -0.209500
C46   C     C_R   0.342448 0.299947 0.434519 -0.208953
C47   C     C_R   0.629308 0.868677 0.469624 0.139402
C48   C     C_R   0.369428 0.318455 0.530714 0.139185
C49   C     C_R   0.670100 0.866797 0.409257 0.081643
C50   C     C_R   0.329632 0.354044 0.590654 0.081280
C51   C     C_R   0.562137 0.863676 0.432880 -0.163703
C52   C     C_R   0.436233 0.298945 0.567494 -0.163809
C53   C     C_R   0.534402 0.855865 0.336474 -0.176301
C54   C     C_R   0.464480 0.311610 0.663627 -0.174100
C55   C     C_R   0.640430 0.859907 0.311389 -0.210593
C56   C     C_R   0.360015 0.371011 0.688101 -0.211760
H13   H     H_    0.877578 0.870995 0.384019 0.165439
H14   H     H_    0.123985 0.441698 0.615411 0.164540
H15   H     H_    0.667531 0.857738 0.260447 0.088502
H16   H     H_    0.333613 0.396797 0.738721 0.090390
H17   H     H_    0.482520 0.851390 0.309104 0.104247
H18   H     H_    0.515869 0.291181 0.691185 0.105105
H19   H     H_    0.624652 0.876379 0.612736 0.123410
H20   H     H_    0.372636 0.272450 0.388492 0.123707
H21   H     H_    0.019884 0.874060 0.696261 0.103203
H22   H     H_    0.982166 0.453951 0.304122 0.108707
H23   H     H_    0.834440 0.888418 0.736741 0.105194
H24   H     H_    0.163763 0.329919 0.264167 0.107148
H25   H     H_    0.765682 0.866668 0.317226 0.120720
H26   H     H_    0.235530 0.414029 0.682220 0.120450
H27   H     H_    0.736973 0.882134 0.680628 0.121993
H28   H     H_    0.260620 0.297651 0.320783 0.122082
H29   H     H_    0.530991 0.865209 0.478944 0.116915
H30   H     H_    0.466578 0.270528 0.521827 0.117052
O11   O     O_R   0.036080 0.231270 0.130120 -0.538714
O12   O     O_R   0.963920 0.731270 0.869880 -0.537612
O13   O     O_R   0.911300 0.558970 0.006750 -0.541366
O14   O     O_R   0.088700 0.058970 0.993250 -0.541708
C57   C     C_R   0.884884 0.389828 0.001977 0.687817
C58   C     C_R   0.115111 0.890025 0.997978 0.687124
O15   O     O_R   0.032450 0.561140 0.138040 -0.538060
O16   O     O_R   0.967550 0.061140 0.861960 -0.539726
O17   O     O_R   0.085870 0.728910 0.002130 -0.540511
O18   O     O_R   0.914130 0.228910 0.997870 -0.540982
C59   C     C_R   0.044337 0.392893 0.175154 0.719968
C60   C     C_R   0.955763 0.892150 0.824915 0.719621
O19   O     O_3   0.017320 0.394650 0.955270 -0.374537
O20   O     O_3   0.982680 0.894650 0.044730 -0.374319
V3    V     V_3+5 0.996780 0.670490 0.008300 1.412535
V4    V     V_3+5 0.003220 0.170490 0.991700 1.408343
O21   O     O_3   0.980077 0.869379 0.503079 -0.551546
C61   C     C_3   0.042553 0.944632 0.539152 -0.207541
H31   H     H_    0.074374 0.840142 0.585361 0.157106
H32   H     H_    0.042265 0.081761 0.576097 0.133169
H33   H     H_    0.063007 0.972349 0.479617 0.163193
O22   O     O_3   0.021847 0.466023 0.495523 -0.550273
C62   C     C_3   0.958553 0.393950 0.464360 -0.213427
H34   H     H_    0.956715 0.250283 0.432761 0.137675
H35   H     H_    0.927198 0.493799 0.414526 0.155613
H36   H     H_    0.938942 0.381723 0.525757 0.163079

loop_
_geom_bond_atom_site_label_1
_geom_bond_atom_site_label_2
_ccdc_geom_bond_type
C14   C16   A    
C39   C41   A    
O12   C60   A    
C31   C35   A    
O13   V3    S    
C28   H22   S    
O1    C3    A    
C23   C55   A    
C56   H16   S    
C46   H20   S    
O11   V4    S    
O20   V4    S    
O5    C3    A    
C17   H7    S    
O16   V4    S    
C26   O22   S    
C10   H2    S    
O15   V3    S    
C7    C9    A    
C52   C54   A    
C17   C19   S    
C21   C27   A    
O18   V4    S    
O21   C61   S    
O11   C59   A    
C22   C28   A    
C51   H29   S    
C25   C33   A    
C61   H31   S    
C36   C38   A    
C24   C54   A    
C45   C47   A    
O17   V3    S    
C62   H36   S    
C38   C40   A    
C35   C43   A    
C20   H10   S    
C34   C42   A    
C61   H32   S    
C25   C27   A    
C14   C57   S    
C29   H23   S    
C26   C28   A    
C15   C17   S    
C57   O18   A    
C19   H11   S    
C18   C20   S    
C45   H19   S    
C48   C52   A    
C54   H18   S    
O5    V1    S    
O2    C4    A    
O13   C57   A    
C50   C56   A    
C43   H27   S    
C2    O7    A    
O20   V3    S    
C22   C59   S    
C29   C31   A    
C11   C13   A    
C1    C24   S    
C30   C32   A    
C3    C8    S    
C35   C37   A    
C2    C23   S    
C26   C34   A    
C48   C50   A    
C47   C49   A    
C21   C60   S    
C37   C49   A    
C21   C29   A    
C17   H5    S    
C32   C36   A    
C13   C58   S    
C43   C45   A    
C40   C42   A    
O4    V2    S    
C30   H24   S    
O14   V4    S    
C42   H14   S    
C41   H13   S    
O6    C4    A    
C22   C30   A    
C37   C39   A    
C49   C55   A    
O19   V3    S    
O1    V2    S    
C44   H28   S    
O14   C58   A    
O2    V1    S    
C51   C53   A    
C62   H34   S    
O4    C2    A    
C25   O21   S    
C8    C10   A    
C12   C14   A    
C31   C33   A    
C5    C15   A    
C18   H8    S    
C20   H12   S    
C6    C16   A    
C23   C53   A    
O3    V1    S    
O22   C62   S    
O16   C60   A    
C9    C11   A    
C18   H6    S    
O12   V3    S    
C33   C41   A    
O3    C1    A    
C11   H3    S    
C39   H25   S    
C12   H4    S    
C61   H33   S    
C24   C56   A    
C9    H1    S    
O7    V1    S    
C40   H26   S    
C1    O8    A    
C13   C15   A    
O8    V2    S    
C27   H21   S    
C47   C51   A    
C6    C20   S    
O15   C59   A    
C4    C7    S    
C5    C7    A    
C32   C34   A    
O19   V4    S    
C6    C8    A    
C19   H9    S    
C62   H35   S    
C53   H17   S    
C55   H15   S    
C36   C44   A    
O6    V2    S    
C10   C12   A    
O9    V2    S    
C44   C46   A    
O10   V1    S    
C38   C50   A    
C46   C48   A    
C5    C19   S    
C52   H30   S    
C58   O17   A    
C16   C18   S    
