data_mof_unit_3098.cif
_audit_creation_date              2012-12-11T15:18:42-0500
_audit_creation_method            fapswitch 2.2
_symmetry_space_group_name_H-M    P1
_symmetry_Int_Tables_number       1
_space_group_crystal_system       triclinic
_cell_length_a                    6.942336
_cell_length_b                    19.859995
_cell_length_c                    23.831279
_cell_angle_alpha                 93.631873
_cell_angle_beta                  91.247081
_cell_angle_gamma                 88.321736
_cell_volume                      3277.07348566

loop_
_atom_site_label
_atom_site_type_symbol
_atom_type_description
_atom_site_fract_x
_atom_site_fract_y
_atom_site_fract_z
_atom_type_partial_charge
O1    O     O_R   0.620100 0.812200 0.810870 -0.539649
O2    O     O_R   0.379900 0.187800 0.189130 -0.539654
O3    O     O_R   0.296960 0.671650 0.794750 -0.538943
O4    O     O_R   0.703040 0.328350 0.205250 -0.538971
O5    O     O_R   0.120160 0.687800 0.689130 -0.541355
O6    O     O_R   0.879840 0.312200 0.310870 -0.540876
C1    C     C_R   0.469158 0.647156 0.804808 0.698575
C2    C     C_R   0.530846 0.352846 0.195197 0.700382
O7    O     O_R   0.290810 0.810670 0.817290 -0.538483
O8    O     O_R   0.709190 0.189330 0.182710 -0.542312
O9    O     O_R   0.113980 0.827820 0.711840 -0.536479
O10   O     O_R   0.886020 0.172180 0.288160 -0.536240
C3    C     C_R   0.459247 0.831863 0.834245 0.701182
C4    C     C_R   0.540795 0.168109 0.165819 0.704391
O11   O     O_R   0.626290 0.672180 0.788160 -0.536063
O12   O     O_R   0.373710 0.327820 0.211840 -0.535393
O13   O     O_3   0.451520 0.755460 0.715370 -0.368741
O14   O     O_3   0.548480 0.244540 0.284630 -0.367951
V1    V     V_3+5 0.179200 0.748980 0.756420 1.422032
V2    V     V_3+5 0.820800 0.251020 0.243580 1.413591
O15   O     O_R   0.783880 0.828350 0.705250 -0.538482
O16   O     O_R   0.216120 0.171650 0.294750 -0.538321
C5    C     C_R   0.949576 0.852644 0.694723 0.693495
C6    C     C_R   0.050424 0.147351 0.305271 0.693206
O17   O     O_R   0.790030 0.689320 0.682700 -0.540862
O18   O     O_R   0.209970 0.310680 0.317300 -0.540606
C7    C     C_R   0.959419 0.667802 0.665951 0.705541
C8    C     C_R   0.040581 0.332200 0.334048 0.706881
V3    V     V_3+5 0.678400 0.751010 0.743570 1.421599
V4    V     V_3+5 0.321600 0.248990 0.256430 1.420579
O19   O     O_3   0.955950 0.744540 0.784620 -0.366658
O20   O     O_3   0.044050 0.255460 0.215380 -0.367589
C9    C     C_R   0.863188 0.423729 0.390996 -0.187472
C10   C     C_R   0.136815 0.576278 0.608999 -0.187360
C11   C     C_R   0.028762 0.381881 0.383181 -0.133604
C12   C     C_R   0.971239 0.618124 0.616815 -0.133319
C13   C     C_R   0.182241 0.387961 0.422254 -0.145563
C14   C     C_R   0.817762 0.612045 0.577743 -0.145771
C15   C     C_R   0.170373 0.434245 0.469161 0.096908
C16   C     C_R   0.829632 0.565763 0.530834 0.096849
C17   C     C_R   0.004813 0.476446 0.476614 -0.038827
C18   C     C_R   0.995192 0.523561 0.523380 -0.038932
C19   C     C_R   0.849770 0.471706 0.437067 0.027435
C20   C     C_R   0.150235 0.528302 0.562927 0.027412
C21   C     C_R   0.323282 0.438915 0.508378 -0.275710
C22   C     C_R   0.676726 0.561094 0.491615 -0.275970
C23   C     C_R   0.314894 0.485033 0.556257 0.393847
C24   C     C_R   0.685114 0.514977 0.443736 0.393577
H1    H     H_    0.745876 0.419411 0.360368 0.173245
H2    H     H_    0.254127 0.580595 0.639627 0.173205
H3    H     H_    0.310346 0.355903 0.416577 0.126865
H4    H     H_    0.689655 0.644103 0.583420 0.126762
H5    H     H_    0.449726 0.406885 0.500531 0.112969
H6    H     H_    0.550284 0.593125 0.499463 0.112865
C25   C     C_R   0.947234 0.914183 0.663000 -0.044798
C26   C     C_R   0.052759 0.085810 0.336989 -0.043528
C27   C     C_R   0.864124 0.032915 0.659377 -0.161119
C28   C     C_R   0.135814 0.967073 0.340604 -0.163762
C29   C     C_R   0.881776 0.975075 0.689330 -0.167785
C30   C     C_R   0.118180 0.024916 0.310654 -0.169438
C31   C     C_R   0.994436 0.911436 0.605701 -0.216402
C32   C     C_R   0.005565 0.088555 0.394287 -0.216299
C33   C     C_R   0.973930 0.969700 0.573658 0.086314
C34   C     C_R   0.026046 0.030288 0.426328 0.086144
C35   C     C_R   0.907982 0.030753 0.602056 0.140072
C36   C     C_R   0.091972 0.969234 0.397927 0.141493
C37   C     C_R   0.013521 0.969550 0.514612 0.058776
C38   C     C_R   0.986451 0.030437 0.485373 0.058507
C39   C     C_R   0.921379 0.089418 0.516198 -0.189429
C40   C     C_R   0.078577 0.910568 0.483786 -0.189571
C41   C     C_R   0.883568 0.089383 0.573153 -0.203068
C42   C     C_R   0.116374 0.910602 0.426828 -0.204470
H7    H     H_    0.833167 0.136024 0.594845 0.120844
H8    H     H_    0.166757 0.863960 0.405135 0.119622
H9    H     H_    0.958622 0.137076 0.412618 0.093660
H10   H     H_    0.041409 0.862917 0.587374 0.093523
H11   H     H_    0.157052 0.022300 0.266759 0.104951
H12   H     H_    0.842888 0.977691 0.733224 0.107161
H13   H     H_    0.812986 0.079479 0.680993 0.114071
H14   H     H_    0.186928 0.920507 0.318986 0.110689
H15   H     H_    0.897305 0.136941 0.497491 0.121234
H16   H     H_    0.102636 0.863044 0.502491 0.121054
C43   C     C_R   0.491925 0.585709 0.836132 -0.045626
C44   C     C_R   0.508120 0.414301 0.163885 -0.046175
C45   C     C_R   0.619576 0.471433 0.839261 -0.163652
C46   C     C_R   0.380754 0.528617 0.160781 -0.167781
C47   C     C_R   0.576664 0.528070 0.809420 -0.166103
C48   C     C_R   0.423517 0.471958 0.190609 -0.166574
C49   C     C_R   0.451636 0.586661 0.893738 -0.217907
C50   C     C_R   0.548426 0.413352 0.106283 -0.215519
C51   C     C_R   0.500041 0.530103 0.925826 0.085944
C52   C     C_R   0.500227 0.469941 0.074212 0.086583
C53   C     C_R   0.584130 0.472104 0.897025 0.138940
C54   C     C_R   0.416239 0.527954 0.103020 0.143735
C55   C     C_R   0.472089 0.529408 0.985355 0.059036
C56   C     C_R   0.528264 0.470647 0.014689 0.055938
C57   C     C_R   0.609490 0.414476 0.983477 -0.182194
C58   C     C_R   0.391008 0.585597 0.016576 -0.191885
C59   C     C_R   0.636137 0.415352 0.926015 -0.194544
C60   C     C_R   0.364383 0.584728 0.074040 -0.204805
H17   H     H_    0.700256 0.371035 0.904029 0.127145
H18   H     H_    0.300420 0.629060 0.096041 0.119424
H19   H     H_    0.609847 0.366973 0.087690 0.098265
H20   H     H_    0.390022 0.633013 0.912318 0.097143
H21   H     H_    0.388120 0.472577 0.234657 0.115988
H22   H     H_    0.612061 0.527448 0.765372 0.115788
H23   H     H_    0.685190 0.427395 0.817309 0.114989
H24   H     H_    0.315231 0.572668 0.182739 0.112330
H25   H     H_    0.655404 0.368626 0.002208 0.127785
H26   H     H_    0.345292 0.631458 0.997846 0.126170
C61   C     C_R   0.669139 0.066270 0.109566 -0.204534
C62   C     C_R   0.327235 0.932297 0.891761 -0.141428
C63   C     C_R   0.530742 0.119020 0.116368 -0.093480
C64   C     C_R   0.469559 0.880988 0.883761 -0.102685
C65   C     C_R   0.381963 0.124695 0.075832 -0.208857
C66   C     C_R   0.626015 0.878191 0.922129 -0.197819
C67   C     C_R   0.369253 0.077976 0.028920 0.025244
C68   C     C_R   0.638613 0.924701 0.969179 0.017821
C69   C     C_R   0.506059 0.023890 0.023344 -0.008283
C70   C     C_R   0.494448 0.976088 0.976846 -0.011281
C71   C     C_R   0.658530 0.018958 0.063191 0.049969
C72   C     C_R   0.341266 0.980793 0.937200 0.086508
C73   C     C_R   0.224745 0.084939 0.986929 0.387802
C74   C     C_R   0.793420 0.921268 0.008399 0.398553
C75   C     C_R   0.209367 0.035612 0.942204 -0.249418
C76   C     C_R   0.801948 0.968261 0.055003 -0.301874
H27   H     H_    0.785550 0.062208 0.140357 0.116258
H28   H     H_    0.208995 0.935767 0.861496 0.112223
H29   H     H_    0.277397 0.166120 0.080795 0.154648
H30   H     H_    0.736136 0.838820 0.915640 0.161379
H31   H     H_    0.098433 0.041809 0.910087 0.132323
H32   H     H_    0.923734 0.965922 0.084121 0.137947
O21   O     O_3   0.117495 0.144557 0.984900 -0.555684
C77   C     C_3   0.932118 0.134897 0.005194 0.099807
H33   H     H_    0.942050 0.121013 0.049647 0.129138
H34   H     H_    0.855985 0.095183 0.978912 0.131219
C78   C     C_3   0.814792 0.200651 0.003178 -0.695915
H35   H     H_    0.804620 0.216569 0.959344 0.223821
H36   H     H_    0.667168 0.193716 0.018290 0.189740
H37   H     H_    0.884185 0.240846 0.030417 0.212145
O22   O     O_3   0.945625 0.875874 0.998479 -0.550890
C79   C     C_3   0.929533 0.821829 0.033602 0.099557
H38   H     H_    0.787122 0.797603 0.027240 0.109856
H39   H     H_    0.948584 0.839394 0.078635 0.116361
C80   C     C_3   0.086517 0.768897 0.019099 -0.718013
H40   H     H_    0.230804 0.791212 0.025582 0.222201
H41   H     H_    0.075830 0.726012 0.046487 0.171060
H42   H     H_    0.069980 0.749749 0.974485 0.219264
O23   O     O_3   0.465895 0.492982 0.595749 -0.559938
C81   C     C_3   0.589167 0.435357 0.598715 0.106472
H43   H     H_    0.688732 0.431772 0.562675 0.131699
H44   H     H_    0.505925 0.388314 0.599668 0.109899
C82   C     C_3   0.711071 0.442068 0.652425 -0.716680
H45   H     H_    0.617053 0.441735 0.689464 0.210767
H46   H     H_    0.816531 0.399025 0.653595 0.174953
H47   H     H_    0.790725 0.489866 0.654296 0.233536
O24   O     O_3   0.534121 0.507033 0.404241 -0.559876
C83   C     C_3   0.410835 0.564657 0.401282 0.107150
H48   H     H_    0.494067 0.611703 0.400335 0.108843
H49   H     H_    0.311269 0.568231 0.437322 0.131734
C84   C     C_3   0.288933 0.557953 0.347571 -0.719431
H50   H     H_    0.209306 0.510150 0.345690 0.234063
H51   H     H_    0.183449 0.600990 0.346411 0.173789
H52   H     H_    0.382947 0.558307 0.310533 0.210216

loop_
_geom_bond_atom_site_label_1
_geom_bond_atom_site_label_2
_ccdc_geom_bond_type
C1    C43   S    
C33   C35   A    
O24   C83   S    
C58   H26   S    
C25   C29   A    
C61   C71   A    
O13   V3    S    
C17   C18   A    
C27   H13   S    
C43   C47   A    
C55   C56   A    
O4    C2    A    
V1    O19   S    
C80   H42   S    
C77   C78   S    
C62   C64   A    
C80   H40   S    
C55   C58   A    
O23   C81   S    
C15   C17   A    
C16   C22   A    
C78   H36   S    
O9    V1    S    
C18   C20   A    
C73   O21   S    
C34   C38   A    
C11   C13   A    
O7    V1    S    
O3    C1    A    
C67   C69   A    
V2    O20   S    
C13   H3    S    
C46   C48   A    
C73   C75   A    
C14   H4    S    
C28   C30   A    
C52   C56   A    
C31   C33   A    
C39   C41   A    
O7    C3    A    
C32   C34   A    
C46   C54   A    
C83   C84   S    
C84   H51   S    
O5    C7    A    
C45   C53   A    
C28   C36   A    
C36   C42   A    
C23   O23   S    
C8    C11   S    
O8    V2    S    
C38   C39   A    
C65   C67   A    
C81   C82   S    
O3    V1    S    
O14   V4    S    
C76   H32   S    
C82   H46   S    
C19   C24   A    
C53   C59   A    
O14   V2    S    
C3    C64   S    
C20   C23   A    
C28   H14   S    
C15   C21   A    
C26   C32   A    
C16   C18   A    
C21   H5    S    
C2    O12   A    
C83   H49   S    
C17   C19   A    
C79   C80   S    
C22   H6    S    
C44   C50   A    
C40   H16   S    
C29   H12   S    
C60   H18   S    
C80   H41   S    
C70   C72   A    
O11   V3    S    
C33   C37   A    
C21   C23   A    
C31   H10   S    
O17   V3    S    
C43   C49   A    
C78   H37   S    
C22   C24   A    
C30   H11   S    
C10   H2    S    
C45   C47   A    
C37   C38   A    
C9    C19   A    
C10   C20   A    
C42   H8    S    
C57   C59   A    
C41   H7    S    
O13   V1    S    
C77   H34   S    
C1    O11   A    
C35   C41   A    
O15   V3    S    
C26   C30   A    
C34   C36   A    
C62   C72   A    
C81   H44   S    
C51   C53   A    
C57   H25   S    
C75   H31   S    
C24   O24   S    
C50   C52   A    
C54   C60   A    
C56   C57   A    
O10   V2    S    
O1    V3    S    
C61   C63   A    
C68   C74   A    
C82   H47   S    
C69   C71   A    
C39   H15   S    
C59   H17   S    
O18   V4    S    
C58   C60   A    
O15   C5    A    
C49   H20   S    
C61   H27   S    
C83   H48   S    
O16   C6    A    
C32   H9    S    
O1    C3    A    
O12   V4    S    
C84   H52   S    
C74   C76   A    
C65   H29   S    
V4    O20   S    
O16   V4    S    
C2    C44   S    
C46   H24   S    
C44   C48   A    
C27   C35   A    
C74   O22   S    
C64   C66   A    
C69   C70   A    
C5    C25   S    
C77   H33   S    
O5    V1    S    
C7    C12   S    
C6    C26   S    
C4    C63   S    
O6    V2    S    
C78   H35   S    
O10   C6    A    
O18   C8    A    
C81   H43   S    
O2    V4    S    
C37   C40   A    
C72   C75   A    
C12   C14   A    
C67   C73   A    
C71   C76   A    
V3    O19   S    
C84   H50   S    
O22   C79   S    
C14   C16   A    
C48   H21   S    
C52   C54   A    
O21   C77   S    
C47   H22   S    
C25   C31   A    
O9    C5    A    
C9    C11   A    
C66   C68   A    
C10   C12   A    
O2    C4    A    
C68   C70   A    
C50   H19   S    
C62   H28   S    
C27   C29   A    
C51   C55   A    
O4    V2    S    
O6    C8    A    
C66   H30   S    
C13   C15   A    
C49   C51   A    
C79   H38   S    
C40   C42   A    
C82   H45   S    
C45   H23   S    
C9    H1    S    
C79   H39   S    
O8    C4    A    
C63   C65   A    
O17   C7    A    
