data_mof_unit_3896.cif
_audit_creation_date              2012-12-10T18:46:14-0500
_audit_creation_method            fapswitch 2.2
_symmetry_space_group_name_H-M    P1
_symmetry_Int_Tables_number       1
_space_group_crystal_system       triclinic
_cell_length_a                    9.848984
_cell_length_b                    10.668587
_cell_length_c                    13.091084
_cell_angle_alpha                 89.919562
_cell_angle_beta                  69.575054
_cell_angle_gamma                 89.809347
_cell_volume                      1289.05494647

loop_
_atom_site_label
_atom_site_type_symbol
_atom_type_description
_atom_site_fract_x
_atom_site_fract_y
_atom_site_fract_z
_atom_type_partial_charge
C1    C     C_R   0.500873 0.739992 0.497798 0.883398
C2    C     C_R   0.427825 0.509141 0.988217 -0.026732
C3    C     C_R   0.449147 0.550454 0.881199 -0.047533
C4    C     C_R   0.536697 0.538723 0.032297 0.110476
C5    C     C_R   0.643320 0.630460 0.981850 0.161638
C6    C     C_R   0.648772 0.683858 0.883562 -0.262188
C7    C     C_R   0.554982 0.642697 0.832708 -0.136141
C8    C     C_R   0.545333 0.477459 0.123783 -0.220145
C9    C     C_R   0.733085 0.617744 0.131830 -0.232194
C10   C     C_R   0.363534 0.499905 0.824737 -0.224196
C11   C     C_R   0.584748 0.935210 0.546064 -0.267679
C12   C     C_R   0.418736 0.501827 0.705061 0.912796
C13   C     C_R   0.585458 0.063524 0.546507 -0.195259
C14   C     C_R   0.502486 0.127934 0.496355 -0.072671
C15   C     C_R   0.422265 0.066177 0.442660 -0.303541
C16   C     C_R   0.425164 0.937110 0.438438 0.482352
C17   C     C_R   0.502856 0.872533 0.494016 -0.124162
C18   C     C_R   0.909613 0.400316 0.540775 -0.086889
C19   C     C_R   0.054067 0.399686 0.539341 -0.079943
C20   C     C_R   0.089916 0.599985 0.460073 -0.047940
C21   C     C_R   0.946401 0.599791 0.459664 -0.095968
C22   C     C_R   0.500476 0.260096 0.499338 0.895263
C23   C     C_R   0.580790 0.501606 0.295470 0.859039
C24   C     C_R   0.742438 0.667893 0.031205 -0.233729
C25   C     C_R   0.630726 0.524679 0.179174 -0.080823
C26   C     C_R   0.233811 0.436292 0.881980 0.427854
C27   C     C_R   0.202612 0.410403 0.992880 -0.380138
C28   C     C_R   0.298458 0.442285 0.046452 0.436585
H1    H     H_    0.799484 0.656020 0.174957 0.156472
H2    H     H_    0.647482 0.112287 0.588101 0.153665
H3    H     H_    0.359728 0.117688 0.402724 0.151937
H4    H     H_    0.840685 0.320448 0.573310 0.137292
H5    H     H_    0.094234 0.319223 0.570472 0.150140
H6    H     H_    0.158368 0.680095 0.428268 0.185969
H7    H     H_    0.907096 0.679536 0.426958 0.139135
H8    H     H_    0.728039 0.755215 0.844500 0.144953
H9    H     H_    0.822284 0.739621 0.994508 0.142766
H10   H     H_    0.481904 0.395679 0.157076 0.163988
H11   H     H_    0.103746 0.362997 0.038290 0.142435
H12   H     H_    0.563412 0.686600 0.756152 0.154107
H13   H     H_    0.645683 0.885032 0.588026 0.167304
N1    N     N_R   0.142790 0.500030 0.500030 -0.077493
N2    N     N_R   0.857180 0.499940 0.500010 -0.079684
O1    O     O_R   0.385370 0.683250 0.500010 -0.580183
O2    O     O_R   0.614700 0.683220 0.500010 -0.643793
O3    O     O_R   0.328400 0.499990 0.653620 -0.553449
O4    O     O_R   0.557730 0.499960 0.653620 -0.617350
O5    O     O_R   0.385300 0.316780 0.499990 -0.622838
O6    O     O_R   0.614630 0.316750 0.499990 -0.631843
O7    O     O_R   0.442270 0.500040 0.346380 -0.593639
O8    O     O_R   0.671600 0.500010 0.346380 -0.617939
Zn1   Zn    Zn3+2 0.346870 0.500020 0.500000 0.985508
Zn2   Zn    Zn3+2 0.653130 0.499980 0.500000 0.926132
O9    O     O_3   0.347660 0.874348 0.384327 -0.617999
C29   C     C_3   0.429480 0.873920 0.271685 0.066332
H14   H     H_    0.443261 0.971002 0.238252 0.130479
H15   H     H_    0.538080 0.830423 0.255553 0.138403
C30   C     C_3   0.350195 0.797719 0.211939 -0.781319
H16   H     H_    0.410661 0.801326 0.122817 0.213619
H17   H     H_    0.341545 0.698476 0.239010 0.278763
H18   H     H_    0.239763 0.836543 0.228644 0.241220
O10   O     O_3   0.145845 0.393570 0.825677 -0.588694
C31   C     C_3   0.996396 0.403826 0.888447 0.106060
H19   H     H_    0.971309 0.491596 0.937708 0.153769
H20   H     H_    0.961069 0.320920 0.942756 0.136691
C32   C     C_3   0.908565 0.405676 0.813419 -0.797237
H21   H     H_    0.937654 0.489151 0.759450 0.262433
H22   H     H_    0.929637 0.318883 0.763621 0.237688
H23   H     H_    0.791230 0.409892 0.862461 0.214087
O11   O     O_3   0.252008 0.430669 0.159277 -0.641670
C33   C     C_3   0.213907 0.305214 0.194112 0.050911
H24   H     H_    0.276070 0.278295 0.247182 0.159653
H25   H     H_    0.242487 0.234745 0.126869 0.114695
C34   C     C_3   0.052233 0.297436 0.262089 -0.302965
H26   H     H_    0.023504 0.375739 0.321078 0.252434
H27   H     H_    0.985608 0.307337 0.209573 0.198658
C35   C     C_3   0.014526 0.173367 0.323668 -0.960570
H28   H     H_    0.042195 0.093546 0.265534 0.261881
H29   H     H_    0.896566 0.170737 0.371278 0.274220
H30   H     H_    0.074632 0.163393 0.381006 0.263334

loop_
_geom_bond_atom_site_label_1
_geom_bond_atom_site_label_2
_ccdc_geom_bond_type
C32   H22   S    
C29   H14   S    
C31   H20   S    
C22   O5    A    
C4    C8    A    
C9    C25   A    
C35   H28   S    
C26   C27   A    
C34   H27   S    
C3    C7    A    
C5    C6    A    
C32   H23   S    
C30   H17   S    
C15   C16   A    
O3    Zn1   S    
C18   C19   A    
C21   N2    A    
N2    Zn2   S    
C27   H11   S    
C16   C17   A    
C34   C35   S    
O7    Zn1   S    
C7    H12   S    
O11   C33   S    
C19   N1    A    
C9    H1    S    
O4    Zn2   S    
C20   H6    S    
O1    Zn1   S    
C30   H18   S    
C32   H21   S    
C31   C32   S    
O2    Zn2   S    
C13   C14   A    
C8    C25   A    
C8    H10   S    
C12   O4    A    
C24   H9    S    
C35   H29   S    
C34   H26   S    
C13   H2    S    
C12   O3    A    
C19   H5    S    
C33   H25   S    
C23   O7    A    
C30   H16   S    
O8    Zn2   S    
C2    C4    A    
O10   C31   S    
C1    O1    A    
C23   O8    A    
C10   C26   A    
C10   C12   S    
C22   O6    A    
C29   H15   S    
C18   H4    S    
C35   H30   S    
O9    C29   S    
C11   C17   A    
C28   O11   S    
C4    C5    A    
C33   C34   S    
C20   N1    A    
C9    C24   A    
C15   H3    S    
C6    C7    A    
C21   H7    S    
C1    C17   S    
C14   C22   S    
C2    C3    A    
C26   O10   S    
C33   H24   S    
C3    C10   A    
C18   N2    A    
C11   C13   A    
C1    O2    A    
C5    C24   A    
O6    Zn2   S    
C6    H8    S    
C11   H13   S    
C23   C25   S    
C16   O9    S    
C31   H19   S    
O5    Zn1   S    
C20   C21   A    
C29   C30   S    
C27   C28   A    
C14   C15   A    
C2    C28   A    
N1    Zn1   S    
