data_mof_unit_1011.cif
_audit_creation_date              2012-12-11T15:16:46-0500
_audit_creation_method            fapswitch 2.2
_symmetry_space_group_name_H-M    P1
_symmetry_Int_Tables_number       1
_space_group_crystal_system       triclinic
_cell_length_a                    25.185563
_cell_length_b                    7.231262
_cell_length_c                    21.886254
_cell_angle_alpha                 90.00016
_cell_angle_beta                  110.101816
_cell_angle_gamma                 89.999655
_cell_volume                      3743.18541913

loop_
_atom_site_label
_atom_site_type_symbol
_atom_type_description
_atom_site_fract_x
_atom_site_fract_y
_atom_site_fract_z
_atom_type_partial_charge
O1    O     O_R   0.554350 0.505270 0.581390 -0.531223
O2    O     O_R   0.445650 0.005270 0.418610 -0.531222
O3    O     O_R   0.553380 0.177580 0.454800 -0.541308
O4    O     O_R   0.446620 0.677580 0.545200 -0.541309
C1    C     C_R   0.565856 0.344573 0.438281 0.677039
C2    C     C_R   0.434144 0.844574 0.561719 0.677041
O5    O     O_R   0.560970 0.175640 0.583140 -0.532624
O6    O     O_R   0.439030 0.675640 0.416860 -0.532624
O7    O     O_R   0.453290 0.004120 0.547860 -0.538646
O8    O     O_R   0.546710 0.504120 0.452140 -0.538646
C3    C     C_R   0.575943 0.344020 0.607552 0.679117
C4    C     C_R   0.424057 0.844020 0.392447 0.679118
O9    O     O_3   0.464660 0.338800 0.488280 -0.373247
O10   O     O_3   0.535340 0.838800 0.511720 -0.373248
V1    V     V_3+5 0.506560 0.064420 0.502170 1.417644
V2    V     V_3+5 0.493440 0.564420 0.497830 1.417643
C5    C     C_R   0.151300 0.008604 0.286835 -0.150478
C6    C     C_R   0.848699 0.508654 0.713166 -0.150491
H1    H     H_    0.067670 0.055266 0.220079 0.122470
H2    H     H_    0.932327 0.555306 0.779924 0.122471
H3    H     H_    0.234786 0.987082 0.399726 0.126980
H4    H     H_    0.765209 0.487177 0.600277 0.126983
H5    H     H_    0.139794 0.051333 0.328100 0.127594
H6    H     H_    0.860202 0.551409 0.671904 0.127599
C7    C     C_R   0.122046 0.943975 0.171590 -0.084001
C8    C     C_R   0.877954 0.443980 0.828411 -0.084001
C9    C     C_R   0.398745 0.837875 0.273556 -0.162356
C10   C     C_R   0.601256 0.337837 0.726444 -0.162351
C11   C     C_R   0.360832 0.859770 0.210618 -0.121520
C12   C     C_R   0.639168 0.359717 0.789384 -0.121527
C13   C     C_R   0.303539 0.888148 0.199447 -0.081189
C14   C     C_R   0.696461 0.388110 0.800554 -0.081189
C15   C     C_R   0.281839 0.886583 0.250987 0.092693
C16   C     C_R   0.718161 0.386578 0.749014 0.092692
C17   C     C_R   0.321904 0.880469 0.315998 0.062390
C18   C     C_R   0.678096 0.380483 0.684002 0.062387
C19   C     C_R   0.222526 0.908661 0.240543 0.007063
C20   C     C_R   0.777473 0.408671 0.759458 0.007056
C21   C     C_R   0.207016 0.957608 0.295131 0.096688
C22   C     C_R   0.792982 0.457650 0.704871 0.096703
C23   C     C_R   0.247066 0.955259 0.358025 -0.170466
C24   C     C_R   0.752932 0.455323 0.641977 -0.170472
C25   C     C_R   0.303129 0.910579 0.368545 -0.183151
C26   C     C_R   0.696869 0.410629 0.631456 -0.183153
C27   C     C_R   0.177581 0.884400 0.179151 0.297439
C28   C     C_R   0.822418 0.384396 0.820851 0.297440
C29   C     C_R   0.109990 0.009352 0.225386 -0.228195
C30   C     C_R   0.890008 0.509382 0.774616 -0.228176
C31   C     C_R   0.380394 0.852116 0.326796 -0.079777
C32   C     C_R   0.619606 0.352111 0.673204 -0.079779
H7    H     H_    0.443163 0.817504 0.280965 0.111458
H8    H     H_    0.556838 0.317452 0.719035 0.111459
H9    H     H_    0.277766 0.923150 0.150441 0.180601
H10   H     H_    0.722233 0.423099 0.849561 0.180599
H11   H     H_    0.376204 0.859345 0.170098 0.136852
H12   H     H_    0.623797 0.359267 0.829903 0.136854
H13   H     H_    0.332222 0.908224 0.418252 0.108151
H14   H     H_    0.667775 0.408293 0.581749 0.108155
C33   C     C_R   0.121306 0.765154 0.882343 -0.129319
C34   C     C_R   0.878681 0.265152 0.117640 -0.129309
H15   H     H_    0.106282 0.637115 0.896264 0.126519
H16   H     H_    0.893696 0.137111 0.103707 0.126531
C35   C     C_R   0.157180 0.755285 0.845715 -0.134805
C36   C     C_R   0.842807 0.255283 0.154268 -0.134807
H17   H     H_    0.168555 0.620250 0.832713 0.135235
H18   H     H_    0.831423 0.120246 0.167258 0.135235
C37   C     C_R   0.177823 0.917024 0.825976 0.016990
C38   C     C_R   0.822176 0.417024 0.174023 0.016987
C39   C     C_R   0.161812 0.089072 0.844295 -0.129731
C40   C     C_R   0.838200 0.589074 0.155719 -0.129728
H19   H     H_    0.176845 0.216716 0.830113 0.140295
H20   H     H_    0.823176 0.716721 0.169913 0.140290
C41   C     C_R   0.125915 0.099043 0.880993 -0.150919
C42   C     C_R   0.874096 0.599046 0.119022 -0.150924
H21   H     H_    0.114411 0.234144 0.893786 0.124464
H22   H     H_    0.885610 0.734149 0.106241 0.124451
C43   C     C_R   0.104954 0.937172 0.900410 -0.036590
C44   C     C_R   0.895045 0.437173 0.099589 -0.036597
N1    N     N_R   0.235383 0.061920 0.766900 -0.278566
N2    N     N_R   0.764636 0.561922 0.233124 -0.278564
N3    N     N_R   0.268969 0.051926 0.731326 -0.282853
N4    N     N_R   0.731051 0.551928 0.268699 -0.282851
C45   C     C_R   0.284253 0.885629 0.713510 0.514175
C46   C     C_R   0.715747 0.385629 0.286491 0.514169
N5    N     N_R   0.264400 0.729755 0.732964 -0.279177
N6    N     N_R   0.735580 0.229753 0.267011 -0.279170
N7    N     N_R   0.230815 0.739748 0.768539 -0.281781
N8    N     N_R   0.769164 0.239746 0.231436 -0.281775
C47   C     C_R   0.215533 0.906043 0.786357 0.517925
C48   C     C_R   0.784467 0.406043 0.213642 0.517918
C49   C     C_R   0.337939 0.702557 0.655543 -0.133761
C50   C     C_R   0.662050 0.202555 0.344443 -0.133758
H23   H     H_    0.322825 0.574931 0.669634 0.138833
H24   H     H_    0.677156 0.074926 0.330340 0.138832
C51   C     C_R   0.373884 0.692549 0.618908 -0.158478
C52   C     C_R   0.626105 0.192546 0.381078 -0.158472
H25   H     H_    0.385354 0.557469 0.606052 0.121242
H26   H     H_    0.614626 0.057464 0.393922 0.121236
C53   C     C_R   0.394951 0.854393 0.599629 -0.047711
C54   C     C_R   0.605049 0.354392 0.400371 -0.047710
C55   C     C_R   0.378662 0.026430 0.617733 -0.160604
C56   C     C_R   0.621350 0.526431 0.382282 -0.160606
H27   H     H_    0.393794 0.154397 0.603896 0.123475
H28   H     H_    0.606227 0.654401 0.396131 0.123474
C57   C     C_R   0.342733 0.036351 0.654294 -0.137301
C58   C     C_R   0.657279 0.536353 0.345722 -0.137299
H29   H     H_    0.331408 0.171396 0.667345 0.134774
H30   H     H_    0.668613 0.671399 0.332682 0.134771
C59   C     C_R   0.321988 0.874628 0.673922 0.020264
C60   C     C_R   0.678013 0.374628 0.326078 0.020261
O11   O     O_R   0.953220 0.285790 0.047790 -0.534987
O12   O     O_R   0.046780 0.785790 0.952210 -0.534985
O13   O     O_R   0.939020 0.617570 0.916840 -0.540324
O14   O     O_R   0.060980 0.117570 0.083160 -0.540323
C61   C     C_R   0.923786 0.448734 0.892628 0.749421
C62   C     C_R   0.076213 0.948734 0.107372 0.749424
O15   O     O_R   0.946600 0.615450 0.045180 -0.546377
O16   O     O_R   0.053400 0.115450 0.954820 -0.546378
O17   O     O_R   0.054370 0.786770 0.081410 -0.515646
O18   O     O_R   0.945630 0.286770 0.918590 -0.515644
C63   C     C_R   0.934202 0.446929 0.061600 0.700576
C64   C     C_R   0.065797 0.946929 0.938400 0.700588
O19   O     O_3   0.035300 0.454160 0.011680 -0.367717
O20   O     O_3   0.964700 0.954160 0.988320 -0.367715
V3    V     V_3+5 0.993450 0.728620 0.997830 1.499324
V4    V     V_3+5 0.006550 0.228620 0.002170 1.499322
Cl1   Cl    Cl    0.185533 0.752267 0.114648 -0.682869
Cl2   Cl    Cl    0.814469 0.252234 0.885347 -0.682875

loop_
_geom_bond_atom_site_label_1
_geom_bond_atom_site_label_2
_ccdc_geom_bond_type
C20   C22   A    
C35   H17   S    
C9    C11   A    
C41   H21   S    
O1    C3    A    
C37   C47   S    
O2    C4    A    
C33   C43   A    
C2    O7    A    
C4    C31   S    
O3    V1    S    
C21   C23   A    
O12   C64   A    
C57   H29   S    
C34   C44   A    
C5    H5    S    
C42   H22   S    
C6    H6    S    
C36   C38   A    
C28   Cl2   S    
C46   N6    A    
C5    C21   A    
O14   V4    S    
O18   V4    S    
O11   C63   A    
C50   C52   A    
C34   H16   S    
O16   C64   A    
C39   H19   S    
C44   C63   S    
O15   C63   A    
C8    C61   S    
C6    C22   A    
C43   C64   S    
C10   C32   A    
C26   H14   S    
C52   H26   S    
C17   C31   A    
C38   C48   S    
C13   C15   A    
C39   C41   A    
C17   C25   A    
C7    C29   A    
C16   C18   A    
C8    C30   A    
C22   C24   A    
C55   H27   S    
C11   C13   A    
C23   C25   A    
C24   C26   A    
C14   H10   S    
N3    C45   A    
C9    H7    S    
N5    N7    A    
C55   C57   A    
C35   C37   A    
C33   H15   S    
N1    C47   A    
N6    N8    A    
N2    N4    A    
C7    C62   S    
N1    N3    A    
C25   H13   S    
O19   V4    S    
C11   H11   S    
C12   H12   S    
C15   C19   A    
C37   C39   A    
C36   H18   S    
O4    V2    S    
O5    C3    A    
C40   C42   A    
C49   H23   S    
C1    C54   S    
O6    C4    A    
O11   V4    S    
C50   H24   S    
O1    V2    S    
C13   H9    S    
C56   H28   S    
O2    V1    S    
O12   V3    S    
H2    C30   S    
H3    C23   S    
O17   V3    S    
O4    C2    A    
C53   C55   A    
N8    C48   A    
N4    C46   A    
N7    C47   A    
C18   C26   A    
C19   C27   A    
C7    C27   A    
C18   C32   A    
C54   C56   A    
C58   C60   A    
C57   C59   A    
C45   N5    A    
C16   C20   A    
C5    C29   A    
O3    C1    A    
C6    C30   A    
O14   C62   A    
C51   H25   S    
O9    V2    S    
C45   C59   S    
C33   C35   A    
C62   O17   A    
C34   C36   A    
C2    C53   S    
C49   C59   A    
C10   C12   A    
O7    V1    S    
C1    O8    A    
C19   C21   A    
C3    C32   S    
O8    V2    S    
C12   C14   A    
C10   H8    S    
C50   C60   A    
H4    C24   S    
C58   H30   S    
C27   Cl1   S    
C52   C54   A    
O5    V1    S    
C15   C17   A    
C56   C58   A    
C51   C53   A    
N2    C48   A    
C46   C60   S    
C20   C28   A    
C8    C28   A    
C49   C51   A    
O13   V3    S    
O6    V2    S    
C61   O18   A    
C42   C44   A    
H1    C29   S    
C38   C40   A    
C41   C43   A    
O10   V1    S    
C40   H20   S    
O16   V4    S    
O15   V3    S    
C9    C31   A    
C14   C16   A    
O20   V3    S    
O13   C61   A    
