data_mof_unit_4066.cif
_audit_creation_date              2013-03-05T15:40:41-0500
_audit_creation_method            fapswitch 2.2
_symmetry_space_group_name_H-M    P1
_symmetry_Int_Tables_number       1
_space_group_crystal_system       triclinic
_cell_length_a                    19.292289
_cell_length_b                    11.026682
_cell_length_c                    18.891403
_cell_angle_alpha                 89.613906
_cell_angle_beta                  90.042258
_cell_angle_gamma                 90.005689
_cell_volume                      4018.67459399

loop_
_atom_site_label
_atom_site_type_symbol
_atom_site_description
_atom_site_fract_x
_atom_site_fract_y
_atom_site_fract_z
_atom_type_partial_charge
O1    O     O_R   0.043230 0.549300 0.667990 -0.464038
O2    O     O_R   0.956770 0.549300 0.332010 -0.457780
O3    O     O_R   0.543230 0.049300 0.667990 -0.465211
O4    O     O_R   0.456770 0.049300 0.332010 -0.457237
O5    O     O_R   0.178620 0.457600 0.674100 -0.548884
O6    O     O_R   0.821380 0.457600 0.325900 -0.541797
O7    O     O_R   0.678620 0.957600 0.674100 -0.549786
O8    O     O_R   0.321380 0.957600 0.325900 -0.540978
C1    C     C_R   0.238495 0.468407 0.647005 0.577239
C2    C     C_R   0.761577 0.467613 0.352742 0.580891
C3    C     C_R   0.738494 0.968402 0.647007 0.577573
C4    C     C_R   0.261572 0.967590 0.352731 0.581834
O9    O     O_R   0.284680 0.542100 0.669460 -0.419884
O10   O     O_R   0.715320 0.542100 0.330540 -0.430625
O11   O     O_R   0.784680 0.042100 0.669460 -0.419544
O12   O     O_R   0.215320 0.042100 0.330540 -0.430274
O13   O     O_R   0.262860 0.790390 0.676650 -0.420939
O14   O     O_R   0.737140 0.790390 0.323350 -0.421848
O15   O     O_R   0.762860 0.290390 0.676650 -0.420635
O16   O     O_R   0.237140 0.290390 0.323350 -0.421620
C5    C     C_R   0.227013 0.874667 0.648269 0.611335
C6    C     C_R   0.773542 0.872220 0.352548 0.612342
C7    C     C_R   0.727019 0.374686 0.648278 0.612039
C8    C     C_R   0.273532 0.372246 0.352539 0.613227
O17   O     O_R   0.167460 0.907030 0.670940 -0.520243
O18   O     O_R   0.832540 0.907030 0.329060 -0.513349
O19   O     O_R   0.667460 0.407030 0.670940 -0.520626
O20   O     O_R   0.332540 0.407030 0.329060 -0.512438
O21   O     O_R   0.053950 0.750220 0.675100 -0.522788
O22   O     O_R   0.946050 0.750220 0.324900 -0.525740
O23   O     O_R   0.553950 0.250220 0.675100 -0.523932
O24   O     O_R   0.446050 0.250220 0.324900 -0.525726
C9    C     C_R   0.027980 0.656807 0.646118 0.595880
C10   C     C_R   0.971411 0.655517 0.354366 0.608770
C11   C     C_R   0.527973 0.156810 0.646123 0.594949
C12   C     C_R   0.471402 0.155504 0.354372 0.608422
O25   O     O_R   0.043300 0.547370 0.827390 -0.474554
O26   O     O_R   0.956700 0.547370 0.172610 -0.479123
O27   O     O_R   0.543300 0.047370 0.827390 -0.473930
O28   O     O_R   0.456700 0.047370 0.172610 -0.478312
O29   O     O_R   0.178690 0.455820 0.821860 -0.497633
O30   O     O_R   0.821310 0.455820 0.178140 -0.490875
O31   O     O_R   0.678690 0.955820 0.821860 -0.490667
O32   O     O_R   0.321310 0.955820 0.178140 -0.489666
C13   C     C_R   0.239285 0.463321 0.849137 0.574248
C14   C     C_R   0.760676 0.463745 0.150956 0.575926
C15   C     C_R   0.739324 0.963249 0.849073 0.576639
C16   C     C_R   0.260676 0.963786 0.150937 0.568909
O33   O     O_R   0.284750 0.540170 0.828860 -0.504037
O34   O     O_R   0.715250 0.540170 0.171140 -0.511927
O35   O     O_R   0.784750 0.040170 0.828860 -0.510174
O36   O     O_R   0.215250 0.040170 0.171140 -0.513970
O37   O     O_R   0.262920 0.788600 0.824420 -0.455102
O38   O     O_R   0.737080 0.788600 0.175580 -0.463317
O39   O     O_R   0.762920 0.288600 0.824420 -0.460043
O40   O     O_R   0.237080 0.288600 0.175580 -0.470967
C17   C     C_R   0.226620 0.872247 0.852896 0.580616
C18   C     C_R   0.773453 0.872666 0.147054 0.583382
C19   C     C_R   0.726506 0.372013 0.852994 0.583186
C20   C     C_R   0.273426 0.372842 0.147103 0.579669
O41   O     O_R   0.167530 0.905110 0.830340 -0.547905
O42   O     O_R   0.832470 0.905110 0.169660 -0.542044
O43   O     O_R   0.667530 0.405110 0.830340 -0.544091
O44   O     O_R   0.332470 0.405110 0.169660 -0.537264
O45   O     O_R   0.054010 0.748440 0.822860 -0.509666
O46   O     O_R   0.945990 0.748440 0.177140 -0.508452
O47   O     O_R   0.554010 0.248440 0.822860 -0.508141
O48   O     O_R   0.445990 0.248440 0.177140 -0.510085
C21   C     C_R   0.029687 0.652035 0.850672 0.583093
C22   C     C_R   0.969741 0.652327 0.148837 0.597337
C23   C     C_R   0.529931 0.151956 0.850839 0.594577
C24   C     C_R   0.469923 0.152385 0.148980 0.589063
Cr1   Cr    Cr6+3 0.113970 0.508630 0.747920 1.088648
Cr2   Cr    Cr6+3 0.886030 0.508630 0.252080 1.104587
Cr3   Cr    Cr6+3 0.613970 0.008630 0.747920 1.094449
Cr4   Cr    Cr6+3 0.386030 0.008630 0.252080 1.107634
Cr5   Cr    Cr6+3 0.269200 0.666740 0.749850 1.160370
Cr6   Cr    Cr6+3 0.730800 0.666740 0.250150 1.156426
Cr7   Cr    Cr6+3 0.769200 0.166740 0.749850 1.158012
Cr8   Cr    Cr6+3 0.230800 0.166740 0.250150 1.153640
Cr9   Cr    Cr6+3 0.112300 0.820070 0.749800 1.046502
Cr10  Cr    Cr6+3 0.887700 0.820070 0.250200 1.056179
Cr11  Cr    Cr6+3 0.612300 0.320070 0.749800 1.050413
Cr12  Cr    Cr6+3 0.387700 0.320070 0.250200 1.058722
O49   O     O_3   0.165160 0.665150 0.749190 -0.300424
O50   O     O_3   0.834840 0.665150 0.250810 -0.301143
O51   O     O_3   0.665160 0.165150 0.749190 -0.299191
O52   O     O_3   0.334840 0.165150 0.250810 -0.301244
C25   C     C_2   0.252955 0.928753 0.583369 -0.003967
C26   C     C_2   0.749003 0.919681 0.419302 0.039775
C27   C     C_2   0.752970 0.428835 0.583400 -0.003623
C28   C     C_2   0.248966 0.419762 0.419275 0.041304
C29   C     C_2   0.252331 0.903679 0.418441 0.300333
C30   C     C_2   0.749926 0.903122 0.582287 0.262235
C31   C     C_2   0.752356 0.403780 0.418478 0.300617
C32   C     C_2   0.249936 0.403160 0.582274 0.261797
C33   C     C_2   0.301854 0.916175 0.467677 -0.090368
C34   C     C_2   0.698243 0.899856 0.534854 -0.107853
C35   C     C_2   0.801873 0.416371 0.467711 -0.090323
C36   C     C_2   0.198251 0.399892 0.534845 -0.107961
C37   C     C_2   0.292918 0.866664 0.537857 0.253496
C38   C     C_2   0.709117 0.854427 0.464201 0.267989
C39   C     C_2   0.792970 0.366819 0.537889 0.254407
C40   C     C_2   0.209128 0.354462 0.464195 0.268329
H1    H     H_    0.347824 0.970729 0.457694 0.112579
H2    H     H_    0.647460 0.937154 0.546782 0.104226
H3    H     H_    0.847803 0.471030 0.457729 0.112471
H4    H     H_    0.147461 0.437146 0.546783 0.103999
H5    H     H_    0.231751 0.016303 0.567647 0.131285
H6    H     H_    0.771292 0.004807 0.436453 0.179097
H7    H     H_    0.731733 0.516363 0.567682 0.130981
H8    H     H_    0.271170 0.504985 0.436388 0.179157
C41   C     C_R   0.001214 0.666958 0.426419 0.036425
C42   C     C_R   0.994648 0.671729 0.575706 0.032558
C43   C     C_R   0.501162 0.166892 0.426444 0.034606
C44   C     C_R   0.494603 0.171746 0.575729 0.033579
C45   C     C_R   0.004728 0.891823 0.423982 0.030459
C46   C     C_R   0.005254 0.897691 0.570878 0.043247
C47   C     C_R   0.504862 0.391721 0.423958 0.030277
C48   C     C_R   0.505289 0.397706 0.570853 0.043348
C49   C     C_R   0.008911 0.001428 0.458598 -0.013688
C50   C     C_R   0.011174 0.004530 0.531880 -0.010672
C51   C     C_R   0.509120 0.501341 0.458544 -0.013930
C52   C     C_R   0.511295 0.504511 0.531828 -0.011082
C53   C     C_R   0.000635 0.783122 0.537085 0.069767
C54   C     C_R   0.000631 0.780511 0.461722 0.064711
C55   C     C_R   0.500630 0.283115 0.537086 0.070838
C56   C     C_R   0.500648 0.280455 0.461726 0.064684
H9    H     H_    0.012782 0.082447 0.427017 0.123773
H10   H     H_    0.017042 0.089311 0.559049 0.103132
H11   H     H_    0.513125 0.582307 0.426933 0.124368
H12   H     H_    0.517172 0.589328 0.558969 0.103068
H13   H     H_    0.012078 0.897565 0.367560 0.164553
H14   H     H_    0.999308 0.909249 0.627106 0.165814
H15   H     H_    0.512251 0.397385 0.367538 0.164757
H16   H     H_    0.499328 0.409298 0.627078 0.165473
C57   C     C_R   0.982831 0.564231 0.537982 -0.041147
C58   C     C_R   0.005453 0.560086 0.467506 -0.053797
C59   C     C_R   0.482716 0.064242 0.538033 -0.040309
C60   C     C_R   0.505315 0.060018 0.467549 -0.054730
C61   C     C_R   0.959915 0.455826 0.570891 0.242162
C62   C     C_R   0.028852 0.447911 0.440699 0.245094
C63   C     C_R   0.459784 0.955880 0.570985 0.242127
C64   C     C_R   0.528683 0.947792 0.440778 0.244021
C65   C     C_R   0.977870 0.345289 0.541410 -0.103751
C66   C     C_R   0.015994 0.342107 0.478998 -0.121686
C67   C     C_R   0.477720 0.845297 0.541547 -0.103573
C68   C     C_R   0.515818 0.842038 0.479123 -0.121034
H17   H     H_    0.964611 0.262724 0.568936 0.188339
H18   H     H_    0.035839 0.257997 0.460138 0.180036
H19   H     H_    0.464484 0.762745 0.569112 0.188380
H20   H     H_    0.535650 0.757901 0.460299 0.179999
C69   C     C_2   0.243317 0.908925 0.924041 0.244410
C70   C     C_2   0.757481 0.909065 0.075481 0.232749
C71   C     C_2   0.742989 0.408372 0.924218 0.230493
C72   C     C_2   0.257795 0.409226 0.075428 0.280238
C73   C     C_2   0.246959 0.896098 0.087067 -0.008683
C74   C     C_2   0.752928 0.894105 0.912951 -0.033294
C75   C     C_2   0.746998 0.395674 0.087216 -0.028318
C76   C     C_2   0.252810 0.393775 0.912918 -0.038326
C77   C     C_2   0.195769 0.932439 0.044730 -0.133066
C78   C     C_2   0.805251 0.927185 0.954459 -0.136952
C79   C     C_2   0.695436 0.430807 0.045009 -0.134354
C80   C     C_2   0.305467 0.425461 0.954366 -0.103855
C81   C     C_2   0.192037 0.894169 0.971964 -0.146110
C82   C     C_2   0.808298 0.889676 0.027723 -0.168396
C83   C     C_2   0.691873 0.392324 0.972211 -0.166043
C84   C     C_2   0.308142 0.387066 0.027565 -0.153036
H21   H     H_    0.156527 0.996273 0.062125 0.161587
H22   H     H_    0.845566 0.988624 0.936188 0.168414
H23   H     H_    0.655852 0.493921 0.062490 0.167924
H24   H     H_    0.346033 0.486492 0.936219 0.172578
H25   H     H_    0.141539 0.860526 0.955522 0.112357
H26   H     H_    0.857913 0.852391 0.044595 0.138381
H27   H     H_    0.641678 0.357238 0.955813 0.139072
H28   H     H_    0.356956 0.346453 0.044269 0.126467
H29   H     H_    0.284175 0.828671 0.069727 0.182806
H30   H     H_    0.714659 0.828793 0.931187 0.153696
H31   H     H_    0.784595 0.328962 0.069810 0.154326
H32   H     H_    0.214280 0.328899 0.931148 0.146204
C85   C     C_2   0.999426 0.659091 0.920575 -0.070943
C86   C     C_2   0.997667 0.659147 0.077776 -0.064845
C87   C     C_2   0.500724 0.158518 0.921211 -0.047302
C88   C     C_2   0.498846 0.159574 0.078373 -0.048437
C89   C     C_2   0.990203 0.561095 0.036884 -0.030062
C90   C     C_2   0.003168 0.560279 0.961806 -0.052187
C91   C     C_2   0.493644 0.060816 0.037784 -0.009620
C92   C     C_2   0.507078 0.060502 0.962832 -0.009796
H33   H     H_    0.973770 0.474378 0.058754 0.212174
H34   H     H_    0.017274 0.472425 0.940458 0.208691
H35   H     H_    0.478564 0.973387 0.059722 0.204879
H36   H     H_    0.523128 0.973468 0.941769 0.204912
H37   H     H_    0.015196 0.745711 0.056748 0.074670
H38   H     H_    0.983798 0.746654 0.941094 0.091526
H39   H     H_    0.515239 0.246740 0.057215 0.084279
H40   H     H_    0.483421 0.245298 0.941469 0.082886
S1    S     S_3+6 0.326262 0.971061 0.941240 -0.010494
O53   O     O_2   0.372405 0.873099 0.970520 -0.284067
O54   O     O_2   0.357191 0.018125 0.873408 -0.259457
O55   O     O_3   0.321417 0.084926 0.999761 -0.552501
H41   H     H_    0.284418 0.138648 0.981193 0.330122
S2    S     S_3+6 0.675909 0.976308 0.057594 -0.013383
O56   O     O_2   0.627729 0.880592 0.029992 -0.296693
O57   O     O_2   0.646217 0.026707 0.124799 -0.260950
O58   O     O_3   0.682809 0.088565 0.997335 -0.543186
H42   H     H_    0.721205 0.140019 0.014694 0.334450
S3    S     S_3+6 0.825552 0.471744 0.941370 -0.011684
O59   O     O_2   0.872153 0.374138 0.970280 -0.296323
O60   O     O_2   0.856097 0.519681 0.873560 -0.254025
O61   O     O_3   0.820279 0.585145 0.000168 -0.542955
H43   H     H_    0.783789 0.639551 0.981170 0.333687
S4    S     S_3+6 0.178553 0.484262 0.057627 -0.011305
O62   O     O_2   0.128049 0.394847 0.027267 -0.328350
O63   O     O_2   0.149582 0.533985 0.125343 -0.262677
O64   O     O_3   0.191148 0.598722 0.999795 -0.545930
H44   H     H_    0.144714 0.635073 0.992718 0.345191
Cl1   Cl    Cl    0.323068 0.716938 0.550588 -0.517586
Cl2   Cl    Cl    0.677538 0.706794 0.449063 -0.560491
Cl3   Cl    Cl    0.823183 0.217123 0.550615 -0.516230
Cl4   Cl    Cl    0.177655 0.206745 0.449104 -0.560642
S5    S     S_3+6 0.177081 0.818151 0.431898 0.005560
O65   O     O_2   0.137796 0.879725 0.489559 -0.346721
O66   O     O_2   0.135528 0.814089 0.364699 -0.292217
O67   O     O_3   0.195679 0.676534 0.458188 -0.515804
H45   H     H_    0.152619 0.646143 0.480613 0.352287
S6    S     S_3+6 0.832321 0.843417 0.565928 -0.006891
O68   O     O_2   0.868945 0.932519 0.518959 -0.284492
O69   O     O_2   0.870739 0.829495 0.634786 -0.312551
O70   O     O_3   0.827604 0.709150 0.524577 -0.543560
H46   H     H_    0.834046 0.647669 0.562366 0.362811
S7    S     S_3+6 0.677218 0.317939 0.431909 0.004649
O71   O     O_2   0.637859 0.379075 0.489670 -0.344989
O72   O     O_2   0.635658 0.313858 0.364713 -0.295050
O73   O     O_3   0.696059 0.176388 0.458074 -0.516295
H47   H     H_    0.652087 0.143838 0.477536 0.353136
S8    S     S_3+6 0.332349 0.343533 0.565894 -0.007076
O74   O     O_2   0.368959 0.432674 0.518932 -0.284279
O75   O     O_2   0.370773 0.329612 0.634748 -0.313156
O76   O     O_3   0.327668 0.209273 0.524530 -0.543483
H48   H     H_    0.333914 0.147783 0.562349 0.362792
Cl5   Cl    Cl    0.081800 0.437809 0.364613 -0.529537
Cl6   Cl    Cl    0.910102 0.455338 0.649527 -0.558214
Cl7   Cl    Cl    0.581660 0.937561 0.364717 -0.531593
Cl8   Cl    Cl    0.409999 0.955514 0.649637 -0.558983

loop_
_geom_bond_atom_site_label_1
_geom_bond_atom_site_label_2
_geom_bond_distance
_ccdc_geom_bond_type
C18   O42   1.268048 A    
Cr11  O51   1.989689 S    
O4    C12   1.279066 A    
O47   Cr11  1.944441 S    
O39   C19   1.279938 A    
C72   S4    1.769323 S    
C34   C38   1.444275 S    
C62   C66   1.391028 A    
O15   C7    1.273672 A    
C67   C68   1.390705 A    
C36   C40   1.444218 S    
C64   C68   1.391037 A    
C45   H13   1.076826 S    
O67   H45   0.990163 S    
O26   C22   1.263923 A    
C65   C66   1.390749 A    
C48   C55   1.422084 A    
O1    C9    1.286799 A    
C51   C52   1.385723 A    
C41   C58   1.409074 A    
C5    C25   1.449248 S    
O58   H42   0.990057 S    
C10   C41   1.483389 S    
O7    C3    1.269031 A    
S4    O62   1.502334 D    
C9    C42   1.485181 S    
O70   H46   0.988962 S    
S2    O57   1.503151 D    
C76   C80   1.330267 D    
C50   H10   1.075434 S    
O76   H48   0.988969 S    
C31   S7    1.748893 S    
S5    O67   1.674305 S    
O25   C21   1.265490 A    
O40   Cr8   1.944084 S    
C46   C50   1.389992 A    
C31   C35   1.340642 D    
O47   C23   1.272689 A    
O20   Cr12  2.071986 S    
C30   C34   1.340713 D    
C81   H25   1.088232 S    
S8    O75   1.503644 D    
C64   Cl7   1.768151 S    
C38   Cl2   1.763191 S    
O8    Cr4   1.951639 S    
O23   Cr11  1.965713 S    
S8    O74   1.497030 D    
C52   H12   1.075546 S    
S1    O54   1.503168 D    
O30   C14   1.279944 A    
C42   C57   1.405694 A    
C27   H7    1.087920 S    
O32   Cr4   1.964045 S    
C1    O9    1.279881 A    
C26   C38   1.349786 D    
C47   C51   1.380313 A    
C5    O17   1.278152 A    
C18   C70   1.440966 S    
C66   H18   1.066966 S    
C3    O11   1.279920 A    
C22   C86   1.448356 S    
O11   Cr7   2.076857 S    
C4    O12   1.281373 A    
O21   C9    1.272345 A    
C71   C83   1.350889 D    
O55   H41   0.990134 S    
C44   C55   1.429169 A    
S3    O61   1.681272 S    
S6    O68   1.496973 D    
C46   C53   1.422040 A    
O27   Cr3   2.075324 S    
C79   H23   1.086350 S    
C45   C54   1.417524 A    
Cr4   O52   1.988552 S    
C91   H35   1.086531 S    
C46   H14   1.076909 S    
O48   C24   1.275179 A    
C44   C59   1.405711 A    
C25   C37   1.345873 D    
C47   C56   1.417467 A    
O2    C10   1.279201 A    
C60   C64   1.413943 A    
O42   Cr10  2.075620 S    
C57   C58   1.402454 A    
Cr5   O49   2.007275 S    
O18   Cr10  2.071986 S    
C78   C82   1.443017 S    
O17   Cr9   2.062573 S    
C13   C76   1.447439 S    
C59   C63   1.414657 A    
C8    C28   1.448589 S    
Cr7   O51   2.007275 S    
C21   C85   1.446828 S    
C70   S2    1.771042 S    
O6    Cr2   1.951639 S    
O35   Cr7   2.058413 S    
C77   H21   1.086367 S    
O31   Cr3   1.958529 S    
O24   Cr12  1.958333 S    
O16   Cr8   1.952271 S    
O9    Cr5   2.076857 S    
O30   Cr2   1.964045 S    
C36   H4    1.086919 S    
S2    O56   1.502100 D    
O22   C10   1.277338 A    
S3    O59   1.502158 D    
O48   Cr12  1.952068 S    
C8    O20   1.279903 A    
C80   C84   1.444346 S    
C90   H34   1.086579 S    
C24   C88   1.447928 S    
O37   C17   1.279817 A    
C35   C39   1.440918 S    
C58   C62   1.413886 A    
C49   H9    1.073539 S    
C42   C53   1.429124 A    
C28   C40   1.349784 D    
C28   H8    1.083936 S    
C25   H5    1.087907 S    
O7    Cr3   1.957125 S    
C41   C54   1.422666 A    
O26   Cr2   2.071101 S    
O27   C23   1.264840 A    
Cr10  O50   1.989382 S    
C17   C69   1.442354 S    
S2    O58   1.681379 S    
C88   H39   1.085611 S    
O13   C5    1.273648 A    
C43   C56   1.422559 A    
O28   Cr4   2.071101 S    
O43   Cr11  2.084769 S    
C48   H16   1.076927 S    
C86   C89   1.340718 D    
Cr12  O52   1.989382 S    
O22   Cr10  1.958333 S    
S1    O55   1.681149 S    
C67   H19   1.076449 S    
O64   H44   0.990052 S    
C20   C72   1.441326 S    
O5    C1    1.269077 A    
S5    O65   1.494400 D    
C27   C39   1.345850 D    
C23   C87   1.446557 S    
O46   Cr10  1.952068 S    
O39   Cr7   1.957182 S    
O3    C11   1.286835 A    
O45   Cr9   1.944441 S    
C78   H22   1.086347 S    
S4    O64   1.681465 S    
C13   O33   1.276773 A    
C79   C83   1.443545 S    
O8    C4    1.265726 A    
C33   C37   1.440870 S    
O13   Cr5   1.939226 S    
C87   H40   1.085687 S    
C6    C26   1.448494 S    
C11   C44   1.485211 S    
S7    O72   1.501872 D    
C86   H37   1.085491 S    
C73   H29   1.085975 S    
O29   C13   1.280093 A    
Cr2   O50   1.988552 S    
O15   Cr7   1.939226 S    
C85   H38   1.085674 S    
C1    C32   1.440146 S    
Cr1   O49   1.988663 S    
C49   C50   1.385704 A    
C89   H33   1.086435 S    
C3    C30   1.440134 S    
Cr3   O51   1.988663 S    
O14   Cr6   1.952271 S    
S4    O63   1.503354 D    
O21   Cr9   1.965713 S    
C63   C67   1.387581 A    
C7    O19   1.278134 A    
C57   C61   1.414608 A    
C77   C81   1.442426 S    
C53   C54   1.424194 A    
C7    C27   1.449251 S    
C4    C29   1.434521 S    
C80   H24   1.086314 S    
C39   Cl3   1.765462 S    
O73   H47   0.991102 S    
C26   H6    1.083858 S    
C55   C56   1.424169 A    
S6    O70   1.681046 S    
C29   C33   1.340641 D    
O34   Cr6   2.071965 S    
O3    Cr3   2.081261 S    
C32   S8    1.749176 S    
C83   H27   1.088353 S    
O38   C18   1.278986 A    
C84   H28   1.088461 S    
O25   Cr1   2.075324 S    
C19   C71   1.441845 S    
O28   C24   1.264273 A    
C51   H11   1.073549 S    
O14   C6    1.271858 A    
C19   O43   1.268132 A    
C68   H20   1.066894 S    
C75   H31   1.085848 S    
C73   C77   1.330473 D    
C92   H36   1.086558 S    
O2    Cr2   2.085580 S    
O6    C2    1.265735 A    
C15   O35   1.276409 A    
C85   C90   1.337004 D    
O24   C12   1.277446 A    
C17   O41   1.268747 A    
C45   C49   1.380357 A    
C62   Cl5   1.768116 S    
C35   H3    1.087465 S    
C16   C73   1.447268 S    
C14   O34   1.276141 A    
C82   H26   1.088435 S    
C71   S3    1.769885 S    
C61   Cl6   1.769862 S    
C34   H2    1.086932 S    
C88   C91   1.339776 D    
O44   Cr12  2.075620 S    
C20   O44   1.267661 A    
O1    Cr1   2.081261 S    
O19   Cr11  2.062573 S    
C74   H30   1.085984 S    
C33   H1    1.087461 S    
C91   C92   1.439688 S    
S5    O66   1.501837 D    
O32   C16   1.280119 A    
O41   Cr9   2.084769 S    
C87   C92   1.337844 D    
C59   C60   1.402473 A    
C76   H32   1.086217 S    
Cr6   O50   2.007275 S    
C89   C90   1.440484 S    
O46   C22   1.275599 A    
C47   H15   1.076843 S    
C2    C31   1.434495 S    
O45   C21   1.272393 A    
C14   C75   1.447296 S    
C32   C36   1.340691 D    
O23   C11   1.272324 A    
C61   C65   1.387546 A    
O33   Cr5   2.058413 S    
C40   Cl4   1.763189 S    
S7    O73   1.673955 S    
C75   C79   1.330469 D    
O10   Cr6   2.063232 S    
O5    Cr1   1.957125 S    
S1    O53   1.502220 D    
Cr9   O49   1.989689 S    
O4    Cr4   2.085580 S    
C74   C78   1.330230 D    
O29   Cr1   1.958529 S    
C37   Cl1   1.765377 S    
C16   O36   1.275958 A    
O40   C20   1.279715 A    
C43   C60   1.409183 A    
Cr8   O52   2.007275 S    
O61   H43   0.990499 S    
C6    O18   1.279885 A    
C69   C81   1.350604 D    
S7    O71   1.494310 D    
S3    O60   1.503200 D    
C72   C84   1.350944 D    
C63   Cl8   1.769817 S    
C70   C82   1.350853 D    
C29   S5    1.748910 S    
C30   S6    1.749094 S    
O12   Cr8   2.063232 S    
O37   Cr5   1.957182 S    
O36   Cr8   2.071965 S    
C12   C43   1.483348 S    
O31   C15   1.280254 A    
O16   C8    1.271892 A    
S8    O76   1.681051 S    
C65   H17   1.076326 S    
S6    O69   1.503650 D    
C48   C52   1.390089 A    
C69   S1    1.771354 S    
C2    O10   1.281346 A    
O38   Cr6   1.944084 S    
C15   C74   1.446912 S    
