data_mof_unit_544.cif
_audit_creation_date              2012-12-11T15:57:53-0500
_audit_creation_method            fapswitch 2.2
_symmetry_space_group_name_H-M    P1
_symmetry_Int_Tables_number       1
_space_group_crystal_system       triclinic
_cell_length_a                    10.730412
_cell_length_b                    10.746551
_cell_length_c                    16.961473
_cell_angle_alpha                 99.541867
_cell_angle_beta                  99.654642
_cell_angle_gamma                 61.42016
_cell_volume                      1684.97297498

loop_
_atom_site_label
_atom_site_type_symbol
_atom_type_description
_atom_site_fract_x
_atom_site_fract_y
_atom_site_fract_z
_atom_type_partial_charge
C1    C     C_R   0.355109 0.774602 0.401169 0.560702
C2    C     C_2   0.315005 0.314072 0.810896 0.277080
C3    C     C_2   0.348799 0.199178 0.755877 -0.121534
C4    C     C_R   0.369310 0.346255 0.357301 0.547328
C5    C     C_2   0.380768 0.198361 0.676084 -0.128388
C6    C     C_1   0.847049 0.328854 0.704896 -0.042365
C7    C     C_1   0.894375 0.293443 0.771421 -0.044174
C8    C     C_1   0.358535 0.764634 0.713526 -0.028818
C9    C     C_1   0.325556 0.812379 0.780324 -0.052761
C10   C     C_R   0.893881 0.307949 0.086655 0.568035
C11   C     C_R   0.319239 0.299973 0.119571 0.552042
C12   C     C_2   0.829574 0.330112 0.159461 -0.107445
C13   C     C_R   0.294055 0.891437 0.083996 0.554234
C14   C     C_R   0.944013 0.273187 0.853884 0.555945
C15   C     C_R   0.305041 0.290432 0.891203 0.533766
C16   C     C_R   0.776504 0.376837 0.404851 0.552593
C17   C     C_R   0.280047 0.881747 0.857046 0.528044
C18   C     C_R   0.381372 0.714259 0.631452 0.570192
C19   C     C_R   0.364343 0.343937 0.577934 0.557356
C20   C     C_R   0.777668 0.378900 0.628858 0.544833
C21   C     C_1   0.342913 0.336355 0.273877 -0.034255
C22   C     C_1   0.331769 0.326732 0.202902 -0.035400
C23   C     C_2   0.856000 0.216748 0.195684 -0.160490
C24   C     C_2   0.847999 0.329469 0.332474 -0.113941
C25   C     C_3   0.199155 0.563225 0.829379 0.011095
C26   C     C_3   0.048806 0.589914 0.791611 -0.267132
C27   C     C_3   0.933966 0.719192 0.835378 -0.437935
C28   C     C_2   0.828636 0.232293 0.278561 -0.163428
C29   C     C_2   0.332252 0.846356 0.330880 -0.111983
C30   C     C_2   0.343648 0.825480 0.158585 -0.114266
C31   C     C_2   0.428957 0.860217 0.214726 -0.163152
C32   C     C_2   0.444378 0.831522 0.297774 -0.160054
C33   C     C_2   0.301692 0.310967 0.635136 -0.068304
Cr1   Cr    Cr6+3 0.608020 0.610770 0.522990 1.020795
Cr2   Cr    Cr6+3 0.289390 0.599570 0.488050 1.028053
Cr3   Cr    Cr6+3 0.602610 0.289690 0.489020 1.026736
Cr4   Cr    Cr6+3 0.053780 0.052210 0.965970 1.010201
Cr5   Cr    Cr6+3 0.060060 0.372530 0.992430 1.007607
Cr6   Cr    Cr6+3 0.372600 0.061970 0.991430 1.019998
H1    H     H_    0.902313 0.109543 0.165349 0.160426
H2    H     H_    0.225875 0.891627 0.298892 0.111490
H3    H     H_    0.365452 0.097938 0.771765 0.114102
H4    H     H_    0.213104 0.653895 0.818426 0.176530
H5    H     H_    0.212124 0.564090 0.895817 0.147911
H6    H     H_    0.035952 0.608694 0.727591 0.159841
H7    H     H_    0.032847 0.495853 0.793628 0.177040
H8    H     H_    0.943168 0.702021 0.899351 0.152882
H9    H     H_    0.826903 0.735799 0.806708 0.157583
H10   H     H_    0.944332 0.816191 0.832196 0.168887
H11   H     H_    0.480280 0.112301 0.656301 0.152938
H12   H     H_    0.198842 0.391980 0.653568 0.129541
H13   H     H_    0.785030 0.167516 0.293682 0.163347
H14   H     H_    0.779347 0.437409 0.189445 0.109821
H15   H     H_    0.896499 0.389982 0.317453 0.109941
H16   H     H_    0.483845 0.915393 0.200876 0.163283
H17   H     H_    0.550503 0.790806 0.329949 0.159860
H18   H     H_    0.291907 0.767460 0.172869 0.109245
O1    O     O_R   0.749250 0.499990 0.439200 -0.516783
O2    O     O_R   0.411120 0.181190 0.091480 -0.509603
O3    O     O_R   0.364220 0.944920 0.062310 -0.491734
O4    O     O_R   0.477870 0.725740 0.440280 -0.492666
O5    O     O_R   0.158740 0.906940 0.874970 -0.538526
O6    O     O_R   0.930920 0.176940 0.885610 -0.480030
O7    O     O_R   0.910730 0.394510 0.895320 -0.508935
O8    O     O_R   0.185840 0.361180 0.920280 -0.540611
O9    O     O_R   0.399210 0.173040 0.915160 -0.523405
O10   O     O_R   0.353170 0.937370 0.898860 -0.497899
O11   O     O_3   0.162150 0.162240 0.983280 -0.269803
O12   O     O_R   0.299400 0.468710 0.556310 -0.511454
O13   O     O_R   0.260770 0.742210 0.412610 -0.507585
O14   O     O_R   0.297990 0.466320 0.394220 -0.499449
O15   O     O_R   0.487720 0.253870 0.385870 -0.515634
O16   O     O_R   0.721940 0.304340 0.422320 -0.497237
O17   O     O_R   0.750770 0.502570 0.614050 -0.520064
O18   O     O_R   0.479280 0.728140 0.602370 -0.496123
O19   O     O_R   0.262290 0.744790 0.587460 -0.505701
O20   O     O_3   0.306818 0.439557 0.792057 -0.592398
O21   O     O_R   0.489240 0.256450 0.560730 -0.509942
O22   O     O_R   0.723350 0.306730 0.584410 -0.488812
O23   O     O_3   0.500010 0.500010 0.500020 -0.268156
O24   O     O_R   0.170650 0.915100 0.051290 -0.521021
O25   O     O_R   0.941960 0.184500 0.049060 -0.490892
O26   O     O_R   0.922640 0.402670 0.071640 -0.504842
O27   O     O_R   0.196880 0.368740 0.083740 -0.496173

loop_
_geom_bond_atom_site_label_1
_geom_bond_atom_site_label_2
_ccdc_geom_bond_type
C27   H9    S    
Cr4   O11   S    
C3    H3    S    
C18   O18   A    
Cr5   O26   S    
Cr6   O11   S    
C10   O26   A    
C25   H4    S    
Cr4   O5    S    
C13   O3    A    
C12   C23   D    
C26   C27   S    
C25   O20   S    
C29   C32   D    
C30   C31   D    
C14   O6    A    
C24   H15   S    
C23   H1    S    
C15   O8    A    
C30   H18   S    
C13   O24   A    
Cr2   O23   S    
C26   H6    S    
Cr1   O23   S    
C7    C14   S    
Cr2   O13   S    
C8    C9    T    
C5    C33   D    
C12   H14   S    
Cr1   O18   S    
C29   H2    S    
Cr6   O2    S    
C16   C24   S    
C21   C22   T    
Cr4   O24   S    
C11   O2    A    
C25   H5    S    
Cr4   O6    S    
Cr5   O7    S    
Cr2   O19   S    
C17   O10   A    
C16   O16   A    
C13   C30   S    
C19   C33   S    
C25   C26   S    
C15   O9    A    
C10   O25   A    
Cr1   O4    S    
C8    C18   S    
C19   O21   A    
C17   O5    A    
C31   C32   S    
Cr5   O8    S    
C14   O7    A    
C1    C29   S    
C20   O17   A    
C16   O1    A    
C23   C28   S    
C2    C15   S    
C10   C12   S    
Cr1   O17   S    
C9    C17   S    
Cr5   O11   S    
Cr3   O23   S    
Cr6   O9    S    
Cr4   O25   S    
C19   O12   A    
C4    O15   A    
C27   H8    S    
C18   O19   A    
C20   O22   A    
Cr5   O27   S    
Cr6   O10   S    
C24   C28   D    
C3    C5    S    
Cr3   O22   S    
C1    O4    A    
C6    C7    T    
C11   O27   A    
C33   H12   S    
C6    C20   S    
C11   C22   S    
C1    O13   A    
C2    C3    D    
C2    O20   S    
Cr3   O21   S    
C4    C21   S    
C28   H13   S    
Cr6   O3    S    
C5    H11   S    
Cr3   O16   S    
C26   H7    S    
Cr2   O14   S    
C27   H10   S    
Cr2   O12   S    
Cr1   O1    S    
C31   H16   S    
C32   H17   S    
C4    O14   A    
Cr3   O15   S    
