data_mof_unit_2763.cif
_audit_creation_date              2012-12-10T19:05:19-0500
_audit_creation_method            fapswitch 2.2
_symmetry_space_group_name_H-M    P1
_symmetry_Int_Tables_number       1
_space_group_crystal_system       triclinic
_cell_length_a                    9.542612
_cell_length_b                    10.917909
_cell_length_c                    17.247118
_cell_angle_alpha                 91.509616
_cell_angle_beta                  85.709877
_cell_angle_gamma                 91.833246
_cell_volume                      1790.42818821

loop_
_atom_site_label
_atom_site_type_symbol
_atom_type_description
_atom_site_fract_x
_atom_site_fract_y
_atom_site_fract_z
_atom_type_partial_charge
C1    C     C_R   0.501630 0.737080 0.504297 0.795823
C2    C     C_R   0.369786 0.463016 0.781153 -0.175354
C3    C     C_R   0.405266 0.502465 0.146375 -0.128196
C4    C     C_R   0.403054 0.509439 0.226664 -0.216894
C5    C     C_R   0.658481 0.516670 0.219066 0.429387
C6    C     C_R   0.659755 0.507181 0.137930 -0.264590
C7    C     C_R   0.533483 0.499871 0.101739 0.050512
C8    C     C_2   0.463282 0.573883 0.978937 0.409222
C9    C     C_2   0.534645 0.492230 0.016426 0.281458
C10   C     C_R   0.528494 0.510361 0.264306 -0.147829
C11   C     C_R   0.381991 0.931306 0.505392 -0.251694
C12   C     C_R   0.481640 0.504075 0.649790 0.786241
C13   C     C_R   0.504793 0.869532 0.510439 -0.203049
C14   C     C_R   0.629168 0.941904 0.518797 0.473333
C15   C     C_R   0.625768 0.069992 0.511691 -0.320819
C16   C     C_R   0.498983 0.129069 0.500880 -0.150399
C17   C     C_R   0.378732 0.054445 0.496864 0.041860
C18   C     C_3   0.224559 0.049618 0.484521 0.564564
C19   C     C_3   0.227216 0.910090 0.498810 0.790189
C20   C     C_R   0.932725 0.458194 0.436054 0.190282
C21   C     C_R   0.919414 0.549504 0.560580 -0.043785
C22   C     C_R   0.067980 0.548891 0.560717 0.020876
C23   C     C_R   0.498531 0.262238 0.499134 0.841890
C24   C     C_R   0.081066 0.460795 0.435506 0.078187
C25   C     C_3   0.085995 0.334234 0.401722 0.156294
C26   C     C_3   0.926347 0.330788 0.402176 0.186903
C27   C     C_R   0.518952 0.504329 0.349731 0.806303
C28   C     C_R   0.473223 0.523472 0.733591 -0.063261
C29   C     C_R   0.570058 0.605338 0.765926 -0.311827
C30   C     C_R   0.568742 0.623517 0.846804 0.501076
C31   C     C_R   0.463895 0.562248 0.893827 0.029129
C32   C     C_R   0.366367 0.481347 0.861287 -0.253714
Cu1   Cu    Cu3+1 0.359330 0.500020 0.500000 0.999351
Cu2   Cu    Cu3+1 0.640670 0.499980 0.500000 0.967715
H1    H     H_    0.643520 0.656243 0.727464 0.124189
H2    H     H_    0.759304 0.508645 0.103256 0.149026
H3    H     H_    0.722654 0.122604 0.517362 0.171459
H4    H     H_    0.858816 0.587290 0.610469 0.116587
H5    H     H_    0.118004 0.585645 0.610642 0.126162
H6    H     H_    0.302380 0.514304 0.259226 0.178339
H7    H     H_    0.127433 0.273399 0.443374 0.206655
H8    H     H_    0.875752 0.263563 0.443838 0.045615
H9    H     H_    0.288952 0.431537 0.898354 0.146050
H10   H     H_    0.306613 0.498416 0.118978 0.137897
H11   H     H_    0.294122 0.400069 0.756476 0.158125
N1    N     N_R   0.852130 0.499070 0.499500 -0.208961
N2    N     N_R   0.148040 0.499110 0.499500 -0.189024
O1    O     O_R   0.381190 0.680360 0.500000 -0.544339
O2    O     O_R   0.618770 0.680320 0.499990 -0.555363
O3    O     O_R   0.367430 0.500040 0.613600 -0.603252
O4    O     O_R   0.605020 0.500000 0.613590 -0.594448
O5    O     O_R   0.381230 0.319680 0.500010 -0.536319
O6    O     O_R   0.618810 0.319640 0.500000 -0.618276
O7    O     O_R   0.394980 0.500000 0.386410 -0.559200
O8    O     O_R   0.632570 0.499960 0.386400 -0.542987
O9    O     O_3   0.754656 0.891011 0.534443 -0.584861
C33   C     C_3   0.752875 0.868111 0.615093 0.110444
H12   H     H_    0.840618 0.806563 0.623331 0.178038
H13   H     H_    0.654325 0.818899 0.637073 0.102461
C34   C     C_3   0.775531 0.986359 0.663599 -0.405204
H14   H     H_    0.870166 0.037704 0.639049 0.233759
H15   H     H_    0.683285 0.045466 0.662067 0.217604
C35   C     C_3   0.793635 0.958706 0.748396 -0.907788
H16   H     H_    0.698929 0.908621 0.774139 0.277995
H17   H     H_    0.807864 0.045896 0.781882 0.269190
H18   H     H_    0.887703 0.902906 0.752961 0.237475
O10   O     O_3   0.144656 0.118085 0.540790 -0.779539
H19   H     H_    0.044785 0.096122 0.533416 0.305867
O11   O     O_3   0.200726 0.077298 0.407660 -0.731267
H20   H     H_    0.102087 0.051160 0.400150 0.317566
O12   O     O_3   0.146124 0.868200 0.566729 -0.586396
C36   C     C_3   0.189871 0.913409 0.639543 0.040542
H21   H     H_    0.098318 0.955882 0.671870 0.175961
H22   H     H_    0.273786 0.986172 0.636122 0.159072
C37   C     C_3   0.235786 0.807156 0.686824 -0.359928
H23   H     H_    0.143809 0.744677 0.700969 0.205616
H24   H     H_    0.317777 0.755235 0.652133 0.229996
C38   C     C_3   0.294716 0.852312 0.762601 -0.922267
H25   H     H_    0.390082 0.911738 0.750318 0.263164
H26   H     H_    0.324074 0.772446 0.795696 0.259745
H27   H     H_    0.214545 0.904332 0.798740 0.254773
O13   O     O_3   0.195581 0.836822 0.433471 -0.704890
H28   H     H_    0.269007 0.851696 0.390536 0.309710
O14   O     O_3   0.157712 0.326753 0.327488 -0.654029
H29   H     H_    0.121090 0.389747 0.294520 0.345706
O15   O     O_3   0.879791 0.328477 0.325970 -0.546189
C39   C     C_3   0.769673 0.240534 0.317372 0.165517
H30   H     H_    0.719577 0.261629 0.263383 0.165754
H31   H     H_    0.686072 0.247451 0.365275 0.136754
C40   C     C_3   0.824111 0.109763 0.309140 -0.392118
H32   H     H_    0.909277 0.105451 0.261616 0.248067
H33   H     H_    0.867328 0.083289 0.364061 0.209968
C41   C     C_3   0.706058 0.018166 0.291039 -0.903254
H34   H     H_    0.619932 0.020713 0.338038 0.269031
H35   H     H_    0.747218 0.924254 0.286518 0.251660
H36   H     H_    0.663427 0.039544 0.234921 0.261348
O16   O     O_3   0.785057 0.529613 0.252801 -0.565010
C42   C     C_3   0.825029 0.655408 0.256047 0.069343
H37   H     H_    0.769804 0.699399 0.308143 0.159307
H38   H     H_    0.800044 0.704974 0.203128 0.125584
C43   C     C_3   0.983724 0.667879 0.262480 -0.314890
H39   H     H_    0.012606 0.620185 0.314711 0.237221
H40   H     H_    0.038862 0.624040 0.210387 0.204015
C44   C     C_3   0.032404 0.802081 0.268440 -0.877806
H41   H     H_    0.001065 0.853256 0.218033 0.248002
H42   H     H_    0.148700 0.807912 0.268657 0.263790
H43   H     H_    0.985905 0.845238 0.323065 0.286917
O17   O     O_3   0.604929 0.399837 0.974780 -0.773150
H44   H     H_    0.645750 0.346119 0.012144 0.329690
O18   O     O_3   0.406118 0.674714 0.019627 -0.611391
C45   C     C_3   0.272270 0.698837 0.994787 0.021428
H45   H     H_    0.205365 0.613223 0.993300 0.129029
H46   H     H_    0.283168 0.739936 0.936237 0.158965
C46   C     C_3   0.199464 0.789722 0.052000 -0.300731
H47   H     H_    0.193568 0.752058 0.111415 0.224428
H48   H     H_    0.261893 0.877419 0.052468 0.234867
C47   C     C_3   0.051112 0.814342 0.030001 -0.924990
H49   H     H_    0.054628 0.851630 0.970553 0.253935
H50   H     H_    0.001906 0.882425 0.071625 0.259996
H51   H     H_    0.985380 0.728476 0.032134 0.257425
O19   O     O_3   0.661679 0.704817 0.881788 -0.606957
C48   C     C_3   0.803946 0.686063 0.855343 0.034664
H52   H     H_    0.868055 0.761333 0.880918 0.177520
H53   H     H_    0.823678 0.694305 0.791528 0.123235
C49   C     C_3   0.856975 0.564122 0.882235 -0.323872
H54   H     H_    0.848658 0.563021 0.946836 0.228715
H55   H     H_    0.792301 0.486367 0.859999 0.251114
C50   C     C_3   0.009369 0.546212 0.852029 -0.953494
H56   H     H_    0.018586 0.541802 0.787412 0.255692
H57   H     H_    0.045618 0.458841 0.873835 0.259301
H58   H     H_    0.077618 0.622899 0.872331 0.255931

loop_
_geom_bond_atom_site_label_1
_geom_bond_atom_site_label_2
_ccdc_geom_bond_type
C10   C27   S    
C14   O9    S    
C39   H30   S    
C35   H17   S    
C41   H34   S    
C19   O12   S    
C45   H45   S    
C50   H56   S    
C44   H42   S    
O16   C42   S    
C40   H32   S    
C27   O7    A    
O17   H44   S    
C9    O17   S    
C11   C19   S    
Cu2   O4    S    
C43   H39   S    
C12   C28   S    
C34   C35   S    
C2    C32   A    
C28   C29   A    
C3    C7    A    
C47   H50   S    
C5    C6    A    
C27   O8    A    
C33   H13   S    
C15   C16   A    
O9    C33   S    
C34   H15   S    
C18   C19   S    
O18   C45   S    
C15   H3    S    
Cu1   O3    S    
C21   H4    S    
C20   C24   A    
C8    C9    D    
C1    O2    A    
C17   C18   S    
C25   O14   S    
Cu2   N1    S    
C19   O13   S    
C18   O11   S    
C22   N2    A    
C35   H18   S    
Cu2   O8    S    
C41   H35   S    
C21   C22   A    
C8    C31   S    
C36   C37   S    
C44   H41   S    
C23   O6    A    
C2    H11   S    
C3    H10   S    
O10   H19   S    
C4    H6    S    
C24   C25   S    
C36   H22   S    
C47   H51   S    
C25   H7    S    
O15   C39   S    
C16   C17   A    
C33   C34   S    
C18   O10   S    
C34   H14   S    
Cu1   O5    S    
C23   O5    A    
C37   H23   S    
C29   C30   A    
C8    O18   S    
C49   C50   S    
C40   H33   S    
C31   C32   A    
C30   O19   S    
C26   O15   S    
Cu1   Cu2   S    
C45   H46   S    
O14   H29   S    
C37   H24   S    
O19   C48   S    
C5    O16   S    
O13   H28   S    
C16   C23   S    
C42   H38   S    
C39   H31   S    
C49   H54   S    
Cu1   N2    S    
C1    C13   S    
C48   H53   S    
C3    C4    A    
C50   H58   S    
C12   O4    A    
C26   H8    S    
C40   C41   S    
C21   N1    A    
Cu1   O7    S    
C7    C9    S    
C11   C17   A    
Cu2   O2    S    
C38   H25   S    
C24   N2    A    
C36   H21   S    
C50   H57   S    
C46   H48   S    
C1    O1    A    
C46   H47   S    
C6    C7    A    
C41   H36   S    
C42   C43   S    
C29   H1    S    
C48   C49   S    
C25   C26   S    
O12   C36   S    
C47   H49   S    
C11   C13   A    
C38   H27   S    
C33   H12   S    
C30   C31   A    
C20   C26   S    
C22   H5    S    
C32   H9    S    
C6    H2    S    
C45   C46   S    
C38   H26   S    
O11   H20   S    
C37   C38   S    
C46   C47   S    
C35   H16   S    
C5    C10   A    
Cu2   O6    S    
C43   H40   S    
C42   H37   S    
C39   C40   S    
C49   H55   S    
Cu1   O1    S    
C14   C15   A    
C2    C28   A    
C43   C44   S    
C48   H52   S    
C13   C14   A    
C4    C10   A    
C12   O3    A    
C44   H43   S    
C20   N1    A    
