data_mof_unit_1677.cif
_audit_creation_date              2012-12-10T17:16:43-0500
_audit_creation_method            fapswitch 2.2
_symmetry_space_group_name_H-M    P1
_symmetry_Int_Tables_number       1
_space_group_crystal_system       triclinic
_cell_length_a                    10.162494
_cell_length_b                    10.669229
_cell_length_c                    10.452506
_cell_angle_alpha                 90.864128
_cell_angle_beta                  92.319087
_cell_angle_gamma                 81.812433
_cell_volume                      1120.80285833

loop_
_atom_site_label
_atom_site_type_symbol
_atom_type_description
_atom_site_fract_x
_atom_site_fract_y
_atom_site_fract_z
_atom_type_partial_charge
C1    C     C_R   0.448321 0.514710 0.265220 0.920184
C2    C     C_R   0.503342 0.741388 0.510812 0.855729
C3    C     C_R   0.697217 0.086891 0.340220 -0.132959
C4    C     C_R   0.282242 0.927465 0.610300 -0.136162
C5    C     C_R   0.819987 0.010490 0.327147 0.266318
C6    C     C_R   0.159273 0.005571 0.614740 0.261298
C7    C     C_R   0.847940 0.899602 0.398035 -0.181272
C8    C     C_R   0.136787 0.113830 0.539787 -0.171847
C9    C     C_R   0.749729 0.859509 0.470403 -0.198122
C10   C     C_R   0.240593 0.150369 0.473107 -0.190388
C11   C     C_R   0.618878 0.926919 0.469123 0.090524
C12   C     C_R   0.552590 0.495815 0.735260 0.940988
C13   C     C_R   0.369681 0.080732 0.483065 0.098515
C14   C     C_R   0.599552 0.048737 0.417640 0.037567
C15   C     C_R   0.386440 0.960238 0.536809 0.038244
C16   C     C_R   0.507301 0.878236 0.517601 -0.231868
C17   C     C_R   0.483106 0.130248 0.445137 -0.243289
C18   C     C_3   0.921891 0.046653 0.240055 -0.961176
C19   C     C_3   0.052365 0.975167 0.699239 -0.954888
C20   C     C_3   0.449859 0.734460 0.869025 -0.876232
C21   C     C_3   0.606713 0.690393 0.147720 -0.798521
C22   C     C_3   0.880748 0.383833 0.330342 -0.669460
C23   C     C_2   0.430464 0.544543 0.129746 -0.386526
C24   C     C_3   0.117275 0.622224 0.665693 -0.660550
C25   C     C_2   0.575571 0.512852 0.872351 -0.382346
C26   C     C_2   0.513901 0.613642 0.073774 0.205265
C27   C     C_2   0.514750 0.615548 0.934530 0.211954
C28   C     C_2   0.072033 0.496185 0.484348 -0.026638
C29   C     C_2   0.927357 0.505344 0.514782 -0.036134
C30   C     C_R   0.493821 0.262804 0.475898 0.884518
H1    H     H_    0.040376 0.172188 0.536639 0.160971
H2    H     H_    0.109346 0.440687 0.402756 0.127402
H3    H     H_    0.946804 0.969976 0.168355 0.250358
H4    H     H_    0.884623 0.135196 0.187725 0.233926
H5    H     H_    0.013613 0.060376 0.296491 0.251243
H6    H     H_    0.022780 0.056639 0.764320 0.251496
H7    H     H_    0.964111 0.956774 0.639919 0.252732
H8    H     H_    0.087096 0.891137 0.759300 0.231749
H9    H     H_    0.479715 0.819043 0.919124 0.236605
H10   H     H_    0.481305 0.738236 0.769417 0.215730
H11   H     H_    0.340246 0.740086 0.871893 0.226064
H12   H     H_    0.945482 0.843367 0.396459 0.160863
H13   H     H_    0.649948 0.754111 0.083188 0.217698
H14   H     H_    0.551544 0.750222 0.221394 0.234659
H15   H     H_    0.691514 0.627670 0.193285 0.254795
H16   H     H_    0.793679 0.346273 0.285937 0.232448
H17   H     H_    0.913174 0.450707 0.261599 0.185501
H18   H     H_    0.960137 0.302714 0.348772 0.183340
H19   H     H_    0.203941 0.660975 0.709135 0.230358
H20   H     H_    0.038802 0.702828 0.641737 0.181944
H21   H     H_    0.082590 0.559369 0.737126 0.191606
H22   H     H_    0.675987 0.174432 0.287535 0.127667
H23   H     H_    0.296562 0.844045 0.668115 0.150841
H24   H     H_    0.779525 0.777726 0.529716 0.165661
H25   H     H_    0.220168 0.234112 0.414785 0.147097
H26   H     H_    0.632866 0.435300 0.925392 0.121160
H27   H     H_    0.356103 0.502232 0.072845 0.124561
H28   H     H_    0.889655 0.561260 0.596143 0.133563
N1    N     N_2   0.157300 0.551390 0.551120 -0.044635
N2    N     N_2   0.842700 0.448610 0.448880 -0.047522
O1    O     O_R   0.568940 0.489660 0.307530 -0.608517
O2    O     O_R   0.431060 0.510340 0.692470 -0.585871
O3    O     O_R   0.348880 0.522640 0.340350 -0.614967
O4    O     O_R   0.651120 0.477360 0.659650 -0.608093
O5    O     O_R   0.610030 0.300280 0.483580 -0.595722
O6    O     O_R   0.389970 0.699720 0.516420 -0.602543
O7    O     O_R   0.389970 0.333270 0.516400 -0.607520
O8    O     O_R   0.610030 0.666730 0.483600 -0.617372
Zn1   Zn    Zn3+2 0.646940 0.477980 0.478080 0.933144
Zn2   Zn    Zn3+2 0.353060 0.522020 0.521920 0.944849

loop_
_geom_bond_atom_site_label_1
_geom_bond_atom_site_label_2
_ccdc_geom_bond_type
C22   H18   S    
C21   C26   S    
O3    Zn2   S    
C10   H25   S    
C19   H8    S    
C4    H23   S    
C25   C27   D    
C21   H14   S    
C2    C16   S    
C18   H5    S    
C2    O8    A    
C30   O7    A    
C25   H26   S    
C13   C17   A    
C12   C25   S    
C3    H22   S    
O7    Zn2   S    
C3    C5    A    
C4    C15   A    
C22   H17   S    
C7    H12   S    
O4    Zn1   S    
C22   N2    S    
C6    C19   S    
C18   H4    S    
C14   C17   A    
C9    C11   A    
C26   C27   S    
O6    Zn2   S    
C3    C14   A    
C17   C30   S    
N2    Zn1   S    
C24   H21   S    
C24   N1    S    
O5    Zn1   S    
C1    O3    A    
C4    C6    A    
C28   C29   S    
C20   C27   S    
C1    C23   S    
C21   H15   S    
C19   H6    S    
C13   C15   A    
C24   H20   S    
C12   O4    A    
C11   C14   A    
C23   C26   D    
C30   O5    A    
C18   H3    S    
N1    Zn2   S    
C15   C16   A    
C7    C9    A    
C28   H2    S    
C12   O2    A    
C29   H28   S    
O2    Zn2   S    
C9    H24   S    
C5    C7    A    
C11   C16   A    
C28   N1    D    
O1    Zn1   S    
C24   H19   S    
C23   H27   S    
C20   H9    S    
C6    C8    A    
C5    C18   S    
C19   H7    S    
C22   H16   S    
C21   H13   S    
C29   N2    D    
C20   H10   S    
C8    C10   A    
C8    H1    S    
C20   H11   S    
O8    Zn1   S    
C2    O6    A    
C10   C13   A    
C1    O1    A    
