data_mof_unit_3566.cif
_audit_creation_date              2012-12-10T17:50:46-0500
_audit_creation_method            fapswitch 2.2
_symmetry_space_group_name_H-M    P1
_symmetry_Int_Tables_number       1
_space_group_crystal_system       triclinic
_cell_length_a                    14.744403
_cell_length_b                    14.48029
_cell_length_c                    15.788898
_cell_angle_alpha                 77.180701
_cell_angle_beta                  101.755497
_cell_angle_gamma                 114.71783
_cell_volume                      2962.2798077

loop_
_atom_site_label
_atom_site_type_symbol
_atom_type_description
_atom_site_fract_x
_atom_site_fract_y
_atom_site_fract_z
_atom_type_partial_charge
C1    C     C_R   0.880772 0.311356 0.513937 0.885663
C2    C     C_R   0.119383 0.688765 0.485029 0.879216
C3    C     C_R   0.776195 0.026432 0.499255 -0.206013
C4    C     C_R   0.225498 0.975693 0.492491 -0.210643
C5    C     C_R   0.844778 0.127957 0.500160 0.336076
C6    C     C_R   0.156118 0.874597 0.491897 0.339378
C7    C     C_R   0.714425 0.170208 0.534699 0.250426
C8    C     C_R   0.286699 0.828533 0.463184 0.252730
C9    C     C_R   0.640833 0.074862 0.513660 0.016113
C10   C     C_R   0.360757 0.924523 0.482766 0.015120
C11   C     C_R   0.674575 0.999628 0.504862 0.032476
C12   C     C_R   0.327304 0.000880 0.489489 0.033898
C13   C     C_R   0.535469 0.051102 0.501731 0.094787
C14   C     C_R   0.466254 0.948189 0.494771 0.093534
C15   C     C_R   0.504973 0.871669 0.504842 -0.141947
C16   C     C_R   0.497230 0.127991 0.491217 -0.142898
C17   C     C_R   0.606807 0.897848 0.504186 -0.180211
C18   C     C_R   0.395376 0.102512 0.490200 -0.181462
C19   C     C_R   0.698371 0.635695 0.331120 0.353852
C20   C     C_R   0.301861 0.363583 0.669442 0.360422
C21   C     C_R   0.785097 0.614691 0.362592 -0.110604
C22   C     C_R   0.217772 0.390562 0.639421 -0.134326
C23   C     C_R   0.999045 0.500012 0.659756 0.824346
C24   C     C_R   0.000516 0.499325 0.340281 0.831156
C25   C     C_R   0.724171 0.530187 0.498951 0.611644
C26   C     C_R   0.273908 0.464912 0.500087 0.597689
C27   C     C_R   0.627926 0.534641 0.466254 -0.198607
C28   C     C_R   0.369344 0.459747 0.531839 -0.182623
C29   C     C_R   0.620305 0.596870 0.384302 0.008904
C30   C     C_R   0.377812 0.399117 0.614332 0.015124
C31   C     C_R   0.541080 0.483529 0.512699 0.087621
C32   C     C_R   0.454560 0.508274 0.483453 0.101629
C33   C     C_R   0.457503 0.583176 0.408609 -0.208538
C34   C     C_R   0.536964 0.406929 0.586376 -0.240066
C35   C     C_R   0.535874 0.622092 0.357720 -0.162575
C36   C     C_R   0.460359 0.370543 0.638879 -0.152899
C37   C     C_3   0.013985 0.412705 0.047498 -0.318038
C38   C     C_3   0.980718 0.579359 0.953108 -0.314470
C39   C     C_3   0.923710 0.408493 0.975310 -0.274014
C40   C     C_3   0.071060 0.583547 0.025153 -0.271566
C41   C     C_1   0.997094 0.499657 0.749107 -0.148431
C42   C     C_1   0.000642 0.496989 0.251105 -0.155932
C43   C     C_3   0.085215 0.501463 0.987811 0.529675
C44   C     C_3   0.909501 0.490561 0.012727 0.531968
C45   C     C_3   0.996609 0.497386 0.916729 0.070572
C46   C     C_3   0.998182 0.494787 0.083797 0.075007
C47   C     C_1   0.996638 0.498775 0.824831 0.003546
C48   C     C_1   0.999440 0.495383 0.175563 -0.003377
C49   C     C_R   0.814007 0.201321 0.518034 -0.208506
C50   C     C_R   0.186764 0.799040 0.478494 -0.205956
Cu1   Cu    Cu3+1 0.081740 0.475690 0.522610 1.015717
Cu2   Cu    Cu3+1 0.918260 0.524310 0.477390 1.018413
H1    H     H_    0.862818 0.338103 0.953151 0.162930
H2    H     H_    0.132167 0.653841 0.047273 0.163607
H3    H     H_    0.160960 0.370863 0.681030 0.172080
H4    H     H_    0.846108 0.643863 0.323429 0.171767
H5    H     H_    0.399750 0.613429 0.387722 0.243160
H6    H     H_    0.593486 0.374960 0.605852 0.243115
H7    H     H_    0.027873 0.345401 0.087546 0.148605
H8    H     H_    0.966534 0.646565 0.913181 0.150558
H9    H     H_    0.632895 0.837783 0.505154 0.151735
H10   H     H_    0.369535 0.163077 0.488059 0.150949
H11   H     H_    0.801478 0.969310 0.490150 0.197132
H12   H     H_    0.200386 0.034088 0.498828 0.191668
H13   H     H_    0.457715 0.790733 0.513622 0.191076
H14   H     H_    0.545035 0.208840 0.482983 0.189498
H15   H     H_    0.531016 0.674782 0.298072 0.198670
H16   H     H_    0.465014 0.317183 0.698094 0.198101
N1    N     N_R   0.795440 0.560790 0.443380 -0.229827
N2    N     N_R   0.204560 0.439210 0.556620 -0.230116
O1    O     O_R   0.977900 0.338120 0.529810 -0.547103
O2    O     O_R   0.022100 0.661880 0.470190 -0.545593
O3    O     O_R   0.839850 0.379180 0.491620 -0.533484
O4    O     O_R   0.160150 0.620820 0.508380 -0.534752
O5    O     O_R   0.069010 0.479460 0.640020 -0.602954
O6    O     O_R   0.930990 0.520540 0.359980 -0.602248
O7    O     O_R   0.930960 0.520530 0.601820 -0.521384
O8    O     O_R   0.069040 0.479470 0.398180 -0.530422
O9    O     O_3   0.246164 0.483953 0.411002 -0.590178
C51   C     C_3   0.201867 0.389713 0.376524 0.104460
H17   H     H_    0.143372 0.396404 0.321654 0.184969
H18   H     H_    0.162505 0.321922 0.424502 0.175014
C52   C     C_3   0.278943 0.369571 0.339139 -0.430666
H19   H     H_    0.320388 0.438920 0.294095 0.241357
H20   H     H_    0.333439 0.352084 0.393060 0.224733
C53   C     C_3   0.227839 0.278322 0.288993 -0.879283
H21   H     H_    0.186429 0.207687 0.332874 0.280753
H22   H     H_    0.285605 0.265024 0.263647 0.255878
H23   H     H_    0.174541 0.294006 0.232697 0.246987
O10   O     O_3   0.750751 0.501352 0.587041 -0.562940
C54   C     C_3   0.753172 0.572007 0.638358 -0.013794
H24   H     H_    0.763707 0.538335 0.708270 0.173155
H25   H     H_    0.681120 0.582377 0.628532 0.145792
C55   C     C_3   0.839683 0.677805 0.623022 -0.294489
H26   H     H_    0.912935 0.669531 0.638394 0.259107
H27   H     H_    0.831056 0.713367 0.553504 0.242593
C56   C     C_3   0.840235 0.749808 0.680752 -0.890071
H28   H     H_    0.768719 0.762017 0.665366 0.250109
H29   H     H_    0.903600 0.825437 0.668596 0.295099
H30   H     H_    0.849912 0.717034 0.751017 0.238324
O11   O     O_3   0.690993 0.699395 0.252052 -0.604044
C57   C     C_3   0.713825 0.669582 0.181905 0.040322
H31   H     H_    0.650449 0.661481 0.128306 0.163033
H32   H     H_    0.720684 0.593505 0.197895 0.131789
C58   C     C_3   0.809225 0.754082 0.147550 -0.327637
H33   H     H_    0.795439 0.825526 0.121081 0.234094
H34   H     H_    0.872165 0.771383 0.201704 0.226301
C59   C     C_3   0.840228 0.722394 0.075596 -0.897274
H35   H     H_    0.857425 0.652907 0.101616 0.289911
H36   H     H_    0.908751 0.785685 0.051527 0.257621
H37   H     H_    0.779158 0.706239 0.019813 0.252530
O12   O     O_3   0.319042 0.312565 0.753654 -0.619533
C60   C     C_3   0.231376 0.250310 0.794414 0.056552
H38   H     H_    0.242909 0.181102 0.833028 0.171529
H39   H     H_    0.162701 0.219500 0.747275 0.142824
C61   C     C_3   0.217605 0.307724 0.858536 -0.357326
H40   H     H_    0.278382 0.315896 0.914588 0.217106
H41   H     H_    0.223928 0.386258 0.826479 0.234027
C62   C     C_3   0.115837 0.250407 0.892964 -0.869904
H42   H     H_    0.053943 0.244548 0.838184 0.260089
H43   H     H_    0.109434 0.292964 0.940460 0.271430
H44   H     H_    0.108182 0.171976 0.926552 0.251352
O13   O     O_3   0.816978 0.482437 0.032331 -0.612690
C63   C     C_3   0.753478 0.492050 0.953807 0.040775
H45   H     H_    0.746198 0.437293 0.910667 0.145152
H46   H     H_    0.783632 0.572130 0.918242 0.139108
C64   C     C_3   0.648792 0.468135 0.975622 -0.330122
H47   H     H_    0.617676 0.388166 0.010915 0.232447
H48   H     H_    0.654346 0.521431 0.019187 0.214089
C65   C     C_3   0.577079 0.479094 0.892970 -0.889878
H49   H     H_    0.605826 0.559059 0.857379 0.250255
H50   H     H_    0.501885 0.461137 0.911091 0.261933
H51   H     H_    0.568747 0.424980 0.849101 0.267549
O14   O     O_3   0.177875 0.509737 0.968361 -0.609656
C66   C     C_3   0.238803 0.493751 0.046963 0.043423
H52   H     H_    0.207436 0.411444 0.077177 0.142976
H53   H     H_    0.244197 0.543132 0.094382 0.148470
C67   C     C_3   0.344760 0.520635 0.026653 -0.305381
H54   H     H_    0.340773 0.474225 0.977653 0.217228
H55   H     H_    0.378052 0.603327 0.998269 0.227241
C68   C     C_3   0.412717 0.499584 0.108846 -0.930238
H56   H     H_    0.421729 0.548774 0.157401 0.262089
H57   H     H_    0.487967 0.517010 0.091257 0.247447
H58   H     H_    0.380484 0.417401 0.138711 0.261977
Cl1   Cl    Cl    0.308358 0.759646 0.394563 -0.643529
Cl2   Cl    Cl    0.692166 0.236263 0.605442 -0.645113
Cl3   Cl    Cl    0.032174 0.849069 0.506344 -0.639991
Cl4   Cl    Cl    0.967506 0.157702 0.478716 -0.637027

loop_
_geom_bond_atom_site_label_1
_geom_bond_atom_site_label_2
_ccdc_geom_bond_type
C66   C67   S    
O11   C57   S    
C27   C29   A    
C24   C42   S    
C8    Cl1   S    
Cu1   O4    S    
C56   H28   S    
O13   C63   S    
C20   C30   A    
C59   H35   S    
C40   C46   S    
C58   H34   S    
C25   O10   S    
C1    O1    A    
C19   C21   A    
Cu1   O5    S    
C68   H57   S    
C57   H32   S    
C53   H22   S    
C15   H13   S    
C61   H40   S    
C57   C58   S    
C66   H53   S    
C9    C13   A    
C38   C45   S    
Cu2   N1    S    
C2    C50   S    
C17   H9    S    
C20   O12   S    
C40   C43   S    
C52   H19   S    
C61   H41   S    
Cu1   N2    S    
C4    C12   A    
C66   H52   S    
C2    O4    A    
C39   C45   S    
C60   C61   S    
C62   H43   S    
C5    Cl4   S    
C13   C14   A    
C5    C49   A    
C55   H26   S    
Cu1   O1    S    
C51   C52   S    
C2    O2    A    
O12   C60   S    
C56   H29   S    
C44   C46   S    
C45   C47   S    
C58   C59   S    
C46   C48   S    
C27   C31   A    
Cu1   Cu2   S    
C61   C62   S    
C28   C32   A    
C7    C49   A    
C4    C6    A    
Cu2   O3    S    
C10   C14   A    
C68   H58   S    
C54   H24   S    
C53   H21   S    
C24   O6    A    
C55   C56   S    
C3    C5    A    
C67   C68   S    
C23   O7    A    
C21   N1    A    
C37   C43   S    
C43   O14   S    
C65   H50   S    
C64   H48   S    
C38   C44   S    
Cu2   O2    S    
C54   H25   S    
C43   C45   S    
C31   C32   A    
C35   H15   S    
C41   C47   T    
C31   C34   A    
C16   C18   A    
C42   C48   T    
C6    C50   A    
C55   H27   S    
C9    C11   A    
C37   H7    S    
C10   C12   A    
C63   C64   S    
C38   H8    S    
C24   O8    A    
C52   H20   S    
C20   C22   A    
C40   H2    S    
C26   N2    A    
C65   H51   S    
C16   H14   S    
C39   C44   S    
C64   H47   S    
C19   C29   A    
C8    C50   A    
C56   H30   S    
C63   H46   S    
C60   H38   S    
C62   H44   S    
C15   C17   A    
C4    H12   S    
C11   C17   A    
C33   H5    S    
C44   O13   S    
C18   H10   S    
C23   O5    A    
C51   H17   S    
Cu2   O6    S    
C53   H23   S    
C21   H4    S    
C62   H42   S    
C36   H16   S    
C22   H3    S    
C67   H55   S    
C3    H11   S    
C25   C27   A    
C58   H33   S    
C29   C35   A    
O14   C66   S    
C26   C28   A    
C26   O9    S    
C23   C41   S    
C59   H37   S    
C30   C36   A    
C1    O3    A    
C32   C33   A    
C7    Cl2   S    
C28   C30   A    
C65   H49   S    
C64   C65   S    
C37   C39   S    
C68   H56   S    
C54   C55   S    
C38   C40   S    
C6    Cl3   S    
C19   O11   S    
O10   C54   S    
C39   H1    S    
C33   C35   A    
C51   H18   S    
C59   H36   S    
C34   C36   A    
C57   H31   S    
Cu1   O8    S    
C3    C11   A    
C67   H54   S    
O9    C51   S    
C7    C9    A    
C52   C53   S    
C25   N1    A    
C8    C10   A    
C13   C16   A    
C12   C18   A    
C34   H6    S    
C14   C15   A    
C37   C46   S    
C1    C49   S    
C22   N2    A    
Cu2   O7    S    
C63   H45   S    
C60   H39   S    
