data_mof_unit_1125.cif
_audit_creation_date              2012-12-10T18:04:28-0500
_audit_creation_method            fapswitch 2.2
_symmetry_space_group_name_H-M    P1
_symmetry_Int_Tables_number       1
_space_group_crystal_system       triclinic
_cell_length_a                    19.286532
_cell_length_b                    17.903664
_cell_length_c                    12.658143
_cell_angle_alpha                 89.838546
_cell_angle_beta                  99.549064
_cell_angle_gamma                 90.018283
_cell_volume                      4310.2714745

loop_
_atom_site_label
_atom_site_type_symbol
_atom_type_description
_atom_site_fract_x
_atom_site_fract_y
_atom_site_fract_z
_atom_type_partial_charge
C1    C     C_R   0.411030 0.102263 0.443623 0.870559
C2    C     C_R   0.413419 0.895454 0.445712 0.866857
C3    C     C_R   0.910023 0.601106 0.443054 0.849588
C4    C     C_R   0.908669 0.400065 0.442358 0.853805
C5    C     C_R   0.709339 0.253689 0.509283 0.067456
C6    C     C_R   0.738528 0.774720 0.535562 0.063982
C7    C     C_R   0.248384 0.716750 0.543536 0.060960
C8    C     C_R   0.240432 0.277870 0.531277 0.060160
C9    C     C_R   0.679360 0.315970 0.555153 0.135320
C10   C     C_R   0.781544 0.785716 0.637938 0.137911
C11   C     C_R   0.274064 0.730703 0.654513 0.135801
C12   C     C_R   0.273669 0.274659 0.640390 0.137270
C13   C     C_R   0.340442 0.765557 0.683701 0.055431
C14   C     C_R   0.344828 0.252304 0.664717 0.065062
C15   C     C_R   0.703832 0.388698 0.537811 0.063041
C16   C     C_R   0.852093 0.761354 0.654922 0.064020
C17   C     C_R   0.376354 0.788418 0.602678 -0.232279
C18   C     C_R   0.375094 0.218823 0.584621 -0.227977
C19   C     C_R   0.764906 0.396413 0.492352 -0.247250
C20   C     C_R   0.876917 0.723690 0.572761 -0.231436
C21   C     C_R   0.685393 0.181989 0.527368 -0.230246
C22   C     C_R   0.670563 0.803847 0.518760 -0.256530
C23   C     C_R   0.183224 0.682651 0.514953 -0.240404
C24   C     C_R   0.173359 0.308509 0.506976 -0.237664
C25   C     C_R   0.598736 0.231808 0.625267 -0.224059
C26   C     C_R   0.686940 0.855482 0.696934 -0.206486
C27   C     C_R   0.169123 0.671215 0.699844 -0.214672
C28   C     C_R   0.167062 0.323533 0.693596 -0.227853
C29   C     C_R   0.370919 0.829085 0.416193 -0.136037
C30   C     C_R   0.361041 0.161424 0.407610 -0.130536
C31   C     C_R   0.858447 0.340748 0.407453 -0.124939
C32   C     C_R   0.854358 0.653870 0.405008 -0.126282
C33   C     C_R   0.645914 0.987349 0.137914 0.013760
C34   C     C_R   0.148311 0.515917 0.144568 0.016273
C35   C     C_R   0.377751 0.999710 0.761314 -0.009805
C36   C     C_R   0.878161 0.499175 0.762871 0.011280
C37   C     C_R   0.351691 0.998281 0.856886 -0.285870
C38   C     C_R   0.853173 0.503979 0.859089 -0.272186
C39   C     C_R   0.590404 0.899361 0.557226 0.842976
C40   C     C_R   0.588667 0.102676 0.555527 0.840777
C41   C     C_R   0.088196 0.396564 0.555185 0.861049
C42   C     C_R   0.089982 0.601810 0.556446 0.844004
C43   C     C_R   0.398521 0.997406 0.953006 -0.187469
C44   C     C_R   0.900915 0.508084 0.954087 -0.186121
C45   C     C_R   0.472119 0.998766 0.953629 0.027434
C46   C     C_R   0.974552 0.505649 0.953646 0.034184
C47   C     C_R   0.495625 0.999567 0.854214 0.193350
C48   C     C_R   0.996782 0.503051 0.853925 0.191675
C49   C     C_R   0.522909 0.998744 0.048261 -0.069389
C50   C     C_R   0.025986 0.505925 0.047906 -0.057036
C51   C     C_R   0.596563 0.999845 0.042501 0.096967
C52   C     C_R   0.100348 0.511954 0.043393 0.080286
C53   C     C_R   0.616839 0.014700 0.942153 0.035945
C54   C     C_R   0.121142 0.511034 0.939536 0.039643
C55   C     C_R   0.567273 0.004523 0.850037 -0.252179
C56   C     C_R   0.068513 0.504113 0.848823 -0.243867
C57   C     C_R   0.503014 0.999382 0.149397 -0.064560
C58   C     C_R   0.004781 0.498927 0.147898 -0.063034
C59   C     C_R   0.621772 0.994100 0.235026 -0.014777
C60   C     C_R   0.121150 0.508062 0.238739 -0.030178
C61   C     C_R   0.624631 0.303573 0.614654 -0.217183
C62   C     C_R   0.753152 0.823023 0.719214 -0.221204
C63   C     C_R   0.232664 0.708303 0.731259 -0.198772
C64   C     C_R   0.234041 0.293004 0.720422 -0.213719
C65   C     C_R   0.627869 0.171501 0.578248 -0.042431
C66   C     C_R   0.647607 0.848728 0.594626 -0.041964
C67   C     C_R   0.146319 0.655073 0.591803 -0.061176
C68   C     C_R   0.141017 0.339254 0.586810 -0.048170
C69   C     C_R   0.352331 0.810903 0.307998 -0.236009
C70   C     C_R   0.333289 0.167318 0.298841 -0.230339
C71   C     C_R   0.877252 0.285235 0.339669 -0.235503
C72   C     C_R   0.814292 0.641796 0.303859 -0.238748
C73   C     C_R   0.305704 0.752844 0.276915 0.166400
C74   C     C_R   0.281378 0.219892 0.264037 0.165511
C75   C     C_R   0.837033 0.220546 0.320134 0.165050
C76   C     C_R   0.750142 0.677860 0.274032 0.160805
C77   C     C_R   0.269512 0.720762 0.353170 -0.224958
C78   C     C_R   0.249505 0.258086 0.339279 -0.227726
C79   C     C_R   0.781295 0.208913 0.376246 -0.219053
C80   C     C_R   0.724924 0.723586 0.348922 -0.236478
C81   C     C_R   0.286703 0.740488 0.463256 0.055656
C82   C     C_R   0.274542 0.248873 0.450129 0.055096
C83   C     C_R   0.762073 0.264548 0.445721 0.052019
C84   C     C_R   0.764538 0.735485 0.453072 0.058367
C85   C     C_R   0.345361 0.785946 0.494407 0.050231
C86   C     C_R   0.336996 0.208843 0.481419 0.051248
C87   C     C_R   0.795921 0.334249 0.450186 0.061350
C88   C     C_R   0.832497 0.705089 0.476544 0.047495
H1    H     H_    0.553601 0.224085 0.664853 0.144780
H2    H     H_    0.668704 0.889817 0.757119 0.148906
H3    H     H_    0.139784 0.651907 0.760572 0.163959
H4    H     H_    0.138227 0.339924 0.756284 0.156152
H5    H     H_    0.449297 0.000862 0.162153 0.126280
H6    H     H_    0.951118 0.491452 0.158747 0.127541
H7    H     H_    0.341932 0.000052 0.685906 0.154013
H8    H     H_    0.842412 0.496394 0.687833 0.136125
H9    H     H_    0.375248 0.995670 0.024587 0.131500
H10   H     H_    0.878154 0.514829 0.025585 0.130994
H11   H     H_    0.295534 0.997530 0.856546 0.153376
H12   H     H_    0.797241 0.505486 0.860436 0.150941
H13   H     H_    0.585516 0.005947 0.774962 0.216577
H14   H     H_    0.083523 0.500221 0.772394 0.220384
H15   H     H_    0.600082 0.348920 0.650876 0.151628
H16   H     H_    0.782572 0.830918 0.798744 0.144146
H17   H     H_    0.249035 0.716180 0.816015 0.127932
H18   H     H_    0.254007 0.284387 0.803253 0.149760
H19   H     H_    0.708825 0.132908 0.498437 0.131817
H20   H     H_    0.634949 0.796924 0.444576 0.141853
H21   H     H_    0.160012 0.676453 0.432015 0.157064
H22   H     H_    0.145895 0.311688 0.425709 0.151978
H23   H     H_    0.375179 0.840634 0.247407 0.158221
H24   H     H_    0.353953 0.133463 0.240310 0.154548
H25   H     H_    0.924328 0.291390 0.304038 0.156481
H26   H     H_    0.831004 0.600760 0.250479 0.149477
H27   H     H_    0.751674 0.157825 0.360127 0.131875
H28   H     H_    0.674286 0.748502 0.322775 0.122921
H29   H     H_    0.231030 0.678649 0.325809 0.116346
H30   H     H_    0.208873 0.297800 0.309380 0.121322
H31   H     H_    0.428871 0.810498 0.625733 0.181640
H32   H     H_    0.429660 0.201997 0.602725 0.161085
H33   H     H_    0.785369 0.452031 0.483280 0.150711
H34   H     H_    0.931677 0.707070 0.585682 0.160596
H35   H     H_    0.657694 0.991239 0.310226 0.134923
H36   H     H_    0.154777 0.510706 0.316270 0.149838
N1    N     N_R   0.552340 0.000000 0.237260 -0.116427
N2    N     N_R   0.052340 0.500000 0.237260 -0.119206
N3    N     N_R   0.448170 0.000000 0.762060 -0.134301
N4    N     N_R   0.948170 0.500000 0.762060 -0.126601
O1    O     O_R   0.448200 0.076800 0.373930 -0.611798
O2    O     O_R   0.448200 0.923200 0.373930 -0.617630
O3    O     O_R   0.948200 0.576800 0.373930 -0.610049
O4    O     O_R   0.948200 0.423200 0.373930 -0.617609
O5    O     O_R   0.414750 0.076790 0.542400 -0.615027
O6    O     O_R   0.414750 0.923210 0.542400 -0.616512
O7    O     O_R   0.914750 0.576790 0.542400 -0.616195
O8    O     O_R   0.914750 0.423210 0.542400 -0.603238
O9    O     O_R   0.585240 0.923200 0.457600 -0.616947
O10   O     O_R   0.585240 0.076800 0.457600 -0.602015
O11   O     O_R   0.085240 0.423200 0.457600 -0.616830
O12   O     O_R   0.085240 0.576800 0.457600 -0.615425
O13   O     O_R   0.551780 0.923190 0.626070 -0.636769
O14   O     O_R   0.551780 0.076810 0.626070 -0.653045
O15   O     O_R   0.051780 0.423190 0.626070 -0.633161
O16   O     O_R   0.051780 0.576810 0.626070 -0.641631
Zn1   Zn    Zn3+2 0.522330 0.000000 0.387520 0.928673
Zn2   Zn    Zn3+2 0.022330 0.500000 0.387520 0.924302
Zn3   Zn    Zn3+2 0.477660 0.000000 0.612480 0.904253
Zn4   Zn    Zn3+2 0.977660 0.500000 0.612480 0.920540
C89   C     C_3   0.685569 0.053094 0.929280 -0.453618
C90   C     C_3   0.672498 0.129590 0.874089 -0.328117
C91   C     C_3   0.741380 0.167717 0.861064 -0.875091
H37   H     H_    0.774387 0.177061 0.940567 0.255767
H38   H     H_    0.770813 0.132842 0.811081 0.262125
H39   H     H_    0.729974 0.222611 0.820841 0.261892
H40   H     H_    0.640460 0.123227 0.793696 0.239954
H41   H     H_    0.643306 0.166101 0.922466 0.224594
H42   H     H_    0.718437 0.065274 0.007441 0.211609
H43   H     H_    0.715560 0.016471 0.882199 0.195169
C92   C     C_3   0.197678 0.519156 0.923205 -0.453540
C93   C     C_3   0.217626 0.497250 0.814943 -0.367563
C94   C     C_3   0.295820 0.509935 0.813705 -0.880997
H44   H     H_    0.308824 0.570201 0.823653 0.270028
H45   H     H_    0.328283 0.477624 0.878936 0.257076
H46   H     H_    0.308900 0.491097 0.735835 0.257161
H47   H     H_    0.207012 0.437558 0.802766 0.235363
H48   H     H_    0.187827 0.528964 0.747441 0.232720
H49   H     H_    0.212645 0.578656 0.937119 0.210791
H50   H     H_    0.229849 0.481081 0.980078 0.228049
C95   C     C_3   0.721139 0.960459 0.140743 -0.480157
C96   C     C_3   0.737684 0.887962 0.205531 -0.324623
C97   C     C_3   0.814304 0.865017 0.208819 -0.894282
H51   H     H_    0.826377 0.858858 0.126479 0.252405
H52   H     H_    0.849723 0.907496 0.252653 0.269601
H53   H     H_    0.824679 0.811031 0.251533 0.269549
H54   H     H_    0.729034 0.894838 0.289461 0.222600
H55   H     H_    0.702527 0.842738 0.168200 0.226361
H56   H     H_    0.731299 0.947557 0.059147 0.216181
H57   H     H_    0.757597 0.005170 0.176265 0.207265
C98   C     C_3   0.226513 0.532587 0.167338 -0.470987
C99   C     C_3   0.270175 0.462750 0.203705 -0.337201
C100  C     C_3   0.347906 0.481962 0.236652 -0.886382
H58   H     H_    0.370641 0.500128 0.165790 0.266947
H59   H     H_    0.354493 0.526787 0.297955 0.260411
H60   H     H_    0.377381 0.432471 0.272767 0.242963
H61   H     H_    0.251467 0.436664 0.273621 0.220312
H62   H     H_    0.263583 0.421362 0.138327 0.232630
H63   H     H_    0.246071 0.562917 0.104306 0.210360
H64   H     H_    0.236388 0.573089 0.234182 0.198482
C101  C     C_3   0.373896 0.787163 0.796645 -0.416850
C102  C     C_3   0.439700 0.740281 0.836716 -0.340472
C103  C     C_3   0.480862 0.772615 0.940054 -0.880301
H65   H     H_    0.504930 0.826845 0.923267 0.267083
H66   H     H_    0.445915 0.781810 0.000136 0.271813
H67   H     H_    0.523350 0.733427 0.974143 0.241756
H68   H     H_    0.423916 0.681862 0.850028 0.222732
H69   H     H_    0.475285 0.738943 0.776146 0.223221
H70   H     H_    0.389593 0.846773 0.795220 0.230044
H71   H     H_    0.337353 0.785086 0.854931 0.182445
C104  C     C_3   0.392692 0.268219 0.769489 -0.457852
C105  C     C_3   0.414145 0.196148 0.832700 -0.305629
C106  C     C_3   0.471600 0.210972 0.928722 -0.894379
H72   H     H_    0.520205 0.230633 0.901024 0.251842
H73   H     H_    0.454458 0.253773 0.981987 0.270234
H74   H     H_    0.483839 0.158733 0.975399 0.260503
H75   H     H_    0.367613 0.171040 0.860347 0.224831
H76   H     H_    0.434908 0.154831 0.780647 0.240592
H77   H     H_    0.440765 0.296300 0.750944 0.202986
H78   H     H_    0.368883 0.308811 0.818255 0.205419
C107  C     C_3   0.661664 0.458088 0.554273 -0.418790
C108  C     C_3   0.677131 0.487318 0.669462 -0.352705
C109  C     C_3   0.620867 0.542518 0.691030 -0.888163
H79   H     H_    0.617692 0.590357 0.634309 0.269452
H80   H     H_    0.568837 0.514511 0.682460 0.256926
H81   H     H_    0.634380 0.564193 0.773911 0.250929
H82   H     H_    0.680327 0.440772 0.728287 0.220701
H83   H     H_    0.728099 0.516955 0.681400 0.215999
H84   H     H_    0.673185 0.503395 0.499348 0.197694
H85   H     H_    0.604702 0.445870 0.530395 0.203221
C110  C     C_3   0.902412 0.772612 0.759407 -0.433804
C111  C     C_3   0.892072 0.711531 0.840581 -0.319604
C112  C     C_3   0.942094 0.721633 0.946280 -0.881115
H86   H     H_    0.997557 0.718239 0.933196 0.262422
H87   H     H_    0.932907 0.776491 0.982353 0.256620
H88   H     H_    0.932833 0.676750 0.003066 0.253785
H89   H     H_    0.837234 0.712325 0.856531 0.218116
H90   H     H_    0.902026 0.656122 0.806857 0.244478
H91   H     H_    0.957743 0.770178 0.745028 0.202635
H92   H     H_    0.896237 0.829166 0.792355 0.193041
C113  C     C_3   0.298293 0.724257 0.163766 -0.443212
C114  C     C_3   0.366759 0.684443 0.148997 -0.311038
C115  C     C_3   0.363219 0.650172 0.038209 -0.935736
H93   H     H_    0.333407 0.597432 0.030729 0.262525
H94   H     H_    0.338374 0.689373 0.975597 0.268904
H95   H     H_    0.417264 0.636667 0.025008 0.260824
H96   H     H_    0.410770 0.725266 0.161043 0.214776
H97   H     H_    0.379486 0.639964 0.210334 0.229620
H98   H     H_    0.252794 0.686098 0.145755 0.193685
H99   H     H_    0.288105 0.771960 0.106845 0.191589
C116  C     C_3   0.266609 0.240664 0.147960 -0.433957
C117  C     C_3   0.331560 0.280675 0.120419 -0.328944
C118  C     C_3   0.317997 0.310498 0.007320 -0.952761
H100  H     H_    0.315266 0.261464 0.954353 0.272786
H101  H     H_    0.267996 0.342364 0.990330 0.263304
H102  H     H_    0.361905 0.347543 0.994000 0.255666
H103  H     H_    0.346705 0.327219 0.176690 0.236635
H104  H     H_    0.376928 0.241552 0.128352 0.224420
H105  H     H_    0.255104 0.189630 0.098257 0.197134
H106  H     H_    0.220085 0.278190 0.131174 0.196253
C119  C     C_3   0.855070 0.163246 0.241904 -0.437067
C120  C     C_3   0.893605 0.096380 0.300491 -0.337199
C121  C     C_3   0.924164 0.045908 0.222742 -0.900286
H107  H     H_    0.881995 0.025745 0.158621 0.263004
H108  H     H_    0.963934 0.076793 0.185540 0.263682
H109  H     H_    0.950240 0.997050 0.266705 0.250903
H110  H     H_    0.937384 0.116346 0.362431 0.230589
H111  H     H_    0.856552 0.063555 0.340864 0.215754
H112  H     H_    0.806186 0.144146 0.189676 0.188748
H113  H     H_    0.888855 0.189152 0.188623 0.204502
C122  C     C_3   0.705484 0.661170 0.166708 -0.432883
C123  C     C_3   0.742156 0.683374 0.072363 -0.339135
C124  C     C_3   0.695994 0.665388 0.965497 -0.899908
H114  H     H_    0.684635 0.604577 0.960051 0.257352
H115  H     H_    0.645797 0.696877 0.957073 0.265116
H116  H     H_    0.723476 0.681476 0.898504 0.251057
H117  H     H_    0.753579 0.744084 0.075086 0.236014
H118  H     H_    0.792680 0.652797 0.076652 0.219757
H119  H     H_    0.693934 0.600294 0.162791 0.199924
H120  H     H_    0.654253 0.690940 0.158652 0.193405

loop_
_geom_bond_atom_site_label_1
_geom_bond_atom_site_label_2
_ccdc_geom_bond_type
C101  H71   S    
C83   C87   A    
C97   H51   S    
C39   O9    A    
O11   Zn2   S    
C102  C103  S    
C79   H27   S    
C11   C13   A    
C95   C96   S    
C14   C18   A    
C53   C55   A    
C116  C117  S    
C34   C60   A    
C37   H11   S    
C119  H113  S    
O16   Zn4   S    
C33   C95   S    
C39   C66   S    
O8    Zn4   S    
C73   C113  S    
C94   H44   S    
N2    Zn2   S    
C13   C101  S    
C121  H107  S    
C4    O4    A    
C96   H55   S    
C100  H58   S    
C15   C19   A    
O6    Zn3   S    
C97   H52   S    
C119  C120  S    
C2    O6    A    
C16   C110  S    
C2    C29   S    
C9    C61   A    
C107  H85   S    
O9    Zn1   S    
C69   C73   A    
C61   H15   S    
C41   O15   A    
C112  H88   S    
C40   O14   A    
C123  H117  S    
C57   N1    A    
C124  H114  S    
C12   C64   A    
C22   H20   S    
C121  H108  S    
C98   H63   S    
C96   C97   S    
O10   Zn1   S    
C108  H82   S    
C6    C22   A    
C105  H75   S    
C72   H26   S    
C49   C57   A    
C92   H50   S    
C71   H25   S    
O3    Zn2   S    
C116  H105  S    
C118  H100  S    
C106  H72   S    
C91   H39   S    
C23   C67   A    
C74   C116  S    
C60   H36   S    
C78   C82   A    
C22   C66   A    
C122  H120  S    
C94   H45   S    
C54   C92   S    
C44   H10   S    
C109  H79   S    
C41   O11   A    
C44   C46   A    
C105  C106  S    
C49   C51   A    
C40   O10   A    
C70   C74   A    
C3    C32   S    
C50   C52   A    
C91   H37   S    
C27   H3    S    
O5    Zn3   S    
C113  H98   S    
C45   C49   A    
C110  H92   S    
C30   C86   A    
C89   H43   S    
C20   H34   S    
C48   C56   A    
C72   C76   A    
C4    O8    A    
C21   C65   A    
C31   C71   A    
C26   C62   A    
C1    O1    A    
C104  C105  S    
C33   C59   A    
C90   H41   S    
O2    Zn1   S    
C53   C89   S    
C106  H73   S    
C91   H38   S    
C34   C98   S    
C10   C62   A    
C75   C119  S    
C1    O5    A    
C17   C85   A    
C95   H56   S    
C111  C112  S    
C30   C70   A    
C52   C54   A    
C41   C68   S    
C29   C69   A    
C96   H54   S    
C45   C47   A    
C59   H35   S    
O15   Zn4   S    
C23   H21   S    
C76   C122  S    
C46   C48   A    
C6    C84   A    
C42   O12   A    
C103  H65   S    
C26   C66   A    
C39   O13   A    
C31   C87   A    
C97   H53   S    
O4    Zn2   S    
C28   H4    S    
C100  H59   S    
O12   Zn2   S    
C110  C111  S    
C124  H115  S    
C17   H31   S    
N4    Zn4   S    
C121  H109  S    
C25   C61   A    
C98   H64   S    
C120  C121  S    
C82   C86   A    
C24   C68   A    
C117  H104  S    
C62   H16   S    
C108  H83   S    
C116  H106  S    
C118  H101  S    
C50   C58   A    
C37   C43   A    
C7    C11   A    
C103  H66   S    
C38   C44   A    
C113  C114  S    
C54   C56   A    
C48   N4    A    
C112  H86   S    
C36   H8    S    
C78   H30   S    
C92   C93   S    
C2    O2    A    
C77   C81   A    
C16   C20   A    
C104  H77   S    
C107  C108  S    
C20   C88   A    
C24   H22   S    
C114  H96   S    
C115  H94   S    
C18   C86   A    
C93   H47   S    
C114  H97   S    
C43   C45   A    
C21   H19   S    
C99   H62   S    
C102  H68   S    
C28   C64   A    
C38   H12   S    
C7    C81   A    
C12   C14   A    
C58   N2    A    
C93   H48   S    
C40   C65   S    
C42   O16   A    
C117  H103  S    
C106  H74   S    
C3    O3    A    
C26   H2    S    
C123  H118  S    
C122  C123  S    
C18   H32   S    
C95   H57   S    
C36   N4    A    
C94   H46   S    
C99   C100  S    
C35   C37   A    
C47   C55   A    
C100  H60   S    
C101  H70   S    
C120  H110  S    
C109  H80   S    
C46   C50   A    
C19   H33   S    
C104  H78   S    
C120  H111  S    
C28   C68   A    
C34   C52   A    
O14   Zn3   S    
C80   H28   S    
C43   H9    S    
C119  H112  S    
C123  C124  S    
C6    C10   A    
C124  H116  S    
C76   C80   A    
C5    C83   A    
C64   H18   S    
C57   H5    S    
C102  H69   S    
C33   C51   A    
C14   C104  S    
C55   H13   S    
C25   H1    S    
C13   C17   A    
C90   H40   S    
C118  H102  S    
C107  H84   S    
C93   C94   S    
C35   N3    A    
C36   C38   A    
C58   H6    S    
C19   C87   A    
C29   C85   A    
C114  C115  S    
C112  H87   S    
N1    Zn1   S    
C59   N1    A    
C80   C84   A    
C71   C75   A    
C69   H23   S    
C42   C67   S    
C84   C88   A    
C89   H42   S    
C47   N3    A    
O7    Zn4   S    
C122  H119  S    
C7    C23   A    
C111  H90   S    
C60   N2    A    
C1    C30   S    
C8    C24   A    
C92   H49   S    
C111  H89   S    
C115  H95   S    
C3    O7    A    
O1    Zn1   S    
C77   H29   S    
C9    C15   A    
C101  C102  S    
C70   H24   S    
C105  H76   S    
C103  H67   S    
C4    C31   S    
C27   C67   A    
C99   H61   S    
O13   Zn3   S    
C51   C53   A    
C56   H14   S    
C98   C99   S    
C79   C83   A    
C8    C82   A    
C109  H81   S    
C5    C21   A    
C15   C107  S    
C108  C109  S    
C74   C78   A    
N3    Zn3   S    
C115  H93   S    
C117  C118  S    
C25   C65   A    
C73   C77   A    
C90   C91   S    
C27   C63   A    
C10   C16   A    
C5    C9    A    
C110  H91   S    
C113  H99   S    
C89   C90   S    
C11   C63   A    
C75   C79   A    
C81   C85   A    
C8    C12   A    
C63   H17   S    
C35   H7    S    
C32   C72   A    
C32   C88   A    
