data_mof_unit_1320.cif
_audit_creation_date              2012-12-11T17:10:15-0500
_audit_creation_method            fapswitch 2.2
_symmetry_space_group_name_H-M    P1
_symmetry_Int_Tables_number       1
_space_group_crystal_system       triclinic
_cell_length_a                    14.783843
_cell_length_b                    14.889444
_cell_length_c                    14.879305
_cell_angle_alpha                 109.484382
_cell_angle_beta                  109.827806
_cell_angle_gamma                 109.03377
_cell_volume                      2523.32501766

loop_
_atom_site_label
_atom_site_type_symbol
_atom_type_description
_atom_site_fract_x
_atom_site_fract_y
_atom_site_fract_z
_atom_type_partial_charge
C1    C     C_R   0.185393 0.278972 0.253753 -0.140453
C2    C     C_R   0.451366 0.449919 0.776826 0.068845
C3    C     C_R   0.565426 0.196910 0.498605 0.081026
C4    C     C_R   0.196804 0.569464 0.496663 0.079488
C5    C     C_R   0.474389 0.720980 0.406893 -0.146148
C6    C     C_R   0.815300 0.567578 0.593165 -0.132467
C7    C     C_R   0.494519 0.402539 0.195731 -0.169952
C8    C     C_R   0.706979 0.799106 0.803409 -0.165404
C9    C     C_R   0.801494 0.710241 0.805184 -0.116891
C10   C     C_R   0.404002 0.495207 0.194675 -0.139778
C11   C     C_R   0.563972 0.815134 0.591240 -0.127504
C12   C     C_R   0.525522 0.432611 0.746689 -0.144694
C13   C     C_R   0.723369 0.478309 0.409143 -0.088379
C14   C     C_R   0.548129 0.824736 0.497847 0.070261
C15   C     C_R   0.826985 0.557920 0.502076 0.060500
C16   C     C_R   0.433573 0.432415 0.131227 0.078690
C17   C     C_R   0.801906 0.803232 0.867996 0.077698
C18   C     C_R   0.095216 0.596593 0.182819 -0.105935
C19   C     C_R   0.096190 0.621782 0.282500 -0.210259
C20   C     C_R   0.017251 0.544624 0.289456 -0.036263
C21   C     C_R   0.935754 0.441722 0.193835 0.459623
C22   C     C_R   0.935667 0.417525 0.094411 -0.205709
C23   C     C_R   0.504769 0.200867 0.408061 -0.150058
C24   C     C_R   0.015133 0.494613 0.088964 -0.173388
C25   C     C_R   0.928941 0.574498 0.401728 -0.162698
C26   C     C_R   0.930935 0.609826 0.502296 0.022462
C27   C     C_R   0.034620 0.676719 0.600561 0.033762
C28   C     C_R   0.125635 0.670593 0.596529 -0.244082
C29   C     C_R   0.115604 0.607739 0.495474 0.050291
C30   C     C_R   0.021273 0.574230 0.396783 0.106235
C31   C     C_R   0.001081 0.824220 0.699208 -0.145264
C32   C     C_R   0.020303 0.905513 0.795932 -0.098568
C33   C     C_R   0.090202 0.922956 0.898268 -0.084646
C34   C     C_R   0.290477 0.597349 0.589311 -0.139311
C35   C     C_R   0.139197 0.857628 0.904122 -0.123152
C36   C     C_R   0.120115 0.775984 0.807561 -0.172254
C37   C     C_R   0.051324 0.758914 0.703941 0.113978
C38   C     C_R   0.450921 0.345701 0.877062 0.155715
C39   C     C_R   0.406370 0.401051 0.832878 0.040486
C40   C     C_R   0.332572 0.425603 0.861730 -0.196377
C41   C     C_R   0.328476 0.422013 0.953183 -0.202389
C42   C     C_R   0.397574 0.393025 0.014594 0.040059
C43   C     C_R   0.446082 0.341342 0.966505 0.129096
C44   C     C_3   0.558660 0.352703 0.016099 -0.453321
C45   C     C_R   0.595521 0.290035 0.590823 -0.141010
C46   C     C_3   0.564482 0.358138 0.918861 -0.515168
C47   C     C_R   0.547145 0.925251 0.394186 0.170547
C48   C     C_R   0.592656 0.925380 0.493642 0.029023
C49   C     C_R   0.666694 0.027367 0.591402 -0.202037
C50   C     C_R   0.670393 0.122783 0.592105 -0.198177
C51   C     C_R   0.600817 0.115631 0.494771 0.031957
C52   C     C_R   0.551656 0.019380 0.394828 0.178210
C53   C     C_3   0.438392 0.957321 0.295485 -0.532083
C54   C     C_3   0.432931 0.854442 0.295008 -0.531943
C55   C     C_R   0.967963 0.075458 0.119051 0.177837
C56   C     C_R   0.199010 0.503853 0.407077 -0.123575
C57   C     C_R   0.067048 0.074903 0.167341 0.026518
C58   C     C_R   0.062211 0.972815 0.141403 -0.216704
C59   C     C_R   0.967561 0.877185 0.049059 -0.197145
C60   C     C_R   0.878394 0.884614 0.984394 0.025875
C61   C     C_R   0.874628 0.981314 0.029108 0.163638
C62   C     C_3   0.840036 0.042797 0.975747 -0.520786
C63   C     C_3   0.942457 0.145596 0.073419 -0.507300
C64   C     C_R   0.435480 0.527429 0.751182 -0.120422
C65   C     C_R   0.276012 0.184839 0.248940 -0.132270
C66   C     C_R   0.172594 0.175287 0.223825 0.065965
H1    H     H_    0.123586 0.302714 0.250553 0.118950
H2    H     H_    0.877976 0.618039 0.678962 0.118292
H3    H     H_    0.513707 0.338060 0.167843 0.116193
H4    H     H_    0.670005 0.846083 0.830953 0.107038
H5    H     H_    0.854725 0.679072 0.834770 0.089505
H6    H     H_    0.342548 0.518349 0.165636 0.087422
H7    H     H_    0.616836 0.879492 0.676454 0.095312
H8    H     H_    0.701241 0.448195 0.323823 0.121118
H9    H     H_    0.014682 0.475216 0.011881 0.124011
H10   H     H_    0.156670 0.656184 0.178355 0.114670
H11   H     H_    0.158965 0.701230 0.354627 0.135568
H12   H     H_    0.552886 0.374468 0.749488 0.111558
H13   H     H_    0.874207 0.338506 0.021221 0.155150
H14   H     H_    0.853975 0.541880 0.326047 0.144543
H15   H     H_    0.203425 0.713797 0.672538 0.122230
H16   H     H_    0.948140 0.813179 0.620657 0.115368
H17   H     H_    0.981744 0.955674 0.791605 0.110190
H18   H     H_    0.106458 0.987277 0.972974 0.122626
H19   H     H_    0.192518 0.870704 0.983608 0.108642
H20   H     H_    0.158665 0.726074 0.813803 0.108263
H21   H     H_    0.289451 0.460873 0.823965 0.127175
H22   H     H_    0.485414 0.153634 0.324520 0.106631
H23   H     H_    0.282437 0.454784 0.982603 0.123337
H24   H     H_    0.620764 0.430792 0.095191 0.201990
H25   H     H_    0.555506 0.277474 0.017229 0.212966
H26   H     H_    0.629882 0.439588 0.943568 0.201778
H27   H     H_    0.565357 0.286338 0.864509 0.196133
H28   H     H_    0.716735 0.197855 0.670575 0.126103
H29   H     H_    0.376992 0.975191 0.313228 0.198335
H30   H     H_    0.440344 0.961248 0.222799 0.194131
H31   H     H_    0.368504 0.814637 0.312860 0.197627
H32   H     H_    0.323807 0.658297 0.673450 0.087069
H33   H     H_    0.431018 0.798946 0.221681 0.193219
H34   H     H_    0.135151 0.967920 0.181882 0.130112
H35   H     H_    0.970713 0.801816 0.021463 0.131892
H36   H     H_    0.842256 0.023195 0.897790 0.192303
H37   H     H_    0.002642 0.183859 0.050491 0.192773
H38   H     H_    0.923925 0.202348 0.124518 0.247687
H39   H     H_    0.656824 0.321691 0.674920 0.086807
H40   H     H_    0.147584 0.475176 0.321521 0.114641
H41   H     H_    0.382080 0.559749 0.762313 0.094034
H42   H     H_    0.297004 0.120424 0.237120 0.092058
H43   H     H_    0.447176 0.696704 0.321579 0.111883
N1    N     N_R   0.291070 0.347930 0.293870 -0.040912
N2    N     N_R   0.708930 0.502750 0.556810 -0.044731
N3    N     N_R   0.502760 0.445970 0.293860 -0.040861
N4    N     N_R   0.652110 0.708890 0.706130 -0.038786
N5    N     N_R   0.708930 0.652070 0.706130 -0.042170
N6    N     N_R   0.445950 0.502780 0.293850 -0.038608
N7    N     N_R   0.502760 0.708900 0.556790 -0.040166
N8    N     N_R   0.652110 0.445950 0.443190 -0.044583
N9    N     N_R   0.554050 0.497220 0.706150 -0.040889
N10   N     N_R   0.497240 0.291100 0.443210 -0.037615
N11   N     N_R   0.347890 0.554050 0.556810 -0.039449
N12   N     N_R   0.554050 0.347900 0.556830 -0.038715
N13   N     N_R   0.291070 0.497250 0.443190 -0.044045
N14   N     N_R   0.497240 0.554030 0.706140 -0.039885
N15   N     N_R   0.347890 0.291110 0.293870 -0.038078
N16   N     N_R   0.445950 0.652100 0.443170 -0.040354
Ni1   Ni    Ni4+2 0.369690 0.500010 0.369700 0.212473
Ni2   Ni    Ni4+2 0.630310 0.499990 0.630300 0.209391
Ni3   Ni    Ni4+2 0.500000 0.369720 0.369720 0.217636
Ni4   Ni    Ni4+2 0.500000 0.630280 0.630280 0.209282
Cl1   Cl    Cl    0.835689 0.339711 0.196292 -0.749457
H44   H     H_    0.710421 0.032376 0.669336 0.127323
H45   H     H_    0.762541 0.040343 0.971125 0.212042

loop_
_geom_bond_atom_site_label_1
_geom_bond_atom_site_label_2
_ccdc_geom_bond_type
C41   H23   S    
C53   H29   S    
C25   H14   S    
C41   C42   A    
C3    C23   A    
C35   C36   A    
C57   C66   S    
C2    C12   A    
C20   C30   S    
C53   C54   S    
C49   H44   S    
C28   C29   A    
C26   C27   A    
C62   C63   S    
N6    Ni1   S    
N4    Ni4   S    
C18   C24   A    
C9    N5    A    
C40   H21   S    
C36   C37   A    
C22   H13   S    
N12   Ni2   S    
C23   N10   A    
C38   C39   A    
C33   C35   A    
C11   C14   A    
C46   H26   S    
C7    N3    A    
C18   C19   A    
C6    N2    A    
C65   N15   A    
C19   H11   S    
N1    N15   A    
C6    C15   A    
C2    C39   S    
N7    Ni4   S    
C19   C20   A    
C44   C46   S    
C12   H12   S    
C54   H31   S    
C65   H42   S    
C4    C29   S    
C45   H39   S    
N15   Ni3   S    
N10   Ni3   S    
C6    H2    S    
C59   C60   A    
C21   C22   A    
C4    C56   A    
C53   H30   S    
N8    Ni3   S    
C2    C64   A    
C1    C66   A    
N10   N12   A    
C34   N11   A    
C4    C34   A    
N3    Ni3   S    
N11   Ni4   S    
C59   H35   S    
C62   H45   S    
C58   H34   S    
C63   H37   S    
C11   H7    S    
C39   C40   A    
C3    C51   S    
C50   H28   S    
C15   C26   S    
C14   C48   S    
C36   H20   S    
C58   C59   A    
C3    C45   A    
C31   C37   A    
C55   C63   S    
C60   C61   A    
C56   N13   A    
N13   Ni1   S    
C43   C44   S    
C29   C30   A    
C1    N1    A    
C47   C48   A    
C50   C51   A    
C13   H8    S    
C11   N7    A    
C31   H16   S    
C56   H40   S    
C5    C14   A    
C44   H25   S    
C8    N4    A    
N1    Ni1   S    
C47   C54   S    
C12   N9    A    
C9    C17   A    
C40   C41   A    
C65   C66   A    
C23   H22   S    
C13   C15   A    
N2    Ni2   S    
N16   Ni1   S    
C22   C24   A    
C54   H33   S    
N9    Ni2   S    
C16   C42   S    
C44   H24   S    
C52   C53   S    
N11   N13   A    
C64   H41   S    
N4    N5    A    
C25   C30   A    
C32   H17   S    
C7    C16   A    
C18   H10   S    
C28   H15   S    
C31   C32   A    
C9    H5    S    
C63   H38   S    
C7    H3    S    
C13   N8    A    
C24   H9    S    
C47   C52   A    
C1    H1    S    
C64   N14   A    
C8    H4    S    
C8    C17   A    
N2    N8    A    
N7    N16   A    
C45   N12   A    
C32   C33   A    
C55   C57   A    
C25   C26   A    
C51   C52   A    
C10   C16   A    
N5    Ni2   S    
C35   H19   S    
C57   C58   A    
C46   H27   S    
C5    H43   S    
C27   C37   S    
C48   C49   A    
C55   C61   A    
C34   H32   S    
N9    N14   A    
C61   C62   S    
C33   H18   S    
C21   Cl1   S    
C38   C46   S    
C17   C60   S    
C38   C43   A    
C20   C21   A    
C49   C50   A    
C42   C43   A    
C5    N16   A    
C27   C28   A    
N3    N6    A    
N14   Ni4   S    
C10   N6    A    
C62   H36   S    
C10   H6    S    
