data_mof_unit_4299.cif
_audit_creation_date              2012-12-10T17:28:36-0500
_audit_creation_method            fapswitch 2.2
_symmetry_space_group_name_H-M    P1
_symmetry_Int_Tables_number       1
_space_group_crystal_system       triclinic
_cell_length_a                    10.630223
_cell_length_b                    11.92809
_cell_length_c                    12.912789
_cell_angle_alpha                 93.083962
_cell_angle_beta                  90.223084
_cell_angle_gamma                 85.156643
_cell_volume                      1629.10958542

loop_
_atom_site_label
_atom_site_type_symbol
_atom_type_description
_atom_site_fract_x
_atom_site_fract_y
_atom_site_fract_z
_atom_type_partial_charge
C1    C     C_R   0.497754 0.521935 0.700556 0.919008
C2    C     C_R   0.511146 0.560476 0.132516 -0.183750
C3    C     C_R   0.496016 0.446069 0.974350 -0.004673
C4    C     C_R   0.506516 0.553671 0.025641 -0.006213
C5    C     C_R   0.409527 0.953920 0.385025 -0.281095
C6    C     C_R   0.590481 0.046078 0.614979 -0.275497
C7    C     C_R   0.415195 0.837708 0.398087 0.049534
C8    C     C_R   0.584808 0.162292 0.601914 0.052602
C9    C     C_R   0.534094 0.858748 0.552733 -0.023659
C10   C     C_R   0.465913 0.141249 0.447267 -0.033941
C11   C     C_R   0.531552 0.975995 0.542584 0.077369
C12   C     C_R   0.502389 0.478058 0.299449 0.918957
C13   C     C_R   0.468461 0.024002 0.457417 0.073343
C14   C     C_R   0.739747 0.500920 0.515562 0.890378
C15   C     C_R   0.260227 0.499088 0.484501 0.892973
C16   C     C_R   0.910968 0.292366 0.548120 -0.103777
C17   C     C_R   0.088970 0.707682 0.452138 -0.102128
C18   C     C_R   0.977740 0.190629 0.516563 -0.132585
C19   C     C_R   0.022185 0.809406 0.483722 -0.128104
C20   C     C_R   0.085211 0.190948 0.455611 -0.127527
C21   C     C_R   0.914706 0.809059 0.544660 -0.131149
C22   C     C_R   0.130981 0.293103 0.433367 -0.106621
C23   C     C_R   0.503423 0.464862 0.188345 -0.144255
C24   C     C_R   0.868943 0.706891 0.566864 -0.111452
C25   C     C_R   0.069284 0.396662 0.472107 0.085994
C26   C     C_R   0.930666 0.603351 0.528111 0.088845
C27   C     C_R   0.950665 0.396470 0.518230 0.088081
C28   C     C_R   0.049291 0.603557 0.481998 0.087704
C29   C     C_R   0.124254 0.499923 0.467965 -0.251860
C30   C     C_R   0.875696 0.500096 0.532215 -0.252580
C31   C     C_R   0.497628 0.535055 0.811667 -0.146787
C32   C     C_R   0.511379 0.651646 0.968637 0.421747
C33   C     C_R   0.490908 0.348122 0.031343 0.414657
C34   C     C_R   0.506912 0.640566 0.861376 -0.281715
C35   C     C_R   0.494190 0.359346 0.138622 -0.286391
C36   C     C_R   0.490862 0.439324 0.867502 -0.184604
H1    H     H_    0.864967 0.887802 0.572502 0.131293
H2    H     H_    0.785416 0.709021 0.614760 0.130724
H3    H     H_    0.519975 0.640558 0.173651 0.232413
H4    H     H_    0.481825 0.359261 0.826399 0.232601
H5    H     H_    0.488197 0.286123 0.183782 0.192104
H6    H     H_    0.511738 0.713930 0.816208 0.193026
H7    H     H_    0.417683 0.179669 0.382502 0.120297
H8    H     H_    0.582319 0.820329 0.617502 0.112240
H9    H     H_    0.628823 0.216435 0.658583 0.145227
H10   H     H_    0.371174 0.783567 0.341419 0.145472
H11   H     H_    0.612723 0.878771 0.910537 0.354012
H12   H     H_    0.134933 0.112193 0.427779 0.134615
H13   H     H_    0.566277 0.099591 0.084560 0.373488
H14   H     H_    0.360278 0.988420 0.318750 0.182123
H15   H     H_    0.639722 0.011579 0.681261 0.168420
H16   H     H_    0.830102 0.288778 0.597921 0.145048
H17   H     H_    0.169814 0.711306 0.402321 0.145194
H18   H     H_    0.944917 0.111596 0.538111 0.133662
H19   H     H_    0.054995 0.888451 0.462192 0.133756
H20   H     H_    0.214483 0.290941 0.385440 0.136843
N1    N     N_R   0.523130 0.207800 0.519340 -0.108941
N2    N     N_R   0.476870 0.792200 0.480660 -0.108098
O1    O     O_R   0.506170 0.421700 0.658830 -0.630859
O2    O     O_2   0.641237 0.790435 0.090850 -0.320735
O3    O     O_3   0.524853 0.885417 0.936867 -0.465756
O4    O     O_2   0.359462 0.209871 0.910864 -0.244373
O5    O     O_2   0.589642 0.180084 0.901438 -0.335377
O6    O     O_3   0.477117 0.114363 0.063058 -0.466711
O7    O     O_R   0.493830 0.578300 0.341170 -0.631187
O8    O     O_R   0.491330 0.609310 0.646410 -0.629437
O9    O     O_R   0.508670 0.390690 0.353590 -0.631633
O10   O     O_R   0.690650 0.406190 0.506220 -0.623051
O11   O     O_R   0.309350 0.593810 0.493780 -0.621454
O12   O     O_R   0.675800 0.593810 0.493800 -0.607407
O13   O     O_R   0.324200 0.406190 0.506200 -0.606911
O14   O     O_2   0.410871 0.819610 0.096882 -0.266334
S1    S     S_3+6 0.522681 0.788846 0.027076 0.032812
S2    S     S_3+6 0.479312 0.210967 0.972891 0.041080
Zn1   Zn    Zn3+2 0.509910 0.374730 0.508290 0.959466
Zn2   Zn    Zn3+2 0.490090 0.625270 0.491710 0.961521

loop_
_geom_bond_atom_site_label_1
_geom_bond_atom_site_label_2
_ccdc_geom_bond_type
C17   H17   S    
C34   H6    S    
N2    Zn2   S    
O10   Zn1   S    
C12   C23   S    
O7    Zn2   S    
C28   C29   A    
C19   C21   A    
C24   C26   A    
C1    O1    A    
C3    C33   A    
O2    S1    D    
C1    C31   S    
O11   Zn2   S    
C9    N2    A    
C8    H9    S    
C17   C19   A    
C2    H3    S    
C22   C25   A    
C24   H2    S    
C6    H15   S    
C7    N2    A    
C5    C13   A    
C16   C27   A    
H13   O6    S    
C27   C30   A    
C14   O12   A    
C14   C30   S    
C15   C29   S    
C25   C29   A    
C15   O11   A    
C12   O9    A    
C7    H10   S    
C36   H4    S    
C10   N1    A    
C6    C11   A    
C5    C7    A    
C22   H20   S    
O3    S1    S    
C32   C34   A    
C2    C4    A    
C8    N1    A    
O8    Zn2   S    
C1    O8    A    
C31   C34   A    
C4    C32   A    
C9    C11   A    
C20   H12   S    
C20   C22   A    
C26   C30   A    
C23   C35   A    
O12   Zn2   S    
C5    H14   S    
O9    Zn1   S    
C3    C4    A    
O1    Zn1   S    
C32   S1    S    
C19   H19   S    
C9    H8    S    
C14   O10   A    
C10   H7    S    
C17   C28   A    
C16   H16   S    
O14   S1    D    
C10   C13   A    
H11   O3    S    
C6    C8    A    
O5    S2    D    
C25   C27   A    
C15   O13   A    
C12   O7    A    
C26   C28   A    
N1    Zn1   S    
O13   Zn1   S    
C11   C13   A    
C3    C36   A    
C33   C35   A    
C18   C20   A    
C35   H5    S    
C18   H18   S    
C33   S2    S    
C21   H1    S    
C16   C18   A    
C21   C24   A    
C2    C23   A    
O6    S2    S    
C31   C36   A    
O4    S2    D    
