data_mof_unit_3922.cif
_audit_creation_date              2012-12-11T17:01:20-0500
_audit_creation_method            fapswitch 2.2
_symmetry_space_group_name_H-M    P1
_symmetry_Int_Tables_number       1
_space_group_crystal_system       triclinic
_cell_length_a                    19.46659
_cell_length_b                    7.088236
_cell_length_c                    17.588855
_cell_angle_alpha                 90.066252
_cell_angle_beta                  108.647992
_cell_angle_gamma                 90.14898
_cell_volume                      2299.54986727

loop_
_atom_site_label
_atom_site_type_symbol
_atom_type_description
_atom_site_fract_x
_atom_site_fract_y
_atom_site_fract_z
_atom_type_partial_charge
O1    O     O_R   0.413720 0.494330 0.415730 -0.528434
O2    O     O_R   0.586280 0.994330 0.584270 -0.539174
O3    O     O_R   0.560210 0.819300 0.430070 -0.512015
O4    O     O_R   0.439790 0.319300 0.569930 -0.507909
C1    C     C_R   0.580609 0.655311 0.413260 0.870339
C2    C     C_R   0.417140 0.155485 0.584080 0.880150
O5    O     O_R   0.412670 0.823730 0.406310 -0.548312
O6    O     O_R   0.587330 0.323730 0.593690 -0.536732
O7    O     O_R   0.437690 0.998790 0.560340 -0.518796
O8    O     O_R   0.562310 0.498790 0.439660 -0.510197
C3    C     C_R   0.385065 0.654945 0.383752 0.780316
C4    C     C_R   0.614534 0.154962 0.617170 0.806162
O9    O     O_3   0.508380 0.662350 0.550560 -0.359906
O10   O     O_3   0.491620 0.162350 0.449440 -0.367967
V1    V     V_3+5 0.498450 0.935370 0.490620 1.720947
V2    V     V_3+5 0.501550 0.435370 0.509380 1.743353
C5    C     C_R   0.712468 0.970526 0.719176 0.092104
C6    C     C_R   0.288539 0.472697 0.279928 0.173795
C7    C     C_R   0.684884 0.143766 0.683641 -0.089026
C8    C     C_R   0.314420 0.644172 0.318325 -0.054395
C9    C     C_R   0.730070 0.303275 0.708451 -0.092465
C10   C     C_R   0.268391 0.802196 0.295750 -0.140292
H1    H     H_    0.713253 0.438855 0.681472 0.170322
H2    H     H_    0.283697 0.935665 0.326544 0.127901
C11   C     C_R   0.797057 0.291025 0.770416 -0.174888
C12   C     C_R   0.202643 0.790806 0.231516 -0.168703
H3    H     H_    0.829793 0.416956 0.787998 0.137530
H4    H     H_    0.169648 0.916196 0.214831 0.139110
C13   C     C_R   0.820235 0.119662 0.810974 -0.105976
C14   C     C_R   0.181028 0.621037 0.188088 -0.111058
C15   C     C_R   0.778528 0.958984 0.780806 0.124150
C16   C     C_R   0.223728 0.461309 0.216667 0.121601
C17   C     C_3   0.751518 0.813281 0.825161 -0.452327
C18   C     C_3   0.254448 0.322593 0.172391 -0.442178
C19   C     C_3   0.679076 0.827520 0.759373 -0.329774
C20   C     C_3   0.325190 0.335013 0.241552 -0.385360
H5    H     H_    0.750170 0.864185 0.884525 0.177945
H6    H     H_    0.258429 0.380180 0.115149 0.178972
H7    H     H_    0.778497 0.675467 0.826518 0.176469
H8    H     H_    0.227834 0.182273 0.167242 0.179621
H9    H     H_    0.637484 0.887286 0.782846 0.250643
H10   H     H_    0.370242 0.399869 0.224487 0.199483
H11   H     H_    0.662678 0.696710 0.723428 0.178772
H12   H     H_    0.339325 0.202037 0.276367 0.193649
C21   C     C_R   0.307014 0.276605 0.615957 0.322572
C22   C     C_R   0.687192 0.514857 0.380213 0.333694
C23   C     C_R   0.365956 0.147530 0.631905 -0.307785
C24   C     C_R   0.629274 0.647326 0.362469 -0.329092
C25   C     C_R   0.375622 0.011774 0.694020 0.345453
C26   C     C_R   0.619633 0.774772 0.297065 0.384014
C27   C     C_R   0.322120 0.991855 0.732177 -0.036300
C28   C     C_R   0.673176 0.783627 0.258173 -0.022245
C29   C     C_R   0.270263 0.135861 0.723820 -0.055148
C30   C     C_R   0.723893 0.635668 0.269292 -0.066682
C31   C     C_R   0.265532 0.285048 0.669181 -0.010453
C32   C     C_R   0.727258 0.493298 0.326370 -0.009200
C33   C     C_R   0.319982 0.833976 0.780164 -0.085871
C34   C     C_R   0.677384 0.935462 0.207914 -0.055678
C35   C     C_R   0.271168 0.825236 0.823363 -0.212042
C36   C     C_R   0.727355 0.934820 0.165916 -0.211823
C37   C     C_R   0.223642 0.974610 0.820498 0.097976
C38   C     C_R   0.774075 0.781814 0.172186 0.098374
C39   C     C_R   0.223171 0.131075 0.770871 0.113343
C40   C     C_R   0.772120 0.630867 0.223630 0.115839
C41   C     C_R   0.175865 0.282960 0.768587 0.093646
C42   C     C_R   0.818620 0.475366 0.229711 0.094464
C43   C     C_R   0.175138 0.436716 0.718532 -0.211844
C44   C     C_R   0.816913 0.326613 0.281243 -0.211899
C45   C     C_R   0.218960 0.437464 0.669214 -0.056503
C46   C     C_R   0.772172 0.335751 0.329256 -0.050562
C47   C     C_R   0.176408 0.969470 0.866229 -0.211976
C48   C     C_R   0.823008 0.777800 0.128304 -0.210794
C49   C     C_R   0.129989 0.121735 0.865326 -0.082310
C50   C     C_R   0.868800 0.621753 0.133331 -0.082577
C51   C     C_R   0.130516 0.279056 0.816803 -0.208104
C52   C     C_R   0.865763 0.470440 0.183857 -0.205019
H13   H     H_    0.354754 0.713587 0.783254 0.204040
H14   H     H_    0.643890 0.059258 0.202565 0.193548
H15   H     H_    0.271137 0.701903 0.859725 0.138881
H16   H     H_    0.729174 0.054187 0.128142 0.137095
H17   H     H_    0.176836 0.848122 0.903875 0.127745
H18   H     H_    0.824325 0.894439 0.088954 0.126650
H19   H     H_    0.094605 0.396655 0.815323 0.134942
H20   H     H_    0.900910 0.349628 0.188476 0.136608
H21   H     H_    0.140367 0.556672 0.717210 0.143949
H22   H     H_    0.850846 0.203656 0.285150 0.142929
H23   H     H_    0.217710 0.561872 0.633342 0.198404
H24   H     H_    0.771830 0.215965 0.367148 0.193506
O11   O     O_R   0.937800 0.775460 0.060470 -0.538811
O12   O     O_R   0.062200 0.275460 0.939530 -0.540058
O13   O     O_R   0.087350 0.441340 0.093710 -0.536973
O14   O     O_R   0.912650 0.941340 0.906290 -0.538048
C53   C     C_R   0.114579 0.610462 0.116828 0.698881
C54   C     C_R   0.885972 0.110038 0.882683 0.698428
O15   O     O_R   0.939820 0.446010 0.069950 -0.543891
O16   O     O_R   0.060180 0.946010 0.930050 -0.542644
O17   O     O_R   0.913690 0.271230 0.915700 -0.541015
O18   O     O_R   0.086310 0.771230 0.084300 -0.541216
C55   C     C_R   0.918486 0.614263 0.084667 0.712833
C56   C     C_R   0.081142 0.114449 0.914922 0.710280
O19   O     O_3   0.991670 0.603050 0.949510 -0.374696
O20   O     O_3   0.008330 0.103050 0.050490 -0.373832
V3    V     V_3+5 0.001550 0.329940 0.009370 1.415802
V4    V     V_3+5 0.998450 0.829940 0.990630 1.415620
S1    S     S_3+6 0.279796 0.409502 0.524863 -0.007969
O21   O     O_2   0.199501 0.445429 0.497183 -0.332149
O22   O     O_2   0.319110 0.595493 0.538734 -0.321215
O23   O     O_3   0.299435 0.292017 0.451308 -0.523204
H25   H     H_    0.270663 0.174002 0.443976 0.316794
S2    S     S_3+6 0.717801 0.401842 0.475763 -0.011535
O24   O     O_2   0.677260 0.219449 0.471641 -0.325592
O25   O     O_2   0.797709 0.361214 0.500822 -0.332307
O26   O     O_3   0.702800 0.542972 0.545605 -0.531470
H26   H     H_    0.732461 0.657216 0.546465 0.324881
S3    S     S_3+6 0.459417 0.889808 0.733028 -0.015888
O27   O     O_2   0.454841 0.704793 0.689930 -0.297283
O28   O     O_2   0.519423 0.006874 0.721085 -0.396443
O29   O     O_3   0.479373 0.848515 0.831909 -0.494045
H27   H     H_    0.482163 0.975090 0.856674 0.342703
S4    S     S_3+6 0.538126 0.908711 0.258230 -0.019269
O30   O     O_2   0.475140 0.807975 0.272015 -0.371823
O31   O     O_2   0.548423 0.097669 0.299310 -0.334566
O32   O     O_3   0.518171 0.940633 0.158720 -0.507016
H28   H     H_    0.476420 0.028207 0.143765 0.365522

loop_
_geom_bond_atom_site_label_1
_geom_bond_atom_site_label_2
_ccdc_geom_bond_type
C49   C56   S    
C42   C44   A    
C39   C41   A    
C44   H22   S    
C20   H10   S    
O1    C3    A    
C46   H24   S    
C52   H20   S    
C2    O7    A    
O32   H28   S    
C23   C25   A    
O5    C3    A    
S1    O22   D    
C17   H7    S    
C50   C52   A    
O11   C55   A    
C26   S4    S    
C7    C9    A    
C14   C53   S    
C13   C54   S    
O15   C55   A    
C33   C35   A    
C41   C43   A    
C34   C36   A    
S3    O27   D    
O23   H25   S    
C36   C38   A    
C21   C23   A    
C37   C39   A    
S2    O24   D    
C38   C40   A    
C17   C19   S    
O29   H27   S    
O15   V3    S    
S3    O28   D    
C26   C28   A    
C15   C17   S    
C27   C33   A    
C19   H11   S    
C18   C20   S    
C45   H23   S    
S4    O32   S    
C37   C47   A    
C24   C26   A    
O2    C4    A    
O6    V2    S    
C49   C51   A    
O12   C56   A    
S1    O23   S    
C21   S1    S    
C22   C24   A    
C29   C31   A    
C11   C13   A    
C1    C24   S    
C30   C32   A    
C3    C8    S    
C35   C37   A    
C43   H21   S    
C2    C23   S    
C33   H13   S    
C48   C50   A    
C35   H15   S    
C47   C49   A    
O14   V4    S    
C54   O17   A    
C25   C27   A    
C17   H5    S    
C43   C45   A    
C16   C18   S    
O4    V2    S    
O13   C53   A    
O6    C4    A    
S3    O29   S    
C42   C52   A    
O14   C54   A    
C38   C48   A    
O1    V2    S    
O17   V3    S    
O20   V4    S    
O2    V1    S    
S2    O26   S    
C31   C45   A    
C28   C34   A    
O4    C2    A    
C25   S3    S    
C8    C10   A    
C12   C14   A    
O19   V4    S    
C32   C46   A    
C9    H1    S    
O11   V4    S    
C5    C15   A    
C10   H2    S    
C20   H12   S    
C6    C16   A    
O3    V1    S    
S4    O30   D    
S4    O31   D    
O26   H26   S    
O16   V4    S    
C9    C11   A    
C36   H16   S    
C18   H6    S    
O13   V3    S    
O3    C1    A    
C50   C55   S    
C11   H3    S    
S1    O21   D    
C12   H4    S    
C41   C51   A    
C22   S2    S    
O7    V1    S    
C1    O8    A    
C13   C15   A    
O8    V2    S    
C14   C16   A    
C29   C39   A    
C51   H19   S    
C30   C40   A    
O18   V4    S    
O16   C56   A    
C4    C7    S    
O5    V1    S    
C5    C7    A    
C28   C30   A    
C6    C8    A    
O20   V3    S    
C19   H9    S    
S2    O25   D    
O12   V3    S    
C34   H14   S    
C21   C31   A    
O19   V3    S    
C10   C12   A    
O9    V2    S    
C22   C32   A    
C44   C46   A    
O10   V1    S    
C18   H8    S    
C5    C19   S    
C27   C29   A    
C6    C20   S    
C53   O18   A    
C48   H18   S    
C40   C42   A    
C47   H17   S    
