data_mof_unit_1791.cif
_audit_creation_date              2012-12-10T17:52:01-0500
_audit_creation_method            fapswitch 2.2
_symmetry_space_group_name_H-M    P1
_symmetry_Int_Tables_number       1
_space_group_crystal_system       triclinic
_cell_length_a                    14.744329
_cell_length_b                    14.761996
_cell_length_c                    19.283725
_cell_angle_alpha                 75.893491
_cell_angle_beta                  104.315152
_cell_angle_gamma                 116.518318
_cell_volume                      3595.73395029

loop_
_atom_site_label
_atom_site_type_symbol
_atom_type_description
_atom_site_fract_x
_atom_site_fract_y
_atom_site_fract_z
_atom_type_partial_charge
C1    C     C_R   0.878861 0.311611 0.514902 0.848628
C2    C     C_R   0.121234 0.689242 0.488638 0.873460
C3    C     C_R   0.807880 0.206503 0.541454 -0.354713
C4    C     C_R   0.189473 0.801127 0.485113 -0.355135
C5    C     C_R   0.768878 0.066820 0.642918 0.379897
C6    C     C_R   0.211940 0.979210 0.441842 0.407361
C7    C     C_R   0.840748 0.145367 0.600895 0.246856
C8    C     C_R   0.153165 0.873872 0.441441 0.263241
C9    C     C_R   0.702186 0.177101 0.516484 0.517900
C10   C     C_R   0.289741 0.836481 0.525599 0.467919
C11   C     C_R   0.629290 0.102189 0.559487 -0.097455
C12   C     C_R   0.349766 0.943467 0.526645 -0.093064
C13   C     C_R   0.662705 0.042916 0.621264 -0.297868
C14   C     C_R   0.312920 0.014518 0.479939 -0.311745
C15   C     C_R   0.522678 0.079227 0.539480 -0.198865
C16   C     C_R   0.451390 0.981996 0.565908 -0.198653
C17   C     C_R   0.484255 0.929016 0.631023 0.595718
C18   C     C_R   0.484004 0.150668 0.497302 0.605117
C19   C     C_R   0.588553 0.960153 0.659173 0.539742
C20   C     C_R   0.379764 0.119284 0.470067 0.528894
C21   C     C_R   0.714512 0.664189 0.375038 -0.345888
C22   C     C_R   0.302013 0.360246 0.635867 -0.354716
C23   C     C_R   0.001099 0.500136 0.632657 0.861770
C24   C     C_R   0.997103 0.497404 0.367168 0.802078
C25   C     C_R   0.796853 0.636940 0.397111 0.723892
C26   C     C_R   0.214997 0.380169 0.611639 0.664898
C27   C     C_R   0.714245 0.509503 0.490007 0.814996
C28   C     C_R   0.276175 0.474093 0.501973 0.741349
C29   C     C_R   0.631479 0.540237 0.474350 -0.139885
C30   C     C_R   0.372724 0.467223 0.527044 -0.148564
C31   C     C_R   0.630568 0.615029 0.412521 -0.216957
C32   C     C_R   0.382500 0.405512 0.595112 -0.192617
C33   C     C_R   0.548955 0.497750 0.515681 -0.116374
C34   C     C_R   0.458848 0.517814 0.487908 -0.141976
C35   C     C_R   0.463370 0.594726 0.426083 0.566182
C36   C     C_R   0.557206 0.443320 0.586548 0.620177
C37   C     C_R   0.546067 0.640139 0.388300 0.401714
C38   C     C_R   0.473117 0.391201 0.622938 0.399684
C39   C     C_R   0.093250 0.537641 0.757381 0.369344
C40   C     C_R   0.910794 0.507146 0.236048 0.378744
C41   C     C_R   0.090138 0.531243 0.831131 0.375354
C42   C     C_R   0.909076 0.505948 0.162995 0.374233
C43   C     C_R   0.994120 0.483992 0.855592 -0.103032
C44   C     C_R   0.982173 0.482259 0.144810 -0.094635
C45   C     C_R   0.903823 0.438966 0.808122 -0.213086
C46   C     C_R   0.055283 0.459956 0.198860 -0.237274
C47   C     C_R   0.907044 0.445362 0.735583 -0.215898
C48   C     C_R   0.059417 0.464923 0.270753 -0.213318
C49   C     C_R   0.000818 0.495376 0.709564 -0.178526
C50   C     C_R   0.989040 0.490338 0.290355 -0.224015
C51   C     C_R   0.985013 0.482926 0.069718 0.416708
C52   C     C_R   0.986841 0.484277 0.929821 0.422146
Cu1   Cu    Cu3+1 0.081740 0.475680 0.518680 1.053735
Cu2   Cu    Cu3+1 0.918260 0.524320 0.481320 1.087022
H1    H     H_    0.716473 0.722740 0.328212 0.218614
H2    H     H_    0.307346 0.312247 0.687712 0.220588
H3    H     H_    0.830202 0.401610 0.826810 0.187935
H4    H     H_    0.111146 0.441194 0.185029 0.172419
H5    H     H_    0.835984 0.411145 0.699528 0.232960
H6    H     H_    0.118415 0.449197 0.310970 0.239235
N1    N     N_R   0.938760 0.395057 0.972438 -0.262624
N2    N     N_R   0.032457 0.572227 0.027097 -0.197159
N3    N     N_R   0.938190 0.394350 0.041453 -0.266278
N4    N     N_R   0.034003 0.572778 0.958310 -0.171313
N5    N     N_R   0.795420 0.560800 0.453240 -0.311573
N6    N     N_R   0.204580 0.439200 0.546760 -0.295331
O1    O     O_R   0.977910 0.338110 0.524620 -0.527051
O2    O     O_R   0.022090 0.661890 0.475380 -0.514598
O3    O     O_R   0.839850 0.379180 0.493080 -0.506753
O4    O     O_R   0.160150 0.620820 0.506920 -0.558386
O5    O     O_R   0.069040 0.479450 0.615630 -0.521833
O6    O     O_R   0.930960 0.520550 0.384370 -0.517015
O7    O     O_R   0.930990 0.520520 0.584090 -0.561764
O8    O     O_R   0.069010 0.479480 0.415910 -0.531147
O9    O     O_3   0.184211 0.595550 0.729728 -0.529102
C53   C     C_3   0.248000 0.541886 0.750401 0.095770
H7    H     H_    0.204031 0.458080 0.748892 0.159845
H8    H     H_    0.291858 0.554245 0.805293 0.172246
C54   C     C_3   0.326017 0.584251 0.699364 -0.633614
H9    H     H_    0.378580 0.664710 0.705688 0.316168
H10   H     H_    0.372233 0.538350 0.711971 0.172078
H11   H     H_    0.285978 0.581376 0.642639 0.269692
O10   O     O_3   0.837439 0.528879 0.253049 -0.506706
C55   C     C_3   0.749197 0.436435 0.263152 0.107357
H12   H     H_    0.764370 0.387351 0.314404 0.151344
H13   H     H_    0.724471 0.391987 0.217793 0.107234
C56   C     C_3   0.660470 0.460383 0.267154 -0.699825
H14   H     H_    0.586933 0.391732 0.260853 0.192862
H15   H     H_    0.671202 0.482571 0.320389 0.237994
H16   H     H_    0.655530 0.523577 0.223425 0.244768
O11   O     O_3   0.546469 0.715499 0.329170 -0.554518
C57   C     C_3   0.491489 0.667641 0.267416 0.092305
H17   H     H_    0.409329 0.620014 0.273104 0.188059
H18   H     H_    0.525651 0.618568 0.258148 0.128664
C58   C     C_3   0.496061 0.749437 0.201192 -0.754266
H19   H     H_    0.577145 0.797477 0.193476 0.244976
H20   H     H_    0.453007 0.712641 0.152275 0.200201
H21   H     H_    0.461217 0.798922 0.208219 0.259855
O12   O     O_3   0.483006 0.331773 0.689621 -0.556230
C59   C     C_3   0.473154 0.236774 0.677684 0.083686
H22   H     H_    0.535486 0.247230 0.649534 0.200644
H23   H     H_    0.397244 0.196701 0.644868 0.132262
C60   C     C_3   0.480770 0.168725 0.750081 -0.743021
H24   H     H_    0.418491 0.155068 0.779199 0.249004
H25   H     H_    0.473219 0.093981 0.741075 0.216367
H26   H     H_    0.556287 0.205988 0.783761 0.254604
F1    F     F_    0.247654 0.503159 0.431302 -0.619997
F2    F     F_    0.710636 0.423045 0.536025 -0.566887
F3    F     F_    0.139602 0.338188 0.652834 -0.637355
F4    F     F_    0.875283 0.681522 0.358871 -0.619445
F5    F     F_    0.396277 0.639011 0.405367 -0.646328
F6    F     F_    0.649497 0.450985 0.626281 -0.626084
O13   O     O_3   0.180154 0.579724 0.876604 -0.538618
C61   C     C_3   0.208926 0.505616 0.926797 0.044705
H27   H     H_    0.206572 0.445765 0.899740 0.104220
H28   H     H_    0.158300 0.467126 0.968726 0.164354
C62   C     C_3   0.317719 0.558608 0.965595 -0.736650
H29   H     H_    0.321165 0.615991 0.995367 0.258078
H30   H     H_    0.341307 0.501192 0.004886 0.192428
H31   H     H_    0.372045 0.597948 0.926012 0.250690
O14   O     O_3   0.841854 0.538485 0.110500 -0.547475
C63   C     C_3   0.767449 0.457717 0.073119 0.080749
H32   H     H_    0.754020 0.379863 0.104723 0.110010
H33   H     H_    0.791598 0.463764 0.021440 0.183387
C64   C     C_3   0.665970 0.468697 0.054105 -0.761343
H34   H     H_    0.676010 0.544198 0.020400 0.262627
H35   H     H_    0.607677 0.407142 0.023185 0.201659
H36   H     H_    0.637967 0.462641 0.104116 0.242015
F7    F     F_    0.615944 0.905247 0.721541 -0.609898
F8    F     F_    0.346924 0.191427 0.429709 -0.614436
O15   O     O_3   0.332395 0.766983 0.558814 -0.530425
C65   C     C_3   0.395504 0.768379 0.513560 0.081522
H37   H     H_    0.440131 0.846607 0.485978 0.122261
H38   H     H_    0.346492 0.720078 0.471344 0.238881
C66   C     C_3   0.472901 0.726362 0.558445 -0.716420
H39   H     H_    0.433004 0.644803 0.580974 0.227375
H40   H     H_    0.526745 0.733354 0.524179 0.212570
H41   H     H_    0.518258 0.769980 0.603810 0.258802
O16   O     O_3   0.670233 0.215401 0.446454 -0.502579
C67   C     C_3   0.671924 0.158273 0.397863 0.014524
H42   H     H_    0.746106 0.198534 0.376810 0.124015
H43   H     H_    0.662387 0.078322 0.422624 0.127493
C68   C     C_3   0.584507 0.150198 0.334832 -0.741159
H44   H     H_    0.591146 0.227583 0.307331 0.244133
H45   H     H_    0.587190 0.108411 0.295192 0.198576
H46   H     H_    0.509675 0.107913 0.354842 0.245063
O17   O     O_3   0.061436 0.843357 0.394123 -0.519464
C69   C     C_3   0.080686 0.844238 0.325356 0.199824
H47   H     H_    0.058501 0.764163 0.318202 0.179720
H48   H     H_    0.162578 0.889259 0.317167 0.091941
C70   C     C_3   0.016205 0.889886 0.266259 -0.677194
H49   H     H_    0.039611 0.970974 0.271339 0.245541
H50   H     H_    0.027815 0.887028 0.212220 0.189769
H51   H     H_    0.933491 0.846451 0.270512 0.277931
O18   O     O_3   0.943742 0.164340 0.619714 -0.503268
C71   C     C_3   0.959493 0.091261 0.594119 0.142082
H52   H     H_    0.932403 0.092737 0.534645 0.100151
H53   H     H_    0.918756 0.012692 0.622640 0.172130
C72   C     C_3   0.073333 0.114823 0.608418 -0.731767
H54   H     H_    0.084457 0.050553 0.597095 0.168543
H55   H     H_    0.114555 0.185556 0.572408 0.237585
H56   H     H_    0.105767 0.124880 0.665888 0.271948
O19   O     O_3   0.803074 0.011242 0.703812 -0.521691
C73   C     C_3   0.837801 0.067325 0.761977 0.152509
H57   H     H_    0.775217 0.082550 0.772503 0.150646
H58   H     H_    0.904553 0.141508 0.750956 0.161477
C74   C     C_3   0.871876 0.005265 0.829989 -0.706281
H59   H     H_    0.935309 0.990005 0.821515 0.245227
H60   H     H_    0.899371 0.048583 0.876153 0.186463
H61   H     H_    0.806517 0.931206 0.843211 0.278733
O20   O     O_3   0.173122 0.047279 0.397931 -0.511362
C75   C     C_3   0.117919 0.067211 0.438299 0.151885
H62   H     H_    0.168017 0.098769 0.488024 0.144796
H63   H     H_    0.050425 0.996222 0.453856 0.141070
C76   C     C_3   0.079226 0.146320 0.392423 -0.743028
H64   H     H_    0.027841 0.116892 0.342655 0.237122
H65   H     H_    0.035766 0.162614 0.423754 0.180507
H66   H     H_    0.145054 0.218629 0.376889 0.280800
F9    F     F_    0.415239 0.852239 0.670794 -0.601038
F10   F     F_    0.544577 0.252576 0.487817 -0.582478

loop_
_geom_bond_atom_site_label_1
_geom_bond_atom_site_label_2
_ccdc_geom_bond_type
C19   F7    S    
C66   H41   S    
C56   H14   S    
C68   H46   S    
C58   H19   S    
C11   C13   A    
C15   C18   A    
C2    C4    S    
O19   C73   S    
C55   C56   S    
C4    C8    A    
C61   H27   S    
C58   H21   S    
C66   H39   S    
C39   C41   A    
Cu2   N5    S    
Cu1   Cu2   S    
C21   C31   A    
C45   H3    S    
C67   H42   S    
C22   C32   A    
C3    C9    A    
C5    O19   S    
C73   H57   S    
C35   C37   A    
C53   H8    S    
C2    O2    A    
C52   N1    A    
C62   H30   S    
C43   C52   S    
C23   C49   S    
Cu2   O2    S    
C28   F1    S    
C68   H44   S    
C29   C33   A    
C33   C36   A    
C27   C29   A    
C14   C20   A    
C66   H40   S    
C34   C35   A    
C70   H51   S    
N1    N3    A    
C10   O15   S    
C57   H17   S    
N2    N4    A    
C60   H24   S    
O17   C69   S    
C17   C19   A    
C11   C15   A    
C71   H53   S    
C72   H54   S    
C75   H63   S    
C16   C17   A    
C36   F6    S    
C64   H36   S    
C70   H49   S    
C72   H55   S    
C32   C38   A    
C74   H61   S    
C5    C13   A    
C75   C76   S    
C17   F9    S    
C40   C42   A    
C18   F10   S    
C46   H4    S    
C41   C43   A    
C40   O10   S    
C51   N2    A    
C42   C44   A    
C23   O7    A    
Cu1   O4    S    
C73   C74   S    
C59   H23   S    
C44   C46   A    
C48   H6    S    
C76   H66   S    
C6    O20   S    
C45   C47   A    
C24   C50   S    
C46   C48   A    
C37   O11   S    
C26   N6    A    
C12   C16   A    
C69   C70   S    
C51   N3    A    
C55   H12   S    
C76   H65   S    
C52   N4    A    
C62   H31   S    
C20   F8    S    
C74   H59   S    
C21   H1    S    
C30   C34   A    
C65   H37   S    
C13   C19   A    
C6    C8    A    
Cu2   O6    S    
C57   C58   S    
C1    O3    A    
C31   C37   A    
C74   H60   S    
C1    C3    S    
C59   C60   S    
C28   N6    A    
O9    C53   S    
C27   N5    A    
C23   O5    A    
C6    C14   A    
Cu2   O7    S    
C9    C11   A    
O10   C55   S    
C26   F3    S    
C57   H18   S    
C33   C34   A    
C72   H56   S    
C25   N5    A    
C60   H25   S    
C53   H7    S    
C67   C68   S    
Cu1   N6    S    
C43   C45   A    
O20   C75   S    
O14   C63   S    
C10   C12   A    
C25   F4    S    
C44   C51   S    
C39   C49   A    
C12   C14   A    
C39   O9    S    
C56   H15   S    
C64   H34   S    
C8    O17   S    
C4    C10   A    
O15   C65   S    
Cu1   O5    S    
O11   C57   S    
C35   F5    S    
C75   H62   S    
C24   O6    A    
C5    C7    A    
O13   C61   S    
C68   H45   S    
C21   C25   A    
C71   H52   S    
C71   C72   S    
C69   H48   S    
C38   O12   S    
C54   H11   S    
C61   H28   S    
O16   C67   S    
C58   H20   S    
C67   H43   S    
C47   C49   A    
C3    C7    A    
O12   C59   S    
C22   H2    S    
C63   C64   S    
C73   H58   S    
C41   O13   S    
C28   C30   A    
C29   C31   A    
C76   H64   S    
C62   H29   S    
C36   C38   A    
C30   C32   A    
C9    O16   S    
C24   O8    A    
Cu2   O3    S    
C27   F2    S    
C65   C66   S    
C40   C50   A    
C48   C50   A    
C59   H22   S    
C1    O1    A    
C60   H26   S    
C18   C20   A    
C69   H47   S    
C70   H50   S    
C54   H10   S    
Cu1   O1    S    
C61   C62   S    
C47   H5    S    
C54   H9    S    
C53   C54   S    
C7    O18   S    
C65   H38   S    
C22   C26   A    
C56   H16   S    
O18   C71   S    
C64   H35   S    
C55   H13   S    
C63   H32   S    
C2    O4    A    
C63   H33   S    
C15   C16   A    
C42   O14   S    
Cu1   O8    S    
