data_mof_unit_3507.cif
_audit_creation_date              2012-12-10T16:57:17-0500
_audit_creation_method            fapswitch 2.2
_symmetry_space_group_name_H-M    P1
_symmetry_Int_Tables_number       1
_space_group_crystal_system       triclinic
_cell_length_a                    15.909228
_cell_length_b                    10.980441
_cell_length_c                    9.793916
_cell_angle_alpha                 91.08982
_cell_angle_beta                  88.0872
_cell_angle_gamma                 92.59141
_cell_volume                      1707.93776876

loop_
_atom_site_label
_atom_site_type_symbol
_atom_type_description
_atom_site_fract_x
_atom_site_fract_y
_atom_site_fract_z
_atom_type_partial_charge
C1    C     C_R   0.495003 0.265329 0.498990 0.804121
C2    C     C_3   0.942041 0.463969 0.651085 -0.042554
C3    C     C_3   0.915912 0.485395 0.492198 -0.053400
C4    C     C_3   0.954680 0.614377 0.444993 -0.153655
C5    C     C_3   0.051789 0.622880 0.472534 -0.135525
C6    C     C_1   0.823557 0.490233 0.489084 0.063771
C7    C     C_1   0.175973 0.495151 0.506137 0.038157
C8    C     C_1   0.251394 0.498267 0.506096 -0.118902
C9    C     C_2   0.472033 0.928804 0.395197 0.144758
C10   C     C_2   0.502527 0.866309 0.498866 -0.313110
C11   C     C_2   0.493672 0.060429 0.391250 -0.066276
C12   C     C_R   0.340672 0.500157 0.502025 0.815674
C13   C     C_2   0.470152 0.134883 0.496896 -0.279120
C14   C     C_2   0.435000 0.467595 0.927280 0.062766
C15   C     C_2   0.442036 0.442424 0.078489 0.167371
C16   C     C_R   0.499278 0.734127 0.500589 0.828978
C17   C     C_R   0.659323 0.499687 0.497802 0.831773
C18   C     C_3   0.045242 0.449468 0.651977 -0.020100
C19   C     C_3   0.050473 0.404754 0.380138 -0.254203
C20   C     C_3   0.950648 0.380217 0.389205 -0.011520
C21   C     C_1   0.748382 0.495336 0.492391 -0.071545
C22   C     C_3   0.083360 0.490650 0.503842 0.065859
Cu1   Cu    Cu3+1 0.500020 0.500020 0.638630 1.023604
Cu2   Cu    Cu3+1 0.499980 0.499980 0.361370 0.963914
H1    H     H_    0.535379 0.914153 0.580958 0.147903
H2    H     H_    0.557242 0.502249 0.890135 0.200735
H3    H     H_    0.539713 0.560591 0.104523 0.179279
H4    H     H_    0.062479 0.465561 0.291880 0.124358
H5    H     H_    0.055432 0.677270 0.566173 0.191936
H6    H     H_    0.926408 0.685712 0.511322 0.109222
N1    N     N_2   0.499090 0.498660 0.846910 -0.331390
N2    N     N_2   0.499070 0.498630 0.153040 -0.296356
O1    O     O_R   0.500010 0.321960 0.617040 -0.506948
O2    O     O_R   0.499990 0.321920 0.382900 -0.571443
O3    O     O_R   0.379450 0.500030 0.617120 -0.552917
O4    O     O_R   0.379420 0.499980 0.382980 -0.613210
O5    O     O_R   0.500010 0.678080 0.617100 -0.570313
O6    O     O_R   0.499990 0.678040 0.382960 -0.591498
O7    O     O_R   0.620580 0.500020 0.617020 -0.561759
O8    O     O_R   0.620550 0.499970 0.382880 -0.567911
C23   C     C_2   0.884065 0.356503 0.711071 0.889694
O9    O     O_2   0.810786 0.375748 0.744220 -0.583234
O10   O     O_R   0.909768 0.237734 0.725614 -0.724738
H7    H     H_    0.863818 0.180353 0.764970 0.349118
C24   C     C_3   0.093771 0.519265 0.775710 -0.332931
C25   C     C_3   0.123349 0.654845 0.779783 -0.819171
H8    H     H_    0.167035 0.678545 0.692800 0.246758
H9    H     H_    0.071942 0.718783 0.789096 0.235623
H10   H     H_    0.160116 0.671906 0.873268 0.276456
H11   H     H_    0.061455 0.498549 0.874575 0.233717
H12   H     H_    0.154963 0.475635 0.786212 0.220624
C26   C     C_3   0.914588 0.578419 0.742156 -0.365085
C27   C     C_3   0.909263 0.563377 0.898705 -0.745162
H13   H     H_    0.844537 0.579690 0.938996 0.247642
H14   H     H_    0.925289 0.471288 0.930797 0.247865
H15   H     H_    0.952477 0.631659 0.947981 0.272202
H16   H     H_    0.953416 0.660921 0.720661 0.191373
H17   H     H_    0.850968 0.604555 0.713573 0.214877
C28   C     C_2   0.925933 0.655178 0.306627 0.869650
O11   O     O_2   0.972549 0.655770 0.205179 -0.644211
O12   O     O_R   0.845168 0.699293 0.298030 -0.776141
H18   H     H_    0.832552 0.725416 0.202376 0.335686
C29   C     C_3   0.419267 0.866877 0.283875 -0.309360
C30   C     C_3   0.364397 0.951980 0.209727 -0.837369
H19   H     H_    0.327209 0.006677 0.284510 0.283402
H20   H     H_    0.404683 0.011454 0.142231 0.277547
H21   H     H_    0.320119 0.897834 0.144641 0.245787
H22   H     H_    0.461345 0.822384 0.207029 0.217948
H23   H     H_    0.375544 0.796391 0.330828 0.212885
C31   C     C_2   0.556587 0.098930 0.283726 0.876850
O13   O     O_2   0.535574 0.157551 0.186663 -0.581322
O14   O     O_R   0.639636 0.064232 0.292233 -0.741655
H24   H     H_    0.676968 0.095190 0.213231 0.341975
C32   C     C_2   0.410382 0.090593 0.608042 0.885105
O15   O     O_2   0.421579 0.122311 0.726637 -0.547967
O16   O     O_R   0.340948 0.013661 0.576568 -0.764186
H25   H     H_    0.305163 0.990266 0.660403 0.331866
C33   C     C_2   0.350450 0.450544 0.872077 0.919050
O17   O     O_2   0.297274 0.524358 0.901421 -0.655889
O18   O     O_R   0.330230 0.346648 0.792565 -0.716156
H26   H     H_    0.269449 0.342386 0.764410 0.320217
C34   C     C_3   0.371969 0.362082 0.146375 -0.295752
C35   C     C_3   0.348167 0.242823 0.071535 -0.772902
H27   H     H_    0.295010 0.253765 0.003779 0.266346
H28   H     H_    0.403039 0.205315 0.014713 0.306765
H29   H     H_    0.322533 0.176571 0.147324 0.239820
H30   H     H_    0.390239 0.332359 0.246130 0.275965
H31   H     H_    0.314640 0.415616 0.161444 0.215202
C36   C     C_2   0.069575 0.317493 0.682101 0.871414
O19   O     O_2   0.055199 0.276321 0.796488 -0.570932
O20   O     O_R   0.121242 0.252081 0.592429 -0.723493
H32   H     H_    0.136325 0.170565 0.629555 0.351009
C37   C     C_2   0.103143 0.299585 0.322955 0.976600
O21   O     O_2   0.179497 0.302348 0.333777 -0.594810
O22   O     O_R   0.065899 0.205771 0.243951 -0.754248
H33   H     H_    0.107623 0.144413 0.208940 0.338828
C38   C     C_2   0.923152 0.252867 0.442062 0.919442
O23   O     O_2   0.848105 0.224071 0.454063 -0.582759
O24   O     O_R   0.981217 0.167028 0.474349 -0.709540
H34   H     H_    0.953597 0.086502 0.504518 0.348270
C39   C     C_3   0.918777 0.378154 0.236019 -0.391641
C40   C     C_3   0.824704 0.386297 0.208526 -0.760309
H35   H     H_    0.784175 0.323744 0.271890 0.288065
H36   H     H_    0.804254 0.480753 0.221647 0.264265
H37   H     H_    0.813942 0.360296 0.100105 0.243741
H38   H     H_    0.952749 0.446097 0.171264 0.227851
H39   H     H_    0.936518 0.291082 0.186051 0.250389
C41   C     C_3   0.110299 0.702312 0.373791 -0.372610
C42   C     C_3   0.088675 0.837173 0.374359 -0.741480
H40   H     H_    0.024451 0.850346 0.339000 0.272289
H41   H     H_    0.093860 0.877195 0.478941 0.239383
H42   H     H_    0.133957 0.888202 0.305448 0.246148
H43   H     H_    0.175969 0.703674 0.408535 0.195883
H44   H     H_    0.113424 0.664141 0.268417 0.252945

loop_
_geom_bond_atom_site_label_1
_geom_bond_atom_site_label_2
_ccdc_geom_bond_type
C39   H39   S    
C37   O21   D    
C2    C18   S    
C23   O9    D    
O22   H33   S    
C14   N1    D    
C3    C6    S    
C38   O23   D    
C11   C31   S    
C1    O1    A    
C7    C8    T    
C27   H13   S    
C25   H10   S    
C39   C40   S    
C32   O16   S    
C35   H27   S    
C42   H41   S    
C34   H31   S    
C24   H12   S    
C2    C23   S    
C34   H30   S    
C41   C42   S    
C40   H37   S    
C17   O7    A    
C41   H44   S    
C25   H8    S    
C5    C22   S    
C19   C20   S    
Cu1   O1    S    
Cu2   O6    S    
Cu1   Cu2   S    
C31   O13   D    
C36   O20   S    
C9    C10   D    
C19   C37   S    
C16   O5    A    
C28   O11   D    
C37   O22   S    
C18   C22   S    
C23   O10   S    
O12   H18   S    
C38   O24   S    
C1    O2    A    
C15   C34   S    
C5    H5    S    
C27   H14   S    
C26   H17   S    
C25   H9    S    
C28   O12   S    
C32   O15   D    
C20   C38   S    
C30   H21   S    
C29   H23   S    
C15   N2    D    
C19   C22   S    
O16   H25   S    
C42   H42   S    
O20   H32   S    
C33   O17   D    
O18   H26   S    
C20   C39   S    
Cu1   N1    S    
Cu1   O5    S    
C6    C21   T    
Cu2   O2    S    
C17   O8    A    
C30   H20   S    
C41   H43   S    
O10   H7    S    
Cu2   N2    S    
O24   H34   S    
C8    C12   S    
C3    C20   S    
Cu2   O4    S    
C12   O3    A    
C40   H36   S    
C19   H4    S    
C9    C11   S    
C2    C26   S    
C10   H1    S    
C35   H28   S    
Cu1   O3    S    
C12   O4    A    
C3    C4    S    
C18   C24   S    
C26   C27   S    
C27   H15   S    
C39   H38   S    
C29   H22   S    
H3    N2    S    
C9    C29   S    
C18   C36   S    
O14   H24   S    
C7    C22   S    
C30   H19   S    
C2    C3    S    
C10   C16   S    
C42   H40   S    
C11   C13   D    
C24   H11   S    
Cu1   O7    S    
C4    C5    S    
C4    C28   S    
Cu2   O8    S    
C33   O18   S    
C14   C33   S    
C40   H35   S    
C17   C21   S    
C26   H16   S    
C29   C30   S    
C24   C25   S    
H2    N1    S    
C35   H29   S    
C1    C13   S    
C13   C32   S    
C34   C35   S    
C14   C15   S    
C31   O14   S    
C36   O19   D    
C4    H6    S    
C16   O6    A    
C5    C41   S    
