data_mof_unit_2775.cif
_audit_creation_date              2012-12-10T21:03:36-0500
_audit_creation_method            fapswitch 2.2
_symmetry_space_group_name_H-M    P1
_symmetry_Int_Tables_number       1
_space_group_crystal_system       triclinic
_cell_length_a                    15.853042
_cell_length_b                    15.053967
_cell_length_c                    23.056927
_cell_angle_alpha                 90.431277
_cell_angle_beta                  89.492718
_cell_angle_gamma                 91.555964
_cell_volume                      5500.17199078

loop_
_atom_site_label
_atom_site_type_symbol
_atom_type_description
_atom_site_fract_x
_atom_site_fract_y
_atom_site_fract_z
_atom_type_partial_charge
C1    C     C_R   0.338909 0.498668 0.500089 0.955615
C2    C     C_R   0.661230 0.501124 0.499777 0.887830
C3    C     C_R   0.528229 0.525199 0.227301 0.391959
C4    C     C_R   0.370816 0.477276 0.747773 0.371094
C5    C     C_R   0.545285 0.529048 0.287022 0.266815
C6    C     C_R   0.391756 0.496668 0.689911 0.303448
C7    C     C_R   0.483269 0.499504 0.326907 -0.348402
C8    C     C_R   0.477500 0.500156 0.672673 -0.396438
C9    C     C_R   0.401882 0.474562 0.308317 0.289925
C10   C     C_R   0.541849 0.497757 0.713888 0.302361
C11   C     C_R   0.381304 0.484586 0.249882 0.366127
C12   C     C_R   0.519991 0.494670 0.772802 0.366773
C13   C     C_R   0.445110 0.504300 0.209249 -0.064584
C14   C     C_R   0.435131 0.480614 0.789302 -0.059029
C15   C     C_R   0.962300 0.575008 0.481884 0.363720
C16   C     C_R   0.039291 0.422417 0.524982 0.329392
C17   C     C_R   0.049726 0.573643 0.486571 0.315016
C18   C     C_R   0.951071 0.425232 0.522834 0.311564
C19   C     C_R   0.913605 0.501542 0.501414 -0.211963
C20   C     C_R   0.087331 0.496865 0.506957 -0.210144
C21   C     C_1   0.824572 0.503876 0.500253 0.114700
C22   C     C_1   0.176091 0.493704 0.505501 0.117903
C23   C     C_1   0.250758 0.495187 0.502914 -0.159287
C24   C     C_1   0.749706 0.503526 0.499849 -0.160061
C25   C     C_R   0.500243 0.499825 0.388696 1.036628
C26   C     C_R   0.498194 0.500380 0.611211 1.014387
C27   C     C_R   0.462391 0.951511 0.454431 0.248714
C28   C     C_R   0.544700 0.048754 0.543860 0.262249
C29   C     C_R   0.534646 0.954188 0.547930 0.333385
C30   C     C_R   0.452843 0.045409 0.458990 0.284193
C31   C     C_R   0.498901 0.905170 0.500896 -0.348517
C32   C     C_R   0.499388 0.094769 0.501139 -0.355762
C33   C     C_1   0.499511 0.807088 0.500389 0.388228
C34   C     C_1   0.499954 0.192902 0.500588 0.380817
C35   C     C_R   0.423892 0.402325 0.879754 0.687755
C36   C     C_R   0.409366 0.573537 0.119234 0.617857
C37   C     C_R   0.395663 0.557309 0.876495 0.609224
C38   C     C_R   0.426803 0.416457 0.122761 0.659375
C39   C     C_R   0.392112 0.562629 0.937308 -0.127915
C40   C     C_R   0.419733 0.409173 0.062186 -0.121487
C41   C     C_R   0.404412 0.484229 0.969245 -0.080279
C42   C     C_R   0.406817 0.487487 0.030265 -0.062570
C43   C     C_R   0.417211 0.402977 0.940177 -0.097067
C44   C     C_R   0.398733 0.569640 0.059207 -0.066205
C45   C     C_R   0.381388 0.644195 0.967032 0.491367
C46   C     C_R   0.429127 0.327377 0.032479 0.491642
C47   C     C_R   0.383600 0.646539 0.027587 -0.252523
C48   C     C_R   0.426690 0.325040 0.971910 -0.247495
H1    H     H_    0.375170 0.709569 0.049582 0.202402
H2    H     H_    0.433848 0.261835 0.949880 0.199634
N1    N     N_R   0.414652 0.479015 0.849671 -0.294588
N2    N     N_R   0.425384 0.498065 0.149086 -0.299582
N3    N     N_1   0.500000 0.270550 0.500000 -0.060916
N4    N     N_1   0.500000 0.729450 0.500000 -0.072558
O1    O     O_R   0.378020 0.573650 0.500020 -0.628420
O2    O     O_R   0.621980 0.426350 0.499980 -0.599069
O3    O     O_R   0.621980 0.573650 0.499980 -0.613052
O4    O     O_R   0.378020 0.426350 0.500020 -0.594139
O5    O     O_R   0.499980 0.573680 0.416160 -0.613659
O6    O     O_R   0.500020 0.426320 0.583840 -0.607782
O7    O     O_R   0.500020 0.573680 0.583840 -0.616535
O8    O     O_R   0.499980 0.426320 0.416160 -0.608130
O9    O     O_2   0.441336 0.326350 0.851149 -0.532912
O10   O     O_2   0.405727 0.652152 0.147554 -0.558197
O11   O     O_2   0.383056 0.629909 0.844050 -0.542237
O12   O     O_2   0.437971 0.343620 0.155267 -0.509513
Zn1   Zn    Zn3+2 0.500000 0.598370 0.500000 1.025558
Zn2   Zn    Zn3+2 0.500000 0.401630 0.500000 1.055205
O13   O     O_3   0.366836 0.721758 0.937347 -0.583058
C49   C     C_3   0.442377 0.773754 0.935381 0.096422
H3    H     H_    0.495414 0.734695 0.917260 0.129588
H4    H     H_    0.459223 0.798400 0.979566 0.138159
C50   C     C_3   0.429671 0.853585 0.896203 -0.276732
H5    H     H_    0.412134 0.829830 0.852040 0.258836
H6    H     H_    0.377390 0.893808 0.913798 0.234851
C51   C     C_3   0.509663 0.911994 0.891992 -0.916432
H7    H     H_    0.527633 0.937768 0.935566 0.262099
H8    H     H_    0.498333 0.969266 0.863280 0.289565
H9    H     H_    0.562408 0.873463 0.873466 0.267704
O14   O     O_3   0.438088 0.248856 0.062339 -0.591652
C52   C     C_3   0.523353 0.224092 0.059107 0.102067
H10   H     H_    0.566110 0.279239 0.074625 0.171161
H11   H     H_    0.540907 0.205940 0.013747 0.125118
C53   C     C_3   0.535178 0.143359 0.097659 -0.267504
H12   H     H_    0.517857 0.160491 0.143136 0.268074
H13   H     H_    0.492844 0.087822 0.082804 0.231520
C54   C     C_3   0.626258 0.113092 0.095815 -0.926750
H14   H     H_    0.644445 0.094027 0.050870 0.263395
H15   H     H_    0.632657 0.054505 0.124258 0.281265
H16   H     H_    0.669620 0.167137 0.111455 0.277458
S1    S     S_3+6 0.610390 0.549424 0.176297 0.045792
O15   O     O_2   0.597643 0.498250 0.120731 -0.330927
O16   O     O_2   0.610781 0.647177 0.163510 -0.301533
O17   O     O_3   0.704313 0.522973 0.203785 -0.513379
H17   H     H_    0.746742 0.547749 0.176107 0.369725
S2    S     S_3+6 0.265637 0.447102 0.768449 0.058585
O18   O     O_2   0.266489 0.365796 0.805816 -0.255088
O19   O     O_2   0.227978 0.521752 0.802720 -0.307148
O20   O     O_3   0.205540 0.424484 0.710115 -0.498536
H18   H     H_    0.147714 0.414568 0.725806 0.373339
O21   O     O_3   0.623966 0.557403 0.306199 -0.594886
C55   C     C_3   0.624347 0.650598 0.315229 0.161122
H19   H     H_    0.609662 0.664196 0.361553 0.172541
H20   H     H_    0.578022 0.685855 0.287955 0.172762
C56   C     C_3   0.712189 0.689091 0.301347 -0.315115
H21   H     H_    0.759753 0.649238 0.323568 0.222477
H22   H     H_    0.724368 0.684733 0.253939 0.272523
C57   C     C_3   0.721322 0.786062 0.320630 -0.973166
H23   H     H_    0.674068 0.826806 0.298513 0.290747
H24   H     H_    0.785349 0.812362 0.309192 0.273462
H25   H     H_    0.712503 0.791820 0.368349 0.262829
O22   O     O_3   0.328501 0.509010 0.649883 -0.574274
C58   C     C_3   0.317560 0.601427 0.641514 0.080638
H26   H     H_    0.285713 0.609552 0.599342 0.161413
H27   H     H_    0.378425 0.639904 0.638539 0.159449
C59   C     C_3   0.261883 0.641908 0.689054 -0.307618
H28   H     H_    0.202606 0.601514 0.693828 0.277685
H29   H     H_    0.296200 0.642638 0.730815 0.261250
C60   C     C_3   0.239308 0.737125 0.674981 -0.933174
H30   H     H_    0.297243 0.778298 0.666404 0.290375
H31   H     H_    0.204861 0.766462 0.712303 0.289050
H32   H     H_    0.197680 0.737854 0.636592 0.252074
O23   O     O_3   0.340221 0.450223 0.348519 -0.651309
C61   C     C_3   0.318711 0.358973 0.341406 0.197911
H33   H     H_    0.368230 0.318144 0.361127 0.204207
H34   H     H_    0.312846 0.338861 0.294975 0.189338
C62   C     C_3   0.234438 0.339096 0.372051 -0.367601
H35   H     H_    0.245356 0.333788 0.419387 0.241843
H36   H     H_    0.190732 0.394376 0.365075 0.229140
C63   C     C_3   0.192564 0.253266 0.349372 -0.852864
H37   H     H_    0.179438 0.258778 0.302318 0.261974
H38   H     H_    0.131650 0.240787 0.372315 0.240468
H39   H     H_    0.233960 0.196192 0.356290 0.334927
O24   O     O_3   0.625500 0.508834 0.697237 -0.634444
C64   C     C_3   0.659743 0.425735 0.682408 0.146376
H40   H     H_    0.702635 0.437219 0.644704 0.123361
H41   H     H_    0.612120 0.374988 0.667020 0.169196
C65   C     C_3   0.712334 0.390608 0.732647 -0.378810
H42   H     H_    0.774507 0.369491 0.715792 0.171361
H43   H     H_    0.725435 0.444172 0.765010 0.267830
C66   C     C_3   0.668708 0.311571 0.762742 -0.744918
H44   H     H_    0.605975 0.329889 0.780012 0.302778
H45   H     H_    0.708020 0.289697 0.799315 0.247410
H46   H     H_    0.660321 0.255201 0.731795 0.276102
O25   O     O_3   0.298981 0.470471 0.231896 -0.608945
C67   C     C_3   0.257219 0.552546 0.230068 0.171276
H47   H     H_    0.233457 0.561853 0.185387 0.156366
H48   H     H_    0.298186 0.612260 0.240076 0.133468
C68   C     C_3   0.182558 0.551830 0.272638 -0.365968
H49   H     H_    0.205462 0.541304 0.317357 0.254248
H50   H     H_    0.152677 0.617701 0.271784 0.186919
C69   C     C_3   0.116320 0.480087 0.257389 -0.789896
H51   H     H_    0.090231 0.492246 0.213700 0.255212
H52   H     H_    0.063963 0.481340 0.289653 0.235460
H53   H     H_    0.144253 0.413279 0.257997 0.290054
O26   O     O_3   0.581774 0.496024 0.814761 -0.603085
C70   C     C_3   0.607861 0.584885 0.825975 0.105982
H54   H     H_    0.553386 0.627579 0.836349 0.139610
H55   H     H_    0.642088 0.613163 0.787725 0.162810
C71   C     C_3   0.668278 0.587612 0.877332 -0.381379
H56   H     H_    0.722854 0.544982 0.867552 0.232487
H57   H     H_    0.692572 0.656911 0.883748 0.185021
C72   C     C_3   0.625204 0.556032 0.933333 -0.736214
H58   H     H_    0.572433 0.599839 0.944995 0.223412
H59   H     H_    0.671446 0.558358 0.969227 0.257999
H60   H     H_    0.600646 0.486604 0.928462 0.277055
O27   O     O_3   0.098460 0.642185 0.462926 -0.628426
C73   C     C_3   0.123743 0.702210 0.507114 0.079063
H61   H     H_    0.161518 0.668330 0.540424 0.131223
H62   H     H_    0.067701 0.732216 0.528265 0.169798
C74   C     C_3   0.178365 0.776092 0.479558 -0.271405
H63   H     H_    0.230513 0.745883 0.454359 0.266748
H64   H     H_    0.139322 0.814205 0.449177 0.236664
C75   C     C_3   0.216280 0.839542 0.524827 -0.911324
H65   H     H_    0.166030 0.866465 0.553289 0.258766
H66   H     H_    0.249576 0.895858 0.502761 0.297247
H67   H     H_    0.262798 0.804580 0.551478 0.265986
O28   O     O_3   0.901938 0.349288 0.532696 -0.630824
C76   C     C_3   0.891805 0.333776 0.592715 0.116602
H68   H     H_    0.833116 0.365784 0.607778 0.141199
H69   H     H_    0.945404 0.360196 0.619416 0.152801
C77   C     C_3   0.883539 0.233297 0.601859 -0.306853
H70   H     H_    0.836685 0.204057 0.571106 0.263994
H71   H     H_    0.945356 0.202942 0.592654 0.215721
C78   C     C_3   0.855760 0.210145 0.663486 -0.853878
H72   H     H_    0.897316 0.244372 0.695650 0.247253
H73   H     H_    0.859103 0.137278 0.669781 0.289221
H74   H     H_    0.789462 0.229488 0.670637 0.287123
O29   O     O_3   0.925387 0.651314 0.462115 -0.606040
C79   C     C_3   0.900625 0.640073 0.403608 0.099793
H75   H     H_    0.853972 0.691847 0.394992 0.178713
H76   H     H_    0.868296 0.574623 0.395240 0.126017
C80   C     C_3   0.975391 0.653775 0.361480 -0.323935
H77   H     H_    0.008987 0.717705 0.371622 0.260650
H78   H     H_    0.020107 0.598846 0.366227 0.232962
C81   C     C_3   0.946326 0.654877 0.298586 -0.972903
H79   H     H_    0.911511 0.592025 0.287629 0.276685
H80   H     H_    0.001961 0.661793 0.269263 0.277709
H81   H     H_    0.905043 0.712005 0.291324 0.274614
O30   O     O_3   0.078545 0.350733 0.549311 -0.606448
C82   C     C_3   0.083121 0.281156 0.508164 0.101445
H82   H     H_    0.116759 0.304209 0.468355 0.131244
H83   H     H_    0.019017 0.255756 0.496248 0.180596
C83   C     C_3   0.131670 0.205265 0.534637 -0.329551
H84   H     H_    0.197769 0.228146 0.542794 0.244035
H85   H     H_    0.102273 0.186395 0.576877 0.236839
C84   C     C_3   0.131712 0.123576 0.495024 -0.918087
H86   H     H_    0.066127 0.098529 0.487554 0.264497
H87   H     H_    0.167713 0.070186 0.515650 0.274733
H88   H     H_    0.161996 0.139950 0.452777 0.301444
S3    S     S_3+6 0.379956 0.102000 0.414670 0.035025
O31   O     O_2   0.425708 0.137320 0.361988 -0.249129
O32   O     O_2   0.308369 0.041267 0.395893 -0.237620
O33   O     O_3   0.338507 0.187845 0.451085 -0.608603
H89   H     H_    0.317462 0.162121 0.488040 0.344836
S4    S     S_3+6 0.563131 0.896015 0.611886 0.073574
O34   O     O_2   0.651714 0.864278 0.604657 -0.267284
O35   O     O_2   0.557964 0.954732 0.664715 -0.201402
O36   O     O_3   0.497629 0.807657 0.622599 -0.601947
H90   H     H_    0.523498 0.773723 0.654173 0.379966
S5    S     S_3+6 0.614691 0.110515 0.590560 0.057847
O37   O     O_2   0.565734 0.142472 0.642399 -0.238955
O38   O     O_2   0.685715 0.054622 0.610717 -0.228818
O39   O     O_3   0.657455 0.199588 0.556532 -0.577266
H91   H     H_    0.688939 0.174829 0.523097 0.344765
S6    S     S_3+6 0.431896 0.891496 0.390371 0.083335
O40   O     O_2   0.343039 0.856097 0.397943 -0.253893
O41   O     O_2   0.436460 0.949960 0.337837 -0.189513
O42   O     O_3   0.495018 0.805282 0.378090 -0.576617
H92   H     H_    0.552421 0.832343 0.374426 0.333820

loop_
_geom_bond_atom_site_label_1
_geom_bond_atom_site_label_2
_ccdc_geom_bond_type
C64   C65   S    
C46   O14   S    
C74   H63   S    
C7    C9    A    
C70   H54   S    
O14   C52   S    
C50   H6    S    
C41   C42   A    
C56   H21   S    
C36   O10   S    
C72   H58   S    
C51   H9    S    
C54   H14   S    
O39   H91   S    
O25   C67   S    
C82   H83   S    
C2    O3    A    
C64   H40   S    
C39   C41   A    
C57   H23   S    
C15   C19   A    
C80   H77   S    
C74   H64   S    
O21   C55   S    
C28   C29   A    
C19   C21   S    
C26   O7    A    
C51   H8    S    
C67   H47   S    
S5    O39   S    
C68   H50   S    
C37   N1    A    
C78   H73   S    
C38   N2    A    
C13   N2    S    
S2    O20   S    
C33   N4    T    
C17   C20   A    
C8    C26   S    
C59   H28   S    
C55   C56   S    
C3    S1    S    
C18   C19   A    
C82   H82   S    
N3    Zn2   S    
S5    O37   D    
C77   H70   S    
C79   C80   S    
O5    Zn1   S    
C4    S2    S    
C53   H12   S    
C73   C74   S    
C14   N1    S    
C59   H29   S    
O30   C82   S    
C80   H78   S    
C37   O11   S    
C84   H88   S    
S4    O36   S    
C49   H3    S    
C20   C22   S    
C35   C43   A    
C43   C48   A    
C3    C13   A    
C44   C47   A    
C39   C45   A    
C76   C77   S    
C73   H62   S    
C15   O29   S    
C70   H55   S    
C38   C40   A    
C27   C30   A    
C29   C31   A    
C82   C83   S    
C41   C43   A    
C55   H19   S    
C42   C44   A    
O3    Zn1   S    
C81   H81   S    
O22   C58   S    
C56   C57   S    
O27   C73   S    
C52   H10   S    
C67   H48   S    
C45   C47   A    
C50   H5    S    
C74   C75   S    
C5    O21   S    
C27   C31   A    
C84   H86   S    
C71   C72   S    
O28   C76   S    
O23   C61   S    
C72   H60   S    
C51   H7    S    
C47   H1    S    
C17   O27   S    
C66   H46   S    
S1    O15   D    
C5    C7    A    
O33   H89   S    
C28   S5    S    
C29   S4    S    
C6    C8    A    
N4    Zn1   S    
C3    C5    A    
O2    Zn2   S    
C45   O13   S    
S2    O19   D    
C77   C78   S    
C71   H57   S    
C63   H38   S    
C62   H36   S    
C79   H75   S    
C35   O9    S    
O42   H92   S    
S1    O16   D    
C67   C68   S    
C56   H22   S    
O7    Zn1   S    
S3    O31   D    
C69   H53   S    
C28   C32   A    
C16   C20   A    
C80   C81   S    
S2    O18   D    
C49   C50   S    
C31   C33   S    
C35   N1    A    
O17   H17   S    
C57   H25   S    
S4    O34   D    
C55   H20   S    
C48   H2    S    
C9    C11   A    
C75   H67   S    
O6    Zn2   S    
C60   H31   S    
C10   C12   A    
C61   C62   S    
C4    C6    A    
C73   H61   S    
S3    O32   D    
C12   C14   A    
C1    C23   S    
C70   C71   S    
S6    O41   D    
C54   H15   S    
C2    C24   S    
C50   C51   S    
C21   C24   T    
C68   C69   S    
C63   H39   S    
C12   O26   S    
C62   H35   S    
O36   H90   S    
C52   C53   S    
C61   H34   S    
C58   H26   S    
C69   H52   S    
C60   H32   S    
O4    Zn2   S    
O29   C79   S    
C64   H41   S    
C38   O12   S    
O26   C70   S    
C79   H76   S    
C72   H59   S    
C6    O22   S    
C8    C10   A    
C11   O25   S    
C10   O24   S    
C83   H85   S    
C81   H79   S    
C78   H74   S    
C65   C66   S    
C16   O30   S    
C52   H11   S    
O1    Zn1   S    
C60   H30   S    
C59   C60   S    
C27   S6    S    
C15   C17   A    
O24   C64   S    
C65   H43   S    
C53   C54   S    
S6    O42   S    
C36   N2    A    
C7    C25   S    
O20   H18   S    
O8    Zn2   S    
S5    O38   D    
C71   H56   S    
C58   C59   S    
C66   H45   S    
C63   H37   S    
C1    O1    A    
C62   C63   S    
C37   C39   A    
C2    O2    A    
C68   H49   S    
S1    O17   S    
C30   C32   A    
C11   C13   A    
C78   H72   S    
C30   S3    S    
C40   C46   A    
C40   C42   A    
C9    O23   S    
C75   H66   S    
C57   H24   S    
C83   C84   S    
C25   O8    A    
C4    C14   A    
O13   C49   S    
C77   H71   S    
C81   H80   S    
C36   C44   A    
C65   H42   S    
C76   H68   S    
C46   C48   A    
C1    O4    A    
S3    O33   S    
C83   H84   S    
C18   O28   S    
C34   N3    T    
C16   C18   A    
S6    O40   D    
C54   H16   S    
C84   H87   S    
C22   C23   T    
C53   H13   S    
C49   H4    S    
C69   H51   S    
C25   O5    A    
C76   H69   S    
C66   H44   S    
C26   O6    A    
S4    O35   D    
C32   C34   S    
C61   H33   S    
C58   H27   S    
C75   H65   S    
