data_mof_unit_1149.cif
_audit_creation_date              2012-12-11T14:11:02-0500
_audit_creation_method            fapswitch 2.2
_symmetry_space_group_name_H-M    P1
_symmetry_Int_Tables_number       1
_space_group_crystal_system       monoclinic
_cell_length_a                    19.717457
_cell_length_b                    17.196743
_cell_length_c                    15.504455
_cell_angle_alpha                 90.0
_cell_angle_beta                  52.422338
_cell_angle_gamma                 90.0
_cell_volume                      4166.46682184

loop_
_atom_site_label
_atom_site_type_symbol
_atom_type_description
_atom_site_fract_x
_atom_site_fract_y
_atom_site_fract_z
_atom_type_partial_charge
C1    C     C_R   0.377675 0.197664 0.989764 -0.127978
C2    C     C_3   0.757795 0.774154 0.440366 -0.163296
C3    C     C_3   0.664947 0.278820 0.464878 -0.157861
C4    C     C_3   0.335053 0.721180 0.535122 -0.157862
C5    C     C_3   0.835052 0.778819 0.535122 -0.157862
C6    C     C_3   0.164947 0.221180 0.464878 -0.157862
C7    C     C_3   0.257795 0.725846 0.440366 -0.163296
C8    C     C_3   0.742205 0.274154 0.559634 -0.163297
C9    C     C_2   0.188190 0.744158 0.098115 -0.211535
C10   C     C_2   0.811810 0.255842 0.901885 -0.211535
C11   C     C_2   0.712127 0.686824 0.047539 -0.205129
C12   C     C_R   0.622325 0.802336 0.010236 -0.127978
C13   C     C_2   0.287873 0.313176 0.952461 -0.205128
C14   C     C_2   0.787872 0.186824 0.952461 -0.205127
C15   C     C_2   0.212127 0.813176 0.047539 -0.205128
C16   C     C_2   0.311810 0.244158 0.901885 -0.211535
C17   C     C_2   0.688190 0.755842 0.098115 -0.211534
C18   C     C_R   0.394613 0.801916 0.212489 0.032847
C19   C     C_R   0.605386 0.198084 0.787511 0.032847
C20   C     C_R   0.650159 0.826428 0.776497 0.048044
C21   C     C_R   0.349840 0.173572 0.223503 0.048044
C22   C     C_R   0.849840 0.326428 0.223503 0.048044
C23   C     C_R   0.661886 0.173993 0.949761 -0.130269
C24   C     C_R   0.150159 0.673572 0.776497 0.048044
C25   C     C_R   0.105386 0.301916 0.787511 0.032847
C26   C     C_R   0.894613 0.698084 0.212489 0.032847
C27   C     C_R   0.329571 0.913370 0.951481 -0.157388
C28   C     C_R   0.670429 0.086630 0.048519 -0.157389
C29   C     C_R   0.634130 0.890077 0.103681 -0.158355
C30   C     C_R   0.365870 0.109923 0.896319 -0.158355
C31   C     C_R   0.865870 0.390077 0.896319 -0.158355
C32   C     C_R   0.134130 0.609923 0.103681 -0.158355
C33   C     C_R   0.170429 0.413370 0.048519 -0.157388
C34   C     C_R   0.338114 0.826007 0.050239 -0.130269
C35   C     C_R   0.829571 0.586630 0.951481 -0.157388
C36   C     C_R   0.357738 0.079726 0.317196 -0.159303
C37   C     C_R   0.642262 0.920274 0.682804 -0.159303
C38   C     C_R   0.599999 0.105537 0.691431 -0.172258
C39   C     C_R   0.400000 0.894463 0.308569 -0.172258
C40   C     C_R   0.900000 0.605537 0.308569 -0.172258
C41   C     C_R   0.099999 0.394463 0.691431 -0.172257
C42   C     C_R   0.142262 0.579726 0.682804 -0.159303
C43   C     C_R   0.857738 0.420274 0.317196 -0.159303
C44   C     C_R   0.349069 0.186112 0.929385 0.158341
C45   C     C_R   0.838114 0.673993 0.050239 -0.130269
C46   C     C_R   0.650931 0.813888 0.070615 0.158341
C47   C     C_R   0.713512 0.147252 0.975615 0.157342
C48   C     C_R   0.286488 0.852748 0.024385 0.157342
C49   C     C_R   0.786488 0.647252 0.024385 0.157342
C50   C     C_R   0.213512 0.352748 0.975615 0.157342
C51   C     C_R   0.150931 0.686112 0.070615 0.158341
C52   C     C_R   0.849069 0.313888 0.929385 0.158341
C53   C     C_R   0.380026 0.818351 0.309085 0.027756
C54   C     C_R   0.619974 0.181649 0.690915 0.027756
C55   C     C_R   0.691285 0.859832 0.674736 0.007139
C56   C     C_R   0.161886 0.326007 0.949761 -0.130269
C57   C     C_R   0.308715 0.140168 0.325263 0.007139
C58   C     C_R   0.808715 0.359832 0.325264 0.007139
C59   C     C_R   0.191285 0.640168 0.674736 0.007139
C60   C     C_R   0.119974 0.318351 0.690915 0.027756
C61   C     C_R   0.880025 0.681649 0.309085 0.027756
C62   C     C_3   0.209037 0.151432 0.541245 -0.166961
C63   C     C_3   0.790963 0.848568 0.458755 -0.166962
C64   C     C_3   0.698075 0.204344 0.483803 -0.161137
C65   C     C_3   0.301925 0.795656 0.516196 -0.161137
C66   C     C_3   0.801925 0.704344 0.516196 -0.161137
C67   C     C_R   0.122325 0.697664 0.010236 -0.127978
C68   C     C_3   0.198075 0.295656 0.483803 -0.161137
C69   C     C_3   0.290963 0.651432 0.458755 -0.166961
C70   C     C_3   0.709037 0.348568 0.541245 -0.166960
C71   C     C_3   0.718418 0.745534 0.555650 -0.125478
C72   C     C_3   0.281582 0.254466 0.444350 -0.125478
C73   C     C_3   0.375508 0.693157 0.417550 -0.139726
C74   C     C_3   0.624492 0.306843 0.582450 -0.139727
C75   C     C_3   0.124492 0.193157 0.582450 -0.139726
C76   C     C_3   0.875508 0.806843 0.417550 -0.139725
C77   C     C_3   0.781582 0.245534 0.444350 -0.125478
C78   C     C_R   0.877675 0.302336 0.989764 -0.127979
C79   C     C_3   0.218418 0.754466 0.555650 -0.125478
C80   C     C_3   0.751798 0.819299 0.573702 0.194800
C81   C     C_3   0.248202 0.180701 0.426298 0.194800
C82   C     C_3   0.341015 0.766807 0.401170 0.188461
C83   C     C_3   0.658984 0.233193 0.598830 0.188462
C84   C     C_3   0.158985 0.266807 0.598830 0.188462
C85   C     C_3   0.841015 0.733193 0.401170 0.188461
C86   C     C_3   0.748202 0.319299 0.426298 0.194799
C87   C     C_3   0.251798 0.680701 0.573702 0.194800
C88   C     C_3   0.242205 0.225846 0.559634 -0.163296
H1    H     H_    0.391431 0.253381 0.007240 0.082689
H2    H     H_    0.690610 0.053046 0.088213 0.096046
H3    H     H_    0.638199 0.916773 0.163568 0.089186
H4    H     H_    0.361800 0.083227 0.836432 0.089186
H5    H     H_    0.861800 0.416773 0.836432 0.089186
H6    H     H_    0.138199 0.583227 0.163568 0.089186
H7    H     H_    0.190610 0.446954 0.088213 0.096045
H8    H     H_    0.809390 0.553046 0.911787 0.096045
H9    H     H_    0.347140 0.045175 0.382552 0.103204
H10   H     H_    0.652860 0.954825 0.617448 0.103204
H11   H     H_    0.594559 0.077054 0.633738 0.094400
H12   H     H_    0.608569 0.746619 0.992760 0.082689
H13   H     H_    0.405440 0.922946 0.366261 0.094400
H14   H     H_    0.905440 0.577054 0.366261 0.094400
H15   H     H_    0.094559 0.422946 0.633738 0.094400
H16   H     H_    0.152860 0.545175 0.617448 0.103204
H17   H     H_    0.847140 0.454825 0.382552 0.103204
H18   H     H_    0.214249 0.091391 0.562945 0.106630
H19   H     H_    0.785751 0.908609 0.437055 0.106630
H20   H     H_    0.693581 0.144610 0.460559 0.104454
H21   H     H_    0.306418 0.855390 0.539441 0.104454
H22   H     H_    0.806418 0.644610 0.539441 0.104454
H23   H     H_    0.673625 0.222118 0.898254 0.088654
H24   H     H_    0.193582 0.355390 0.460559 0.104454
H25   H     H_    0.285751 0.591391 0.437055 0.106630
H26   H     H_    0.714249 0.408609 0.562945 0.106629
H27   H     H_    0.273447 0.228905 0.599648 0.107873
H28   H     H_    0.726553 0.771095 0.400352 0.107873
H29   H     H_    0.635008 0.282301 0.423292 0.112264
H30   H     H_    0.364992 0.717700 0.576708 0.112264
H31   H     H_    0.864992 0.782300 0.576708 0.112264
H32   H     H_    0.135008 0.217700 0.423292 0.112264
H33   H     H_    0.226553 0.728905 0.400352 0.107873
H34   H     H_    0.326374 0.777882 0.101745 0.088654
H35   H     H_    0.773447 0.271094 0.599647 0.107873
H36   H     H_    0.209476 0.724227 0.144335 0.122824
H37   H     H_    0.790524 0.275773 0.855665 0.122824
H38   H     H_    0.689396 0.666389 0.003143 0.123154
H39   H     H_    0.310604 0.333611 0.996857 0.123153
H40   H     H_    0.810604 0.166389 0.996857 0.123153
H41   H     H_    0.189396 0.833611 0.003143 0.123153
H42   H     H_    0.290524 0.224227 0.855665 0.122824
H43   H     H_    0.709476 0.775773 0.144335 0.122824
H44   H     H_    0.446062 0.729603 0.083075 0.093531
H45   H     H_    0.826374 0.722118 0.101745 0.088654
H46   H     H_    0.353128 0.698958 0.199216 0.082068
H47   H     H_    0.553938 0.270396 0.916925 0.093531
H48   H     H_    0.646872 0.301042 0.800784 0.082068
H49   H     H_    0.603081 0.723781 0.857140 0.087750
H50   H     H_    0.706222 0.744929 0.807713 0.099479
H51   H     H_    0.396919 0.276219 0.142860 0.087750
H52   H     H_    0.293778 0.255071 0.192287 0.099479
H53   H     H_    0.896919 0.223781 0.142860 0.087750
H54   H     H_    0.793778 0.244929 0.192287 0.099479
H55   H     H_    0.103081 0.776219 0.857140 0.087750
H56   H     H_    0.173625 0.277882 0.898254 0.088654
H57   H     H_    0.206222 0.755071 0.807713 0.099479
H58   H     H_    0.053938 0.229603 0.916925 0.093531
H59   H     H_    0.146872 0.198958 0.800784 0.082068
H60   H     H_    0.946062 0.770396 0.083075 0.093531
H61   H     H_    0.853128 0.801042 0.199216 0.082068
H62   H     H_    0.652971 0.721147 0.613490 0.115014
H63   H     H_    0.347028 0.278853 0.386510 0.115014
H64   H     H_    0.441241 0.669961 0.357934 0.119083
H65   H     H_    0.558759 0.330039 0.642066 0.119083
H66   H     H_    0.058759 0.169961 0.642066 0.119083
H67   H     H_    0.108569 0.753381 0.992760 0.082689
H68   H     H_    0.941241 0.830039 0.357934 0.119082
H69   H     H_    0.847028 0.221147 0.386510 0.115014
H70   H     H_    0.152971 0.778852 0.613490 0.115014
H71   H     H_    0.891431 0.246619 0.007240 0.082690
H72   H     H_    0.309390 0.946954 0.911787 0.096045
N1    N     N_R   0.408680 0.130810 0.995780 -0.045062
N2    N     N_R   0.578590 0.132790 0.846380 -0.051139
N3    N     N_R   0.578590 0.867210 0.846380 -0.056889
N4    N     N_R   0.421410 0.132790 0.153620 -0.056889
N5    N     N_R   0.921410 0.367210 0.153620 -0.056889
N6    N     N_R   0.078590 0.632790 0.846380 -0.056889
N7    N     N_R   0.078590 0.367210 0.846380 -0.051139
N8    N     N_R   0.921410 0.632790 0.153620 -0.051139
N9    N     N_R   0.403840 0.921910 0.935760 -0.040629
N10   N     N_R   0.596160 0.078090 0.064240 -0.040629
N11   N     N_R   0.596160 0.921910 0.064240 -0.036725
N12   N     N_R   0.591320 0.869190 0.004220 -0.045062
N13   N     N_R   0.403840 0.078090 0.935760 -0.036725
N14   N     N_R   0.903840 0.421910 0.935760 -0.036725
N15   N     N_R   0.096160 0.578090 0.064240 -0.036725
N16   N     N_R   0.096160 0.421910 0.064240 -0.040629
N17   N     N_R   0.903840 0.578090 0.935760 -0.040629
N18   N     N_R   0.426250 0.076100 0.213650 -0.044137
N19   N     N_R   0.573750 0.923900 0.786350 -0.044137
N20   N     N_R   0.573750 0.076100 0.786350 -0.037448
N21   N     N_R   0.426250 0.923900 0.213650 -0.037448
N22   N     N_R   0.926250 0.576100 0.213650 -0.037448
N23   N     N_R   0.591320 0.130810 0.004220 -0.049556
N24   N     N_R   0.073750 0.423900 0.786350 -0.037448
N25   N     N_R   0.073750 0.576100 0.786350 -0.044137
N26   N     N_R   0.926250 0.423900 0.213650 -0.044137
N27   N     N_3   0.411782 0.725365 0.167349 -0.220147
N28   N     N_3   0.588218 0.274635 0.832651 -0.220147
N29   N     N_3   0.661713 0.747011 0.792088 -0.224930
N30   N     N_3   0.338287 0.252989 0.207912 -0.224930
N31   N     N_3   0.838287 0.247011 0.207912 -0.224930
N32   N     N_3   0.161713 0.752989 0.792088 -0.224930
N33   N     N_3   0.088218 0.225365 0.832651 -0.220147
N34   N     N_R   0.408680 0.869190 0.995780 -0.049556
N35   N     N_3   0.911782 0.774635 0.167349 -0.220147
N36   N     N_R   0.908680 0.630810 0.995780 -0.049556
N37   N     N_R   0.091320 0.369190 0.004220 -0.049556
N38   N     N_R   0.091320 0.630810 0.004220 -0.045062
N39   N     N_R   0.908680 0.369190 0.995780 -0.045062
N40   N     N_R   0.421410 0.867210 0.153620 -0.051139
Ni1   Ni    Ni4+2 0.500000 0.131570 0.000000 0.195436
Ni2   Ni    Ni4+2 0.500000 0.868430 0.000000 0.195437
Ni3   Ni    Ni4+2 1.000000 0.631570 0.000000 0.195437
Ni4   Ni    Ni4+2 1.000000 0.368430 0.000000 0.195437
Ni5   Ni    Ni4+2 0.488900 0.000000 0.862310 0.204871
Ni6   Ni    Ni4+2 0.511100 0.000000 0.137690 0.204870
Ni7   Ni    Ni4+2 0.988900 0.500000 0.862310 0.204870
Ni8   Ni    Ni4+2 0.011100 0.500000 0.137690 0.204870

loop_
_geom_bond_atom_site_label_1
_geom_bond_atom_site_label_2
_ccdc_geom_bond_type
C27   C48   A    
C35   N17   A    
C32   H6    S    
N11   N12   A    
N19   Ni5   S    
C28   C47   A    
C65   C79   S    
N17   N36   A    
N10   N23   A    
C17   H43   S    
C8    C83   S    
H52   N30   S    
C64   C77   S    
N25   Ni7   S    
H53   N31   S    
N16   N37   A    
C67   N38   A    
C10   C52   S    
C79   H70   S    
C79   C87   S    
C65   C82   S    
C25   N33   S    
C6    C75   S    
C12   N12   A    
C4    C87   S    
C39   C53   A    
C3    C64   S    
C70   H26   S    
C23   N23   A    
C66   C85   S    
C69   H25   S    
N14   N39   A    
N24   Ni7   S    
C5    H31   S    
C15   C48   S    
N1    Ni1   S    
N5    Ni4   S    
N10   Ni6   S    
N9    Ni5   S    
C4    C65   S    
C14   C47   S    
C75   C84   S    
C71   H62   S    
C63   C76   S    
N34   Ni2   S    
C58   C86   S    
C18   N27   S    
C9    H36   S    
C14   H40   S    
C2    C85   S    
C67   H67   S    
C43   H17   S    
H51   N30   S    
C33   N16   A    
C3    C74   S    
C70   C74   S    
C71   C80   S    
C3    H29   S    
C18   C53   A    
C22   N5    A    
C2    H28   S    
N7    N24   A    
C9    C51   S    
C35   C49   A    
H55   N32   S    
C41   N24   A    
C69   C73   S    
C36   H9    S    
C25   C60   A    
H59   N33   S    
C10   H37   S    
C16   H42   S    
C27   N9    A    
C30   N13   A    
N2    N20   A    
C72   C81   S    
C69   C87   S    
C34   N34   A    
C45   N36   A    
C6    C68   S    
C1    N1    A    
C34   H34   S    
C21   N4    A    
H48   N28   S    
C3    C86   S    
N37   Ni4   S    
C30   C44   A    
N15   Ni8   S    
C7    H33   S    
C20   C55   A    
C52   C78   A    
C26   N35   S    
C33   H7    S    
H44   N27   S    
C6    H32   S    
C54   C83   S    
C72   C88   S    
C64   H20   S    
C40   N22   A    
C63   C80   S    
H60   N35   S    
C37   N19   A    
C32   N15   A    
C38   N20   A    
N2    Ni1   S    
C68   C84   S    
C74   C83   S    
C11   H38   S    
C36   N18   A    
C17   C46   S    
C59   C87   S    
C12   C46   A    
C36   C57   A    
C10   C14   D    
C20   N29   S    
C5    C66   S    
C43   N26   A    
C27   H72   S    
C35   H8    S    
C20   N3    A    
C62   C88   S    
C76   H68   S    
C25   N7    A    
C40   C61   A    
C41   H15   S    
C74   H65   S    
C53   C82   S    
C5    C80   S    
C19   N2    A    
C37   C55   A    
N23   Ni1   S    
C24   N6    A    
C64   C83   S    
C21   C57   A    
C11   C49   S    
C13   H39   S    
C19   N28   S    
N1    N13   A    
C1    C44   A    
C66   C71   S    
C38   C54   A    
C45   C49   A    
C68   C72   S    
C39   H13   S    
C26   N8    A    
C37   H10   S    
C24   N32   S    
C51   C67   A    
N7    Ni4   S    
C29   N11   A    
N11   Ni6   S    
N12   Ni2   S    
C65   H21   S    
C4    C73   S    
C39   N21   A    
C61   C85   S    
H49   N29   S    
C19   C54   A    
C30   H4    S    
C62   C81   S    
C77   C86   S    
N8    N22   A    
C73   H64   S    
N3    N19   A    
N14   Ni7   S    
C57   C81   S    
C62   C75   S    
H50   N29   S    
C34   C48   A    
C78   N39   A    
C23   C47   A    
C63   H19   S    
C2    C71   S    
C70   C86   S    
C73   C82   S    
C29   H3    S    
C72   H63   S    
N4    N18   A    
C2    C63   S    
C42   N25   A    
C7    C79   S    
C56   N37   A    
C32   C51   A    
C28   N10   A    
C15   H41   S    
C16   C44   S    
C11   C17   D    
C1    H1    S    
C45   H45   S    
H46   N27   S    
C26   C61   A    
C84   C88   S    
C41   C60   A    
C38   H11   S    
C42   H16   S    
C42   C59   A    
C22   C58   A    
N13   Ni5   S    
N8    Ni3   S    
C8    H35   S    
N9    N34   A    
C62   H18   S    
C23   H23   S    
C8    C70   S    
N5    N26   A    
C31   C52   A    
N26   Ni8   S    
C29   C46   A    
N6    N25   A    
N36   Ni3   S    
N16   Ni8   S    
C5    C76   S    
C7    C69   S    
C33   C50   A    
H47   N28   S    
H57   N32   S    
C31   H5    S    
H61   N35   S    
C18   N40   A    
C55   C80   S    
C60   C84   S    
C75   H66   S    
C21   N30   S    
C8    C77   S    
N39   Ni4   S    
C88   H27   S    
C24   C59   A    
H54   N31   S    
N18   Ni6   S    
N21   Ni6   S    
N15   N38   A    
N22   Ni8   S    
N6    Ni3   S    
C9    C15   D    
C50   C56   A    
C12   H12   S    
N4    Ni1   S    
C40   H14   S    
C13   C50   S    
C56   H56   S    
N17   Ni7   S    
C78   H71   S    
C7    C82   S    
H58   N33   S    
C66   H22   S    
N40   Ni2   S    
C13   C16   D    
N38   Ni3   S    
C6    C81   S    
C43   C58   A    
N3    Ni2   S    
C28   H2    S    
C22   N31   S    
N21   N40   A    
C76   C85   S    
C68   H24   S    
N20   Ni5   S    
C77   H69   S    
C4    H30   S    
C31   N14   A    
