data_mof_unit_1747.cif
_audit_creation_date              2012-12-10T18:12:44-0500
_audit_creation_method            fapswitch 2.2
_symmetry_space_group_name_H-M    P1
_symmetry_Int_Tables_number       1
_space_group_crystal_system       triclinic
_cell_length_a                    12.734599
_cell_length_b                    13.079909
_cell_length_c                    15.698247
_cell_angle_alpha                 92.837902
_cell_angle_beta                  104.012361
_cell_angle_gamma                 81.504732
_cell_volume                      2508.91523003

loop_
_atom_site_label
_atom_site_type_symbol
_atom_type_description
_atom_site_fract_x
_atom_site_fract_y
_atom_site_fract_z
_atom_type_partial_charge
Br1   Br    Br    0.394570 0.082761 0.662119 -0.469516
Br2   Br    Br    0.161744 0.987849 0.577513 -0.503484
Br3   Br    Br    0.526742 0.762295 0.319779 -0.589263
Br4   Br    Br    0.701585 0.692982 0.675323 -0.461761
Br5   Br    Br    0.749407 0.342592 0.393671 -0.559611
Br6   Br    Br    0.752693 0.462568 0.985612 -0.511320
C1    C     C_R   0.438119 0.691526 0.484373 0.926306
C2    C     C_R   0.600195 0.198241 0.524060 -0.081023
C3    C     C_R   0.296179 0.847503 0.484098 0.048466
C4    C     C_R   0.502220 0.501019 0.662021 0.910428
C5    C     C_R   0.291594 0.937603 0.536729 0.266626
C6    C     C_R   0.384055 0.988881 0.561967 0.215849
C7    C     C_R   0.471703 0.961917 0.519592 -0.080316
C8    C     C_R   0.478290 0.868132 0.472624 -0.059625
C9    C     C_R   0.550677 0.026253 0.519430 0.113263
C10   C     C_R   0.650071 0.986343 0.496229 0.047452
C11   C     C_R   0.658447 0.889912 0.451106 0.090283
C12   C     C_3   0.501836 0.501298 0.917574 -0.044739
C13   C     C_R   0.563290 0.840384 0.428271 0.303749
C14   C     C_R   0.524600 0.132828 0.526690 -0.181720
C15   C     C_R   0.708044 0.156153 0.525236 -0.111869
C16   C     C_R   0.561432 0.308615 0.513229 0.889546
C17   C     C_R   0.399091 0.803146 0.470831 -0.150215
C18   C     C_R   0.070622 0.411415 0.340061 -0.249796
C19   C     C_R   0.803563 0.622528 0.612867 0.384487
C20   C     C_R   0.905820 0.653767 0.636757 -0.276686
C21   C     C_R   0.985173 0.619615 0.591025 0.136915
C22   C     C_R   0.962143 0.545514 0.521752 -0.062133
C23   C     C_3   0.543571 0.406036 0.032629 0.101651
C24   C     C_R   0.853509 0.516563 0.496694 0.056541
C25   C     C_R   0.039737 0.500335 0.473519 0.002480
C26   C     C_R   0.000003 0.459868 0.388782 0.077986
C27   C     C_R   0.890250 0.454117 0.357192 -0.261145
C28   C     C_R   0.497596 0.499140 0.338002 0.961521
C29   C     C_R   0.825277 0.460149 0.416185 0.312345
C30   C     C_R   0.154508 0.487910 0.506461 -0.081484
C31   C     C_R   0.182187 0.401912 0.374528 0.309526
C32   C     C_3   0.391423 0.517481 0.004293 0.168294
C33   C     C_3   0.451415 0.592639 0.966977 0.131883
C34   C     C_3   0.492711 0.497619 0.081610 -0.028835
C35   C     C_1   0.506753 0.502625 0.751992 -0.122165
C36   C     C_1   0.492446 0.497685 0.248030 -0.114962
C37   C     C_3   0.442320 0.425300 0.954619 0.091801
C38   C     C_3   0.407478 0.698405 0.925078 -0.384412
C39   C     C_3   0.372470 0.778518 0.990436 -0.799898
C40   C     C_3   0.191946 0.807397 0.434928 -0.365136
C41   C     C_3   0.131275 0.878052 0.358723 -0.812679
C42   C     C_3   0.253481 0.337462 0.321784 -0.363723
C43   C     C_3   0.242460 0.383539 0.231565 -0.868300
C44   C     C_3   0.276373 0.536972 0.021271 -0.389379
C45   C     C_3   0.601958 0.481902 0.994912 0.275138
C46   C     C_3   0.186782 0.561072 0.937867 -0.838812
C47   C     C_3   0.080950 0.680851 0.609151 -0.395268
C48   C     C_3   0.158601 0.656425 0.698936 -0.839390
C49   C     C_3   0.599725 0.305385 0.079663 -0.375805
C50   C     C_3   0.638906 0.222773 0.017885 -0.782397
C51   C     C_3   0.384354 0.344277 0.894387 -0.358644
C52   C     C_3   0.327427 0.278635 0.941895 -0.822207
C53   C     C_3   0.765109 0.850446 0.423538 -0.401739
C54   C     C_3   0.778581 0.741922 0.383707 -0.761266
C55   C     C_3   0.552133 0.573421 0.045251 -0.222274
C56   C     C_1   0.506514 0.502811 0.827384 0.002942
C57   C     C_1   0.490965 0.497281 0.172369 -0.024887
C58   C     C_R   0.732656 0.050778 0.509134 -0.170013
H1    H     H_    0.441219 0.165691 0.525424 0.193825
H2    H     H_    0.441743 0.786300 0.047841 0.270881
H3    H     H_    0.345704 0.854670 0.958058 0.259012
H4    H     H_    0.472944 0.725581 0.900128 0.233280
H5    H     H_    0.337644 0.690907 0.868248 0.206633
H6    H     H_    0.107964 0.957426 0.382682 0.284975
H7    H     H_    0.183615 0.881554 0.311955 0.267243
H8    H     H_    0.055625 0.847121 0.323386 0.245531
H9    H     H_    0.207731 0.729443 0.406060 0.232080
H10   H     H_    0.137579 0.803045 0.479412 0.220242
H11   H     H_    0.246641 0.467856 0.236893 0.277066
H12   H     H_    0.862667 0.418802 0.293032 0.189208
H13   H     H_    0.309323 0.345017 0.202095 0.246001
H14   H     H_    0.163453 0.371043 0.186490 0.253924
H15   H     H_    0.339673 0.324773 0.356719 0.255883
H16   H     H_    0.228573 0.258945 0.311572 0.183610
H17   H     H_    0.192641 0.636032 0.910824 0.257142
H18   H     H_    0.191713 0.499497 0.887405 0.263210
H19   H     H_    0.105697 0.566729 0.953636 0.271164
H20   H     H_    0.261781 0.467930 0.052634 0.209616
H21   H     H_    0.271842 0.602447 0.068595 0.214767
H22   H     H_    0.233887 0.692182 0.704556 0.257587
H23   H     H_    0.038800 0.375824 0.276955 0.163464
H24   H     H_    0.119241 0.688729 0.752116 0.258894
H25   H     H_    0.181787 0.571839 0.708374 0.252661
H26   H     H_    0.126167 0.671153 0.557146 0.193115
H27   H     H_    0.049115 0.764835 0.608041 0.228474
H28   H     H_    0.568700 0.191626 0.973639 0.259894
H29   H     H_    0.687394 0.254240 0.978036 0.290806
H30   H     H_    0.691281 0.157763 0.057119 0.252579
H31   H     H_    0.671205 0.323136 0.131777 0.237295
H32   H     H_    0.542571 0.274875 0.112043 0.203002
H33   H     H_    0.383967 0.245023 0.002271 0.254692
H34   H     H_    0.191771 0.509870 0.572338 0.171595
H35   H     H_    0.255434 0.325255 0.959277 0.260653
H36   H     H_    0.298326 0.214382 0.897818 0.275295
H37   H     H_    0.323327 0.383651 0.838655 0.208629
H38   H     H_    0.445300 0.293213 0.866036 0.230495
H39   H     H_    0.866935 0.712446 0.392868 0.226766
H40   H     H_    0.741182 0.688636 0.416050 0.284890
H41   H     H_    0.742484 0.743206 0.311917 0.286493
H42   H     H_    0.778646 0.905739 0.377037 0.218800
H43   H     H_    0.832704 0.849434 0.483698 0.206364
H44   H     H_    0.920999 0.711653 0.688465 0.193079
H45   H     H_    0.597010 0.633080 0.084801 0.189329
H46   H     H_    0.770938 0.204947 0.530935 0.203933
H47   H     H_    0.813635 0.023309 0.500196 0.159245
H48   H     H_    0.303202 0.756713 0.013377 0.259672
N1    N     N_R   0.222180 0.444680 0.455580 -0.126578
N2    N     N_R   0.776980 0.554790 0.543960 -0.148156
O1    O     O_R   0.366730 0.627160 0.478790 -0.634465
O2    O     O_R   0.544830 0.662520 0.507160 -0.566804
O3    O     O_R   0.410960 0.482330 0.609040 -0.624189
O4    O     O_R   0.589060 0.517690 0.637410 -0.558777
O5    O     O_R   0.455170 0.337480 0.492840 -0.643288
O6    O     O_R   0.633270 0.372840 0.521210 -0.570919
O7    O     O_R   0.410940 0.482310 0.362590 -0.636219
O8    O     O_R   0.589040 0.517670 0.390960 -0.568075
Zn1   Zn    Zn3+2 0.381080 0.476390 0.481050 0.938099
Zn2   Zn    Zn3+2 0.618920 0.523610 0.518950 1.028794

loop_
_geom_bond_atom_site_label_1
_geom_bond_atom_site_label_2
_ccdc_geom_bond_type
C8    C17   A    
C32   C34   S    
C49   C50   S    
C45   C55   S    
C55   H45   S    
C15   H46   S    
C39   H48   S    
C44   H20   S    
C47   C48   S    
C16   O6    A    
C51   H38   S    
Br1   C6    S    
C20   C21   A    
C2    C14   A    
C34   C57   S    
C24   C29   A    
C42   H15   S    
C23   C45   S    
C32   C33   S    
C31   N1    A    
C30   N1    A    
C9    C10   A    
C43   H14   S    
C1    O1    A    
C15   C58   A    
C44   H21   S    
C11   C13   A    
C10   C11   A    
C28   C36   S    
C47   H27   S    
C44   C46   S    
C43   H11   S    
Br3   C13   S    
Br6   C45   S    
C54   H39   S    
N2    Zn2   S    
C3    C40   S    
C28   O8    A    
C7    C8    A    
C23   C37   S    
C4    C35   S    
C50   H29   S    
C52   H33   S    
C35   C56   T    
Br2   C5    S    
C12   C45   S    
C2    C15   A    
C9    C14   A    
C33   C55   S    
C53   H42   S    
O1    Zn1   S    
C14   H1    S    
C52   H36   S    
C16   O5    A    
C48   H25   S    
C49   H31   S    
C20   H44   S    
C48   H22   S    
C12   C56   S    
C58   H47   S    
C23   C49   S    
C19   C20   A    
C53   H43   S    
C34   C55   S    
C39   H2    S    
C1    O2    A    
C46   H19   S    
C50   H30   S    
C12   C33   S    
C18   C26   A    
C41   H6    S    
C39   H3    S    
C4    O4    A    
C27   H12   S    
C2    C16   S    
C25   C26   A    
N1    Zn1   S    
C18   C31   A    
C38   H5    S    
C53   C54   S    
O4    Zn2   S    
C31   C42   S    
C46   H18   S    
C3    C5    A    
C41   H7    S    
C11   C53   S    
C42   C43   S    
C28   O7    A    
C7    C9    A    
C38   H4    S    
O8    Zn2   S    
Br4   C19   S    
C40   H10   S    
C38   C39   S    
C24   N2    A    
C40   C41   S    
O2    Zn2   S    
C8    C13   A    
C22   C25   A    
C3    C17   A    
C52   H35   S    
C49   H32   S    
C5    C6    A    
C21   C47   S    
C33   C38   S    
C32   C44   S    
O5    Zn1   S    
C51   H37   S    
C26   C27   A    
C42   H16   S    
C22   C24   A    
O3    Zn1   S    
C32   C37   S    
C4    O3    A    
C54   H40   S    
C19   N2    A    
C48   H24   S    
C51   C52   S    
C1    C17   S    
Br5   C29   S    
C23   C34   S    
C27   C29   A    
C43   H13   S    
C46   H17   S    
C18   H23   S    
C41   H8    S    
O7    Zn1   S    
C37   C51   S    
C50   H28   S    
C6    C7    A    
C47   H26   S    
C25   C30   A    
C30   H34   S    
C10   C58   A    
C12   C37   S    
C36   C57   T    
C40   H9    S    
C54   H41   S    
O6    Zn2   S    
C21   C22   A    
