data_mof_unit_2607.cif
_audit_creation_date              2012-12-10T17:43:34-0500
_audit_creation_method            fapswitch 2.2
_symmetry_space_group_name_H-M    P1
_symmetry_Int_Tables_number       1
_space_group_crystal_system       triclinic
_cell_length_a                    14.933074
_cell_length_b                    10.642078
_cell_length_c                    9.989577
_cell_angle_alpha                 90.020039
_cell_angle_beta                  89.399409
_cell_angle_gamma                 93.237762
_cell_volume                      1584.91175792

loop_
_atom_site_label
_atom_site_type_symbol
_atom_type_description
_atom_site_fract_x
_atom_site_fract_y
_atom_site_fract_z
_atom_type_partial_charge
C1    C     C_R   0.507409 0.260249 0.500646 0.915081
C2    C     C_R   0.909448 0.617632 0.496178 0.041615
C3    C     C_R   0.942451 0.279252 0.569598 0.370697
C4    C     C_R   0.035853 0.280913 0.576295 0.322897
C5    C     C_R   0.087891 0.389289 0.534254 -0.063042
C6    C     C_R   0.046014 0.504161 0.513936 -0.092195
C7    C     C_R   0.097267 0.617595 0.484921 0.117209
C8    C     C_R   0.053754 0.731959 0.470606 0.030080
C9    C     C_R   0.960035 0.731480 0.476726 0.340286
C10   C     C_R   0.180376 0.385847 0.511297 0.165454
C11   C     C_R   0.231144 0.499931 0.496581 -0.146136
C12   C     C_R   0.327244 0.500872 0.499619 0.864061
C13   C     C_R   0.190574 0.612821 0.470260 0.019009
C14   C     C_R   0.555029 0.105289 0.746337 0.419719
C15   C     C_R   0.534175 0.046219 0.868075 -0.198651
C16   C     C_R   0.474260 0.942205 0.872804 -0.230796
C17   C     C_R   0.442974 0.885597 0.755293 0.164955
C18   C     C_R   0.473501 0.935787 0.629031 -0.000983
C19   C     C_R   0.515184 0.057489 0.625749 0.021446
C20   C     C_R   0.510580 0.124902 0.503104 -0.146872
C21   C     C_R   0.484290 0.062932 0.385095 -0.242638
C22   C     C_R   0.463154 0.936096 0.385332 0.433406
C23   C     C_R   0.487479 0.737800 0.501018 0.896187
C24   C     C_R   0.467071 0.869652 0.505747 -0.236708
C25   C     C_R   0.394539 0.322707 0.150960 -0.125274
C26   C     C_R   0.355411 0.216095 0.094874 -0.279803
C27   C     C_R   0.357014 0.203279 0.959080 -0.138144
C28   C     C_R   0.392987 0.300566 0.877073 0.428205
C29   C     C_R   0.447023 0.406750 0.931357 0.026783
C30   C     C_R   0.447339 0.411070 0.075816 0.049239
C31   C     C_R   0.553173 0.582884 0.069870 0.415654
C32   C     C_R   0.553063 0.583044 0.926515 0.058263
C33   C     C_R   0.672490 0.500587 0.499062 0.885995
C34   C     C_R   0.816248 0.614478 0.497431 -0.154113
C35   C     C_R   0.767668 0.499827 0.497343 -0.125778
C36   C     C_R   0.809444 0.385882 0.499825 0.129880
C37   C     C_R   0.901016 0.387967 0.527763 -0.022608
C38   C     C_R   0.952309 0.503704 0.514802 -0.065012
H1    H     H_    0.780176 0.699834 0.492715 0.209740
H2    H     H_    0.562616 0.083204 0.960318 0.207118
H3    H     H_    0.453208 0.903240 0.968368 0.238108
H4    H     H_    0.382433 0.331554 0.254730 0.213449
H5    H     H_    0.319779 0.145799 0.156810 0.197741
H6    H     H_    0.320659 0.121145 0.917809 0.217289
H7    H     H_    0.477646 0.113197 0.291852 0.197642
N1    N     N_R   0.499150 0.498800 0.142780 -0.142834
N2    N     N_R   0.499120 0.498720 0.857170 -0.119160
O1    O     O_R   0.500000 0.316780 0.614690 -0.543318
O2    O     O_R   0.499990 0.316750 0.385360 -0.668126
O3    O     O_R   0.367850 0.499980 0.614680 -0.564128
O4    O     O_R   0.367840 0.499960 0.385350 -0.663355
O5    O     O_R   0.500010 0.683250 0.614640 -0.632296
O6    O     O_R   0.500000 0.683220 0.385310 -0.506844
O7    O     O_R   0.632160 0.500040 0.614650 -0.559122
O8    O     O_R   0.632150 0.500020 0.385320 -0.577015
Zn1   Zn    Zn3+2 0.500010 0.500020 0.653130 1.027160
Zn2   Zn    Zn3+2 0.499990 0.499980 0.346870 1.017000
Cl1   Cl    Cl    0.641900 0.224065 0.752823 -0.576435
N3    N     N_3   0.372555 0.788558 0.768793 -0.408704
H8    H     H_    0.346163 0.762224 0.676548 0.185141
H9    H     H_    0.398619 0.709892 0.813336 0.219935
Cl2   Cl    Cl    0.423726 0.867597 0.234932 -0.657702
Cl3   Cl    Cl    0.626168 0.690464 0.154595 -0.532463
Cl4   Cl    Cl    0.339319 0.279637 0.725141 -0.584992
N4    N     N_3   0.762965 0.271966 0.454731 -0.354940
H10   H     H_    0.702909 0.257534 0.507518 0.224886
H11   H     H_    0.746710 0.284047 0.354185 0.198985
N5    N     N_3   0.611933 0.668789 0.852653 -0.363279
H12   H     H_    0.599698 0.760379 0.882260 0.217733
H13   H     H_    0.677939 0.651494 0.877491 0.230895
Cl5   Cl    Cl    0.878383 0.146545 0.632781 -0.389645
Cl6   Cl    Cl    0.085196 0.152289 0.654061 -0.489749
N6    N     N_3   0.219082 0.266943 0.483904 -0.333252
H14   H     H_    0.185441 0.226464 0.401829 0.187443
H15   H     H_    0.286042 0.277394 0.453225 0.186110
N7    N     N_3   0.242630 0.717346 0.412718 -0.394405
H16   H     H_    0.295137 0.744422 0.475741 0.172813
H17   H     H_    0.269409 0.688909 0.321240 0.247459
N8    N     N_3   0.104658 0.849532 0.454017 -0.385946
H18   H     H_    0.089217 0.908713 0.533360 0.280670
H19   H     H_    0.086462 0.890942 0.364133 0.242766
Cl7   Cl    Cl    0.907342 0.874705 0.452375 -0.519739

loop_
_geom_bond_atom_site_label_1
_geom_bond_atom_site_label_2
_ccdc_geom_bond_type
C33   O8    A    
N6    H14   S    
C35   C36   A    
C7    C8    A    
C26   C27   A    
C29   C30   A    
C29   N2    A    
C18   C24   A    
C36   C37   A    
N7    H17   S    
C18   C19   A    
C5    C6    A    
C10   N6    S    
C15   C16   A    
C25   C30   A    
O2    Zn2   S    
C34   C35   A    
C27   H6    S    
C19   C20   A    
C8    C9    A    
N4    H11   S    
C31   N1    A    
C8    N8    S    
C23   C24   S    
C6    C38   A    
O4    Zn2   S    
C9    Cl7   S    
C32   N5    S    
C2    C34   A    
N3    H8    S    
C21   C22   A    
N6    H15   S    
C26   H5    S    
C23   O6    A    
C21   H7    S    
C14   Cl1   S    
O7    Zn1   S    
N3    H9    S    
C34   H1    S    
C31   Cl3   S    
N7    H16   S    
N8    H19   S    
O6    Zn2   S    
C36   N4    S    
N5    H12   S    
C25   C26   A    
O3    Zn1   S    
C3    Cl5   S    
C37   C38   A    
C22   Cl2   S    
C2    C38   A    
C31   C32   A    
C13   N7    S    
C17   C18   A    
C17   N3    S    
C28   Cl4   S    
O8    Zn2   S    
N1    Zn2   S    
C32   N2    A    
C22   C24   A    
C3    C4    A    
C4    Cl6   S    
C12   O4    A    
C33   O7    A    
O1    Zn1   S    
C28   C29   A    
C1    C20   S    
C14   C19   A    
C30   N1    A    
C4    C5    A    
C25   H4    S    
C12   O3    A    
C11   C12   S    
C1    O1    A    
C6    C7    A    
C5    C10   A    
C11   C13   A    
C23   O5    A    
C16   C17   A    
C33   C35   S    
C15   H2    S    
C10   C11   A    
N8    H18   S    
C7    C13   A    
C20   C21   A    
C3    C37   A    
N5    H13   S    
N4    H10   S    
C27   C28   A    
C14   C15   A    
C2    C9    A    
C1    O2    A    
C16   H3    S    
O5    Zn1   S    
N2    Zn1   S    
