data_mof_unit_4569.cif
_audit_creation_date              2012-12-11T15:06:50-0500
_audit_creation_method            fapswitch 2.2
_symmetry_space_group_name_H-M    P1
_symmetry_Int_Tables_number       1
_space_group_crystal_system       triclinic
_cell_length_a                    19.807383
_cell_length_b                    11.28812
_cell_length_c                    18.709045
_cell_angle_alpha                 90.041557
_cell_angle_beta                  90.750515
_cell_angle_gamma                 90.065093
_cell_volume                      4182.75741153

loop_
_atom_site_label
_atom_site_type_symbol
_atom_type_description
_atom_site_fract_x
_atom_site_fract_y
_atom_site_fract_z
_atom_type_partial_charge
C1    C     C_R   0.761579 0.521974 0.638589 0.538357
C2    C     C_R   0.239509 0.524544 0.359984 0.536485
C3    C     C_R   0.261579 0.021973 0.638589 0.538357
C4    C     C_R   0.739509 0.024544 0.359984 0.536484
C5    C     C_3   0.814031 0.129099 0.448130 -0.253080
C6    C     C_3   0.191670 0.132455 0.549426 -0.259102
C7    C     C_3   0.314031 0.629098 0.448131 -0.253081
C8    C     C_3   0.691669 0.632455 0.549427 -0.259099
C9    C     C_3   0.750257 0.056699 0.435460 0.068538
C10   C     C_3   0.252900 0.053791 0.562091 0.059443
C11   C     C_3   0.250257 0.556698 0.435461 0.068538
C12   C     C_3   0.752899 0.553792 0.562091 0.059440
C13   C     C_3   0.762699 0.090328 0.573092 0.066818
C14   C     C_3   0.238294 0.087781 0.424731 0.072062
C15   C     C_3   0.262699 0.590327 0.573092 0.066823
C16   C     C_3   0.738294 0.587782 0.424731 0.072061
C17   C     C_3   0.761800 0.956848 0.559726 -0.275993
C18   C     C_3   0.232841 0.955403 0.437405 -0.258012
C19   C     C_3   0.261801 0.456848 0.559727 -0.275990
C20   C     C_3   0.732839 0.455404 0.437405 -0.258011
C21   C     C_3   0.824466 0.137783 0.529842 -0.210689
C22   C     C_3   0.179110 0.138913 0.468630 -0.206016
C23   C     C_3   0.324465 0.637783 0.529842 -0.210692
C24   C     C_3   0.679110 0.638914 0.468630 -0.206016
C25   C     C_3   0.008367 0.211142 0.461215 -0.224852
C26   C     C_3   0.999263 0.208581 0.542147 -0.243185
C27   C     C_3   0.508367 0.711143 0.461214 -0.224846
C28   C     C_3   0.499261 0.708580 0.542146 -0.243180
C29   C     C_3   0.078457 0.401531 0.489033 -0.236785
C30   C     C_3   0.942269 0.411286 0.523938 -0.228219
C31   C     C_3   0.578459 0.901530 0.489035 -0.236777
C32   C     C_3   0.442272 0.911289 0.523939 -0.228220
C33   C     C_3   0.960182 0.410808 0.443657 0.015295
C34   C     C_3   0.058725 0.401876 0.568528 0.013272
C35   C     C_3   0.460184 0.910809 0.443657 0.015296
C36   C     C_3   0.558728 0.901870 0.568530 0.013269
C37   C     C_3   0.026009 0.338624 0.436979 0.078004
C38   C     C_3   0.991648 0.336698 0.571695 0.069452
C39   C     C_3   0.526010 0.838624 0.436980 0.078004
C40   C     C_3   0.491649 0.836697 0.571695 0.069447
C41   C     C_3   0.819257 0.030689 0.048653 -0.229403
C42   C     C_3   0.187444 0.010486 0.955429 -0.224228
C43   C     C_3   0.319257 0.530689 0.048653 -0.229404
C44   C     C_3   0.687443 0.510486 0.955429 -0.224228
C45   C     C_R   0.774792 0.121561 0.648971 0.533266
C46   C     C_R   0.225778 0.120089 0.349845 0.531019
C47   C     C_R   0.274792 0.621561 0.648971 0.533272
C48   C     C_R   0.725777 0.620089 0.349846 0.531019
C49   C     C_3   0.821982 0.036534 0.968418 -0.226884
C50   C     C_3   0.184659 0.016457 0.035595 -0.235739
C51   C     C_3   0.321982 0.536534 0.968418 -0.226884
C52   C     C_3   0.684659 0.516457 0.035595 -0.235739
C53   C     C_3   0.692748 0.013031 0.030504 -0.220469
C54   C     C_3   0.317726 0.034085 0.970380 -0.213449
C55   C     C_3   0.192748 0.513031 0.030504 -0.220469
C56   C     C_3   0.817726 0.534085 0.970380 -0.213449
C57   C     C_3   0.744616 0.204700 0.061229 -0.254781
C58   C     C_3   0.245148 0.200333 0.937801 -0.260315
C59   C     C_3   0.244616 0.704700 0.061229 -0.254781
C60   C     C_3   0.745148 0.700333 0.937801 -0.260315
C61   C     C_3   0.749084 0.072728 0.075526 0.059154
C62   C     C_3   0.253332 0.068234 0.925949 0.064095
C63   C     C_3   0.249084 0.572727 0.075526 0.059154
C64   C     C_3   0.753332 0.568234 0.925949 0.064095
C65   C     C_3   0.761023 0.106104 0.936390 0.062095
C66   C     C_3   0.239644 0.102270 0.064618 0.058908
C67   C     C_3   0.261024 0.606104 0.936390 0.062095
C68   C     C_3   0.739644 0.602270 0.064618 0.058908
C69   C     C_3   0.699701 0.027443 0.948412 -0.259476
C70   C     C_3   0.307846 0.044300 0.052161 -0.251237
C71   C     C_3   0.199701 0.527443 0.948412 -0.259475
C72   C     C_3   0.807846 0.544300 0.052161 -0.251237
C73   C     C_3   0.746052 0.222469 0.979003 -0.214841
C74   C     C_3   0.237891 0.217695 0.019561 -0.227602
C75   C     C_3   0.246052 0.722469 0.979003 -0.214841
C76   C     C_3   0.737891 0.717695 0.019561 -0.227602
C77   C     C_3   0.994857 0.479771 0.042471 -0.232994
C78   C     C_3   0.991303 0.479925 0.961584 -0.226764
C79   C     C_3   0.494857 0.979771 0.042471 -0.232993
C80   C     C_3   0.491303 0.979925 0.961584 -0.226765
C81   C     C_3   0.066724 0.296301 0.027981 -0.218860
C82   C     C_3   0.937853 0.270180 0.972468 -0.208741
C83   C     C_3   0.566724 0.796301 0.027981 -0.218861
C84   C     C_3   0.437853 0.770180 0.972468 -0.208742
C85   C     C_3   0.945585 0.278746 0.054478 -0.259036
C86   C     C_3   0.057621 0.298781 0.945811 -0.265968
C87   C     C_3   0.445585 0.778746 0.054478 -0.259036
C88   C     C_3   0.557621 0.798781 0.945811 -0.265968
C89   C     C_R   0.966273 0.342773 0.644377 0.552584
C90   C     C_R   0.052122 0.345073 0.362739 0.548210
C91   C     C_R   0.466273 0.842773 0.644377 0.552574
C92   C     C_R   0.552123 0.845073 0.362739 0.548207
C93   C     C_3   0.008263 0.352058 0.070289 0.062250
C94   C     C_3   0.988222 0.351405 0.931283 0.066352
C95   C     C_3   0.508263 0.852058 0.070289 0.062250
C96   C     C_3   0.488222 0.851405 0.931283 0.066352
C97   C     C_R   0.761273 0.532407 0.849381 0.535222
C98   C     C_R   0.239930 0.535761 0.152021 0.530994
C99   C     C_R   0.261273 0.032407 0.849381 0.535223
C100  C     C_R   0.739930 0.035761 0.152021 0.530994
C101  C     C_R   0.774868 0.133771 0.859191 0.530452
C102  C     C_R   0.225541 0.132185 0.141405 0.531301
C103  C     C_R   0.274869 0.633771 0.859191 0.530451
C104  C     C_R   0.725541 0.632185 0.141405 0.531301
C105  C     C_R   0.968024 0.353310 0.854377 0.528000
C106  C     C_R   0.029975 0.353158 0.146898 0.525944
C107  C     C_R   0.468024 0.853310 0.854377 0.528004
C108  C     C_R   0.529975 0.853158 0.146898 0.525944
C109  C     C_3   0.692159 0.135395 0.463615 -0.239384
C110  C     C_3   0.313220 0.124461 0.533183 -0.242475
C111  C     C_3   0.192159 0.635395 0.463616 -0.239385
C112  C     C_3   0.813219 0.624463 0.533183 -0.242477
C113  C     C_3   0.694083 0.138501 0.544728 -0.241037
C114  C     C_3   0.308514 0.132213 0.451965 -0.240437
C115  C     C_3   0.194083 0.638499 0.544729 -0.241037
C116  C     C_3   0.808513 0.632213 0.451966 -0.240438
C117  C     C_3   0.762401 0.938358 0.478366 -0.215665
C118  C     C_3   0.241206 0.935988 0.518694 -0.221599
C119  C     C_3   0.262400 0.438357 0.478366 -0.215664
C120  C     C_3   0.741205 0.435989 0.518694 -0.221598
Cr1   Cr    Cr6+3 0.885690 0.492860 0.745310 0.985372
Cr2   Cr    Cr6+3 0.114310 0.492860 0.254690 0.979540
Cr3   Cr    Cr6+3 0.385690 0.992860 0.745310 0.985371
Cr4   Cr    Cr6+3 0.614310 0.992860 0.254690 0.979540
Cr5   Cr    Cr6+3 0.729880 0.332270 0.748190 0.984910
Cr6   Cr    Cr6+3 0.270120 0.332270 0.251810 0.984014
Cr7   Cr    Cr6+3 0.229880 0.832270 0.748190 0.984909
Cr8   Cr    Cr6+3 0.770120 0.832270 0.251810 0.984013
Cr9   Cr    Cr6+3 0.888120 0.178590 0.753010 0.989442
Cr10  Cr    Cr6+3 0.111880 0.178590 0.246990 0.987049
Cr11  Cr    Cr6+3 0.388120 0.678590 0.753010 0.989442
Cr12  Cr    Cr6+3 0.611880 0.678590 0.246990 0.987049
H1    H     H_    0.642310 0.113710 0.442287 0.132810
H2    H     H_    0.360511 0.085983 0.550053 0.135333
H3    H     H_    0.142310 0.613713 0.442287 0.132808
H4    H     H_    0.860510 0.585987 0.550054 0.135334
H5    H     H_    0.866126 0.075923 0.542301 0.127232
H6    H     H_    0.135472 0.080805 0.459020 0.125787
H7    H     H_    0.366125 0.575922 0.542301 0.127233
H8    H     H_    0.635472 0.580808 0.459020 0.125787
H9    H     H_    0.813968 0.906539 0.465889 0.125301
H10   H     H_    0.192401 0.900445 0.536595 0.131129
H11   H     H_    0.313967 0.406538 0.465889 0.125301
H12   H     H_    0.692400 0.400446 0.536595 0.131129
H13   H     H_    0.806356 0.913306 0.585175 0.118280
H14   H     H_    0.182363 0.921807 0.419828 0.121939
H15   H     H_    0.306357 0.413306 0.585175 0.118277
H16   H     H_    0.682361 0.421808 0.419828 0.121939
H17   H     H_    0.043900 0.145235 0.443189 0.108612
H18   H     H_    0.956055 0.154948 0.555851 0.121897
H19   H     H_    0.543900 0.645235 0.443189 0.108611
H20   H     H_    0.456051 0.654951 0.555849 0.121895
H21   H     H_    0.961091 0.180059 0.435131 0.161734
H22   H     H_    0.041508 0.159744 0.566770 0.107849
H23   H     H_    0.461091 0.680060 0.435129 0.161735
H24   H     H_    0.541504 0.659737 0.566769 0.107846
H25   H     H_    0.630192 0.877636 0.483794 0.123447
H26   H     H_    0.389651 0.889105 0.534845 0.102258
H27   H     H_    0.130190 0.377632 0.483795 0.123449
H28   H     H_    0.889649 0.389101 0.534844 0.102257
H29   H     H_    0.968006 0.505111 0.427763 0.141000
H30   H     H_    0.050996 0.496665 0.583491 0.144437
H31   H     H_    0.468007 0.005112 0.427763 0.141004
H32   H     H_    0.551002 0.996658 0.583498 0.144444
H33   H     H_    0.949109 0.504536 0.540430 0.090304
H34   H     H_    0.075957 0.494274 0.473073 0.078525
H35   H     H_    0.449114 0.004539 0.540431 0.090308
H36   H     H_    0.575957 0.994274 0.473078 0.078518
H37   H     H_    0.832433 0.938745 0.063804 0.138356
H38   H     H_    0.180067 0.919062 0.938886 0.139217
H39   H     H_    0.332433 0.438744 0.063804 0.138356
H40   H     H_    0.680066 0.419062 0.938886 0.139217
H41   H     H_    0.698037 0.226549 0.443379 0.105075
H42   H     H_    0.314607 0.214841 0.556492 0.107439
H43   H     H_    0.198037 0.726549 0.443381 0.105075
H44   H     H_    0.814605 0.714844 0.556492 0.107438
H45   H     H_    0.859177 0.086414 0.073117 0.115385
H46   H     H_    0.142638 0.056751 0.932306 0.114908
H47   H     H_    0.359177 0.586414 0.073117 0.115385
H48   H     H_    0.642638 0.556752 0.932306 0.114908
H49   H     H_    0.870499 0.072469 0.953451 0.133798
H50   H     H_    0.132637 0.042398 0.049547 0.133005
H51   H     H_    0.370499 0.572469 0.953451 0.133798
H52   H     H_    0.632637 0.542398 0.049547 0.133005
H53   H     H_    0.822428 0.945066 0.946224 0.114741
H54   H     H_    0.192173 0.927887 0.059166 0.118142
H55   H     H_    0.322428 0.445066 0.946224 0.114741
H56   H     H_    0.692173 0.427887 0.059166 0.118142
H57   H     H_    0.699526 0.922415 0.044259 0.109806
H58   H     H_    0.338130 0.948397 0.954980 0.109186
H59   H     H_    0.199526 0.422415 0.044259 0.109805
H60   H     H_    0.838130 0.448397 0.954979 0.109186
H61   H     H_    0.706271 0.940382 0.921992 0.104257
H62   H     H_    0.310213 0.955884 0.077780 0.100504
H63   H     H_    0.206271 0.440382 0.921992 0.104257
H64   H     H_    0.810213 0.455884 0.077780 0.100503
H65   H     H_    0.696671 0.238620 0.083596 0.114914
H66   H     H_    0.289364 0.250273 0.917601 0.111977
H67   H     H_    0.196671 0.738620 0.083596 0.114914
H68   H     H_    0.789364 0.750273 0.917601 0.111977
H69   H     H_    0.787053 0.252254 0.087833 0.100844
H70   H     H_    0.199997 0.233691 0.908221 0.101492
H71   H     H_    0.287053 0.752253 0.087833 0.100844
H72   H     H_    0.699997 0.733691 0.908221 0.101492
H73   H     H_    0.779452 0.294885 0.964522 0.109377
H74   H     H_    0.187916 0.248636 0.026796 0.110967
H75   H     H_    0.279452 0.794885 0.964522 0.109377
H76   H     H_    0.687916 0.748636 0.026796 0.110967
H77   H     H_    0.694206 0.247774 0.963313 0.119537
H78   H     H_    0.276538 0.280231 0.039506 0.126893
H79   H     H_    0.194206 0.747773 0.963313 0.119537
H80   H     H_    0.776538 0.780231 0.039506 0.126893
H81   H     H_    0.642799 0.045398 0.047313 0.126991
H82   H     H_    0.356154 0.100952 0.956735 0.118627
H83   H     H_    0.142799 0.545398 0.047313 0.126991
H84   H     H_    0.856154 0.600952 0.956735 0.118627
H85   H     H_    0.682549 0.227271 0.564235 0.133692
H86   H     H_    0.319010 0.224002 0.435724 0.136252
H87   H     H_    0.182548 0.727269 0.564236 0.133689
H88   H     H_    0.819010 0.724002 0.435724 0.136253
H89   H     H_    0.653368 0.068110 0.924998 0.109571
H90   H     H_    0.348048 0.100559 0.076542 0.115322
H91   H     H_    0.153368 0.568110 0.924998 0.109571
H92   H     H_    0.848048 0.600559 0.076542 0.115321
H93   H     H_    0.034243 0.544136 0.059035 0.135018
H94   H     H_    0.949435 0.534729 0.943607 0.135245
H95   H     H_    0.534243 0.044136 0.059035 0.135018
H96   H     H_    0.449435 0.034729 0.943607 0.135245
H97   H     H_    0.947240 0.513414 0.064880 0.114130
H98   H     H_    0.036475 0.526259 0.940483 0.112262
H99   H     H_    0.447240 0.013414 0.064880 0.114130
H100  H     H_    0.536475 0.026258 0.940483 0.112262
H101  H     H_    0.607888 0.851973 0.042711 0.110834
H102  H     H_    0.385568 0.782292 0.954828 0.111647
H103  H     H_    0.107888 0.351973 0.042711 0.110834
H104  H     H_    0.885567 0.282291 0.954828 0.111647
H105  H     H_    0.597568 0.852640 0.920409 0.102315
H106  H     H_    0.400365 0.819795 0.078434 0.100207
H107  H     H_    0.097568 0.352640 0.920409 0.102314
H108  H     H_    0.900365 0.319795 0.078434 0.100207
H109  H     H_    0.952407 0.189162 0.077957 0.114608
H110  H     H_    0.061316 0.207846 0.923399 0.109552
H111  H     H_    0.452407 0.689162 0.077957 0.114608
H112  H     H_    0.561316 0.707846 0.923399 0.109553
H113  H     H_    0.952173 0.178675 0.958017 0.123793
H114  H     H_    0.075599 0.204263 0.045700 0.132598
H115  H     H_    0.452173 0.678675 0.958017 0.123793
H116  H     H_    0.575599 0.704262 0.045700 0.132598
H117  H     H_    0.652421 0.083859 0.564936 0.121212
H118  H     H_    0.348923 0.078333 0.427876 0.119043
H119  H     H_    0.152421 0.583855 0.564938 0.121230
H120  H     H_    0.848923 0.578333 0.427877 0.119043
H121  H     H_    0.730124 0.866301 0.460521 0.110413
H122  H     H_    0.280769 0.871741 0.529729 0.107597
H123  H     H_    0.230122 0.366302 0.460522 0.110413
H124  H     H_    0.780768 0.371740 0.529730 0.107599
H125  H     H_    0.717280 0.916294 0.582900 0.166604
H126  H     H_    0.265997 0.905153 0.402729 0.090937
H127  H     H_    0.217282 0.416292 0.582902 0.166600
H128  H     H_    0.765995 0.405152 0.402729 0.090935
H129  H     H_    0.858473 0.086702 0.422972 0.131534
H130  H     H_    0.147120 0.094126 0.576401 0.116590
H131  H     H_    0.358473 0.586700 0.422973 0.131534
H132  H     H_    0.647119 0.594124 0.576401 0.116592
H133  H     H_    0.807481 0.216030 0.423162 0.120351
H134  H     H_    0.201565 0.221696 0.570988 0.134388
H135  H     H_    0.307480 0.716028 0.423162 0.120349
H136  H     H_    0.701563 0.721696 0.570990 0.134408
H137  H     H_    0.841341 0.225029 0.547604 0.108974
H138  H     H_    0.163807 0.224036 0.448034 0.102583
H139  H     H_    0.341342 0.725029 0.547604 0.108973
H140  H     H_    0.663807 0.724038 0.448034 0.102585
O1    O     O_R   0.957210 0.449410 0.665480 -0.546117
O2    O     O_R   0.042790 0.449410 0.334520 -0.543987
O3    O     O_R   0.457210 0.949410 0.665480 -0.546125
O4    O     O_R   0.542790 0.949410 0.334520 -0.543986
O5    O     O_R   0.736260 0.212010 0.826560 -0.512488
O6    O     O_R   0.263740 0.212010 0.173440 -0.511156
O7    O     O_R   0.236260 0.712010 0.826560 -0.512488
O8    O     O_R   0.763740 0.712010 0.173440 -0.511156
O9    O     O_R   0.832520 0.095300 0.836000 -0.533695
O10   O     O_R   0.167480 0.095300 0.164000 -0.533485
O11   O     O_R   0.332520 0.595300 0.836000 -0.533695
O12   O     O_R   0.667480 0.595300 0.164000 -0.533484
O13   O     O_R   0.946380 0.253940 0.826940 -0.513109
O14   O     O_R   0.053620 0.253940 0.173060 -0.512022
O15   O     O_R   0.446380 0.753940 0.826940 -0.513107
O16   O     O_R   0.553620 0.753940 0.173060 -0.512022
O17   O     O_3   0.834560 0.334570 0.748840 -0.273903
O18   O     O_3   0.165440 0.334570 0.251160 -0.279958
O19   O     O_3   0.334560 0.834570 0.748840 -0.273903
O20   O     O_3   0.665440 0.834570 0.251160 -0.279958
O21   O     O_R   0.820730 0.541240 0.668250 -0.515057
O22   O     O_R   0.179270 0.541240 0.331750 -0.523997
O23   O     O_R   0.320730 0.041240 0.668250 -0.515057
O24   O     O_R   0.679270 0.041240 0.331750 -0.523998
O25   O     O_R   0.714240 0.455060 0.663710 -0.532516
O26   O     O_R   0.285760 0.455060 0.336290 -0.532272
O27   O     O_R   0.214240 0.955060 0.663710 -0.532516
O28   O     O_R   0.785760 0.955060 0.336290 -0.532272
O29   O     O_R   0.736780 0.204870 0.675910 -0.518807
O30   O     O_R   0.263220 0.204870 0.324090 -0.518559
O31   O     O_R   0.236780 0.704870 0.675910 -0.518805
O32   O     O_R   0.763220 0.704870 0.324090 -0.518559
O33   O     O_R   0.833070 0.087590 0.673490 -0.530128
O34   O     O_R   0.166930 0.087590 0.326510 -0.535897
O35   O     O_R   0.333070 0.587590 0.673490 -0.530131
O36   O     O_R   0.666930 0.587590 0.326510 -0.535897
O37   O     O_R   0.946890 0.246800 0.676300 -0.515841
O38   O     O_R   0.053110 0.246800 0.323700 -0.511964
O39   O     O_R   0.446890 0.746800 0.676300 -0.515838
O40   O     O_R   0.553110 0.746800 0.323700 -0.511964
O41   O     O_R   0.956650 0.457120 0.827980 -0.537689
O42   O     O_R   0.043350 0.457120 0.172020 -0.534811
O43   O     O_R   0.456650 0.957120 0.827980 -0.537691
O44   O     O_R   0.543350 0.957120 0.172020 -0.534811
O45   O     O_R   0.820220 0.548390 0.818890 -0.509203
O46   O     O_R   0.179780 0.548390 0.181110 -0.508699
O47   O     O_R   0.320220 0.048390 0.818890 -0.509203
O48   O     O_R   0.679780 0.048390 0.181110 -0.508699
O49   O     O_R   0.713680 0.462770 0.826210 -0.533337
O50   O     O_R   0.286320 0.462770 0.173790 -0.532000
O51   O     O_R   0.213680 0.962770 0.826210 -0.533337
O52   O     O_R   0.786320 0.962770 0.173790 -0.532000
N1    N     N_2   0.609407 0.853270 0.617960 -0.563270
H141  H     H_    0.606854 0.764155 0.627619 0.254447
C121  C     C_3   0.621410 0.916578 0.684592 -0.321026
H142  H     H_    0.668643 0.883348 0.710111 0.137372
H143  H     H_    0.579398 0.901420 0.722151 0.175018
H144  H     H_    0.627496 0.013015 0.675577 0.150773
N2    N     N_2   0.405651 0.861857 0.400150 -0.544327
H145  H     H_    0.361669 0.872316 0.425934 0.243124
C122  C     C_3   0.398809 0.898305 0.326036 -0.279839
H146  H     H_    0.347525 0.875313 0.305612 0.113815
H147  H     H_    0.434823 0.849689 0.292135 0.204109
H148  H     H_    0.405780 0.995489 0.320356 0.149307
N3    N     N_2   0.109406 0.353288 0.617958 -0.563275
H149  H     H_    0.106864 0.264171 0.627611 0.254441
C123  C     C_3   0.121400 0.416591 0.684593 -0.320982
H150  H     H_    0.168657 0.383419 0.710093 0.137371
H151  H     H_    0.079406 0.401357 0.722166 0.174994
H152  H     H_    0.127439 0.513043 0.675588 0.150772
N4    N     N_2   0.905650 0.361857 0.400148 -0.544326
H153  H     H_    0.861668 0.372321 0.425930 0.243124
C124  C     C_3   0.898811 0.398305 0.326034 -0.279835
H154  H     H_    0.847525 0.375326 0.305611 0.113813
H155  H     H_    0.934821 0.349679 0.292133 0.204104
H156  H     H_    0.905789 0.495488 0.320353 0.149314

loop_
_geom_bond_atom_site_label_1
_geom_bond_atom_site_label_2
_ccdc_geom_bond_type
C78   H94   S    
C5    H133  S    
C82   C94   S    
C119  H11   S    
C120  H12   S    
C21   H5    S    
C53   C69   S    
C104  O8    A    
C56   H60   S    
N3    H149  S    
C43   C63   S    
C122  H146  S    
C44   C64   S    
Cr6   O6    S    
C102  O10   A    
C84   H115  S    
C112  H4    S    
C63   C98   S    
C51   H51   S    
Cr2   O2    S    
C19   H127  S    
C35   C39   S    
C109  H41   S    
C28   C40   S    
C72   H92   S    
C30   C38   S    
C79   H95   S    
C42   H38   S    
C75   H75   S    
C56   C72   S    
C45   O33   A    
C8    H132  S    
C18   C118  S    
C81   C86   S    
C83   C88   S    
C87   H106  S    
C48   O32   A    
C5    H129  S    
C41   C49   S    
Cr8   O28   S    
Cr1   O45   S    
Cr2   O42   S    
Cr3   O47   S    
Cr4   O48   S    
C26   C38   S    
Cr10  O34   S    
C14   C114  S    
Cr11  O39   S    
C60   C76   S    
C35   H31   S    
Cr8   O52   S    
C55   H59   S    
C29   H34   S    
C33   H29   S    
C44   H40   S    
C88   H112  S    
C54   C70   S    
C48   O36   A    
C68   C72   S    
C23   H139  S    
C69   H61   S    
C13   C21   S    
C124  H156  S    
C99   O47   A    
C79   H99   S    
C31   H25   S    
C102  O6    A    
C64   C97   S    
C17   H13   S    
C15   C115  S    
C20   C120  S    
C122  H148  S    
C1    O25   A    
C54   H82   S    
C43   H39   S    
C57   H65   S    
C59   C63   S    
C52   H52   S    
Cr4   O20   S    
C72   H64   S    
C57   C61   S    
C82   C85   S    
Cr6   O50   S    
C77   H97   S    
Cr11  O19   S    
C60   C64   S    
Cr9   O13   S    
C13   C45   S    
C66   C70   S    
C42   H46   S    
C91   O3    A    
C69   H89   S    
C95   C108  S    
C60   H68   S    
C62   C99   S    
C107  O43   A    
C5    C21   S    
C58   H70   S    
C31   C36   S    
C47   O35   A    
C4    O28   A    
C97   O45   A    
Cr5   O17   S    
C90   O38   A    
Cr1   O21   S    
C107  O15   A    
Cr2   O18   S    
C65   C101  S    
Cr10  O14   S    
Cr3   O23   S    
Cr11  O11   S    
C67   C103  S    
Cr5   O5    S    
C37   C90   S    
C24   H140  S    
C41   H45   S    
C78   C94   S    
C55   H83   S    
C115  H119  S    
C66   C74   S    
C113  H117  S    
C36   N1    S    
C25   H17   S    
C57   C73   S    
N1    C121  S    
C53   C61   S    
C60   H72   S    
C83   H101  S    
C55   C63   S    
C6    H134  S    
C56   C64   S    
C7    H131  S    
Cr7   O51   S    
C116  H88   S    
C42   C62   S    
Cr5   O29   S    
C76   H80   S    
C50   H50   S    
C1    C12   S    
Cr9   O33   S    
C80   H100  S    
C2    C11   S    
Cr3   O3    S    
C110  H42   S    
C6    H130  S    
C121  H143  S    
Cr9   O37   S    
C25   C26   S    
C105  O13   A    
C84   H102  S    
C5    C9    S    
C108  O16   A    
C93   C106  S    
N2    C122  S    
C71   H63   S    
C8    C12   S    
C90   O2    A    
C51   C67   S    
C43   H47   S    
C7    H135  S    
C42   C50   S    
C49   H49   S    
C112  H44   S    
Cr2   O46   S    
N4    C124  S    
Cr3   O43   S    
C110  H2    S    
C61   C100  S    
C67   C75   S    
C17   H125  S    
C50   H54   S    
C112  C116  S    
C58   C74   S    
Cr10  O38   S    
Cr11  O35   S    
C53   H81   S    
C54   H58   S    
C81   H114  S    
C30   H33   S    
C34   H30   S    
C34   N3    S    
C68   C76   S    
C1    O21   A    
C98   O46   A    
C85   H108  S    
C14   C22   S    
C3    O23   A    
C27   C39   S    
C7    C23   S    
C8    C24   S    
C40   C91   S    
C101  O9    A    
C56   H84   S    
Cr7   O27   S    
C99   O51   A    
Cr8   O20   S    
C123  H152  S    
C49   H53   S    
C57   H69   S    
C52   H56   S    
Cr7   O7    S    
C4    C9    S    
Cr4   O24   S    
C53   H57   S    
Cr8   O8    S    
C86   H110  S    
C58   C62   S    
C89   O1    A    
C88   C96   S    
C94   C105  S    
C77   H93   S    
C82   H104  S    
C12   C112  S    
C114  H86   S    
C44   H48   S    
C21   H137  S    
C14   C46   S    
C77   C78   S    
C15   C19   S    
C75   H79   S    
C101  O5    A    
C92   O40   A    
C6    C22   S    
C2    O22   A    
C73   H73   S    
Cr6   O18   S    
Cr2   O22   S    
C103  O7    A    
C124  H155  S    
Cr3   O19   S    
C46   O34   A    
C82   H113  S    
C17   C117  S    
C19   C119  S    
C27   H23   S    
C81   H103  S    
Cr12  O36   S    
C16   C116  S    
N3    C123  S    
C76   H76   S    
C122  H147  S    
C9    C109  S    
C25   H21   S    
C26   H18   S    
C105  O41   A    
C54   C62   S    
C18   H14   S    
C109  H1    S    
C29   C34   S    
C108  O44   A    
C33   C37   S    
C41   C61   S    
C30   H28   S    
N2    H145  S    
C79   C95   S    
Cr5   O25   S    
C123  H150  S    
Cr6   O30   S    
C70   H62   S    
C85   H109  S    
C86   H107  S    
C80   H96   S    
Cr12  O12   S    
C96   C107  S    
C91   O39   A    
C100  O52   A    
C39   C92   S    
C73   H77   S    
C27   H19   S    
C106  O14   A    
C14   C18   S    
C68   C104  S    
C119  H123  S    
C6    C10   S    
C13   C17   S    
C78   H98   S    
C22   H6    S    
Cr5   O49   S    
C19   H15   S    
C121  H142  S    
C104  O12   A    
C43   C51   S    
C41   H37   S    
C65   C69   S    
C77   C93   S    
C70   H90   S    
C10   C110  S    
C67   C71   S    
N1    H141  S    
C111  H3    S    
Cr1   O1    S    
C18   H126  S    
C51   H55   S    
C3    O27   A    
C59   H71   S    
C31   H36   S    
C32   H35   S    
C29   C37   S    
C36   H32   S    
C11   C111  S    
N4    H153  S    
C9    C117  S    
C66   C102  S    
C117  H9    S    
C84   C87   S    
C15   C47   S    
C8    H136  S    
C11   C119  S    
C16   C48   S    
C29   H27   S    
C7    C11   S    
C38   C89   S    
C49   C65   S    
C74   H78   S    
C111  H43   S    
C23   H7    S    
Cr7   O31   S    
Cr8   O32   S    
Cr1   O41   S    
C114  H118  S    
C65   C73   S    
C84   C96   S    
Cr4   O44   S    
C86   C94   S    
C25   C37   S    
C12   C120  S    
C59   H67   S    
C83   H116  S    
Cr12  O20   S    
C55   C71   S    
C80   C96   S    
C118  H122  S    
C52   C68   S    
C16   C20   S    
C22   H138  S    
C15   C23   S    
C33   N4    S    
Cr9   O17   S    
C16   C24   S    
C115  H87   S    
C85   C93   S    
C2    O26   A    
C113  H85   S    
C32   H26   S    
C71   H91   S    
C117  H121  S    
C120  H124  S    
C32   C35   S    
C36   C40   S    
C97   O49   A    
Cr7   O19   S    
C116  H120  S    
C87   C95   S    
C46   O30   A    
C10   C118  S    
C81   C93   S    
C87   H111  S    
C83   C95   S    
Cr10  O18   S    
C20   H16   S    
C103  O11   A    
Cr12  O40   S    
Cr9   O9    S    
C50   C66   S    
C100  O48   A    
C20   H128  S    
C123  H151  S    
C28   H20   S    
C45   O29   A    
C26   H22   S    
C92   O4    A    
C24   H8    S    
C59   C75   S    
C106  O42   A    
C74   H74   S    
C110  C114  S    
C58   H66   S    
C30   C33   S    
C34   C38   S    
C47   O31   A    
C4    O24   A    
C118  H10   S    
C89   O37   A    
C121  H144  S    
Cr6   O26   S    
C109  C113  S    
Cr1   O17   S    
C35   N2    S    
Cr10  O10   S    
C3    C10   S    
Cr11  O15   S    
Cr4   O4    S    
C44   C52   S    
Cr12  O16   S    
C88   H105  S    
C31   C39   S    
C32   C40   S    
C79   C80   S    
C98   O50   A    
C27   C28   S    
C28   H24   S    
C111  C115  S    
C124  H154  S    
C13   C113  S    
