data_mof_unit_1497.cif
_audit_creation_date              2012-12-10T18:58:48-0500
_audit_creation_method            fapswitch 2.2
_symmetry_space_group_name_H-M    P1
_symmetry_Int_Tables_number       1
_space_group_crystal_system       triclinic
_cell_length_a                    12.99244
_cell_length_b                    10.888449
_cell_length_c                    9.551741
_cell_angle_alpha                 90.100795
_cell_angle_beta                  95.931887
_cell_angle_gamma                 90.659611
_cell_volume                      1343.93075476

loop_
_atom_site_label
_atom_site_type_symbol
_atom_type_description
_atom_site_fract_x
_atom_site_fract_y
_atom_site_fract_z
_atom_type_partial_charge
C1    C     C_R   0.499822 0.262775 0.499530 0.837701
C2    C     C_R   0.028068 0.469629 0.565335 -0.010751
C3    C     C_R   0.972973 0.508654 0.438213 0.111226
C4    C     C_R   0.866120 0.516760 0.428520 -0.323103
C5    C     C_R   0.865961 0.438344 0.666826 0.431485
C6    C     C_R   0.974553 0.436502 0.680794 0.374595
C7    C     C_R   0.490239 0.062900 0.618263 -0.017351
C8    C     C_R   0.499963 0.130250 0.497169 -0.250362
C9    C     C_R   0.509046 0.063669 0.371667 0.591481
C10   C     C_R   0.507564 0.935018 0.372989 -0.245484
C11   C     C_R   0.498940 0.870059 0.498945 -0.146556
C12   C     C_R   0.300668 0.499241 0.473932 0.786179
C13   C     C_R   0.490291 0.938945 0.619625 -0.050110
C14   C     C_3   0.473154 0.931871 0.771540 -0.497837
C15   C     C_3   0.473559 0.073617 0.769567 1.022117
C16   C     C_R   0.588599 0.526092 0.085655 0.118774
C17   C     C_R   0.415170 0.462991 0.062372 -0.044782
C18   C     C_R   0.415078 0.463276 0.913794 -0.048057
C19   C     C_R   0.589144 0.523498 0.938264 0.195054
C20   C     C_3   0.653642 0.637030 0.937768 0.342083
C21   C     C_3   0.650028 0.643410 0.095434 0.305681
C22   C     C_R   0.499133 0.737328 0.500009 0.852193
C23   C     C_R   0.699371 0.495547 0.526347 0.860987
C24   C     C_R   0.812060 0.484476 0.542191 -0.212031
C25   C     C_R   0.188097 0.498949 0.459292 -0.052399
C26   C     C_R   0.025473 0.539978 0.322230 -0.137168
C27   C     C_R   0.132716 0.534754 0.332588 -0.202077
C28   C     C_R   0.135707 0.465061 0.574437 -0.186280
Cu1   Cu    Cu3+1 0.499990 0.499980 0.640670 1.009896
Cu2   Cu    Cu3+1 0.500010 0.500020 0.359330 1.015375
H1    H     H_    0.825045 0.548755 0.331738 0.179669
H2    H     H_    0.540460 0.894386 0.837696 0.212519
H3    H     H_    0.346030 0.433957 0.107597 0.129968
H4    H     H_    0.345803 0.434414 0.849326 0.150446
H5    H     H_    0.615200 0.713028 0.876985 0.121542
H6    H     H_    0.726747 0.636671 0.156789 0.112064
H7    H     H_    0.983679 0.569409 0.224144 0.140225
H8    H     H_    0.172330 0.561033 0.242656 0.144381
H9    H     H_    0.179089 0.435408 0.671207 0.185317
H10   H     H_    0.512537 0.887300 0.274967 0.258663
H11   H     H_    0.396966 0.889389 0.787092 0.180219
N1    N     N_R   0.500660 0.500930 0.148010 -0.152459
N2    N     N_R   0.500660 0.500890 0.852110 -0.209864
O1    O     O_R   0.500000 0.319640 0.618810 -0.547072
O2    O     O_R   0.500010 0.319680 0.381230 -0.526043
O3    O     O_R   0.348990 0.499960 0.599490 -0.602119
O4    O     O_R   0.349000 0.500000 0.361910 -0.602756
O5    O     O_R   0.499990 0.680320 0.618770 -0.596136
O6    O     O_R   0.500000 0.680360 0.381190 -0.537489
O7    O     O_R   0.651000 0.500000 0.638090 -0.513775
O8    O     O_R   0.651010 0.500040 0.400510 -0.598725
O9    O     O_3   0.376916 0.126858 0.786716 -0.620576
C29   C     C_3   0.362652 0.131820 0.930980 -0.204486
H12   H     H_    0.419378 0.195834 0.988605 0.241492
H13   H     H_    0.367510 0.039224 0.980128 0.170306
H14   H     H_    0.284258 0.167671 0.941613 0.164899
F1    F     F_    0.557760 0.128577 0.847839 -0.674695
F2    F     F_    0.752060 0.612999 0.902658 -0.652882
F3    F     F_    0.592446 0.741631 0.132874 -0.677983
O10   O     O_3   0.813622 0.397919 0.777262 -0.514866
C30   C     C_3   0.791678 0.271510 0.758375 -0.155263
H15   H     H_    0.863893 0.217429 0.758762 0.158391
H16   H     H_    0.740108 0.253752 0.659761 0.124189
H17   H     H_    0.750422 0.238924 0.847546 0.235648
O11   O     O_3   0.027442 0.392785 0.803482 -0.576479
C31   C     C_3   0.042535 0.490501 0.900787 -0.276425
H18   H     H_    0.967566 0.524545 0.931344 0.231761
H19   H     H_    0.087681 0.567208 0.858904 0.142123
H20   H     H_    0.087774 0.456439 0.997509 0.172597
F4    F     F_    0.519149 0.121217 0.247769 -0.646805

loop_
_geom_bond_atom_site_label_1
_geom_bond_atom_site_label_2
_ccdc_geom_bond_type
C8    C9    A    
C30   H17   S    
C22   O5    A    
C23   C24   S    
C26   H7    S    
Cu1   Cu2   S    
C27   H8    S    
C25   C27   A    
C1    C8    S    
C11   C13   A    
C9    C10   A    
C12   C25   S    
C11   C22   S    
C23   O8    A    
C19   C20   S    
C28   H9    S    
C7    C13   A    
Cu1   O3    S    
Cu2   O8    S    
C30   H15   S    
C15   O9    S    
C17   C18   A    
Cu2   O2    S    
C7    C8    A    
C21   H6    S    
C29   H12   S    
O9    C29   S    
C25   C28   A    
C15   F1    S    
C1    O2    A    
C26   C27   A    
C2    C6    A    
C5    C24   A    
C17   H3    S    
C18   H4    S    
C12   O4    A    
C12   O3    A    
C7    C15   S    
Cu2   O6    S    
C19   N2    A    
C21   F3    S    
C2    C3    A    
Cu1   O7    S    
C22   O6    A    
Cu1   O1    S    
C16   C19   A    
C5    C6    A    
C4    C24   A    
C14   H11   S    
C31   H20   S    
C31   H19   S    
C29   H13   S    
C20   F2    S    
C3    C4    A    
C4    H1    S    
C16   N1    A    
Cu2   O4    S    
Cu1   O5    S    
C31   H18   S    
C20   C21   S    
C10   H10   S    
O11   C31   S    
C10   C11   A    
C29   H14   S    
C18   N2    A    
C17   N1    A    
C30   H16   S    
C14   C15   S    
Cu2   N1    S    
C23   O7    A    
C2    C28   A    
C1    O1    A    
C5    O10   S    
C13   C14   S    
C20   H5    S    
C16   C21   S    
C9    F4    S    
C6    O11   S    
Cu1   N2    S    
C14   H2    S    
O10   C30   S    
C3    C26   A    
