data_mof_unit_2158.cif
_audit_creation_date              2012-10-26T21:06:54-0400
_audit_creation_method            fapswitch 2.2
_symmetry_space_group_name_H-M    P1
_symmetry_Int_Tables_number       1
_space_group_crystal_system       triclinic
_cell_length_a                    10.769998
_cell_length_b                    8.878901
_cell_length_c                    7.566061
_cell_angle_alpha                 103.998505
_cell_angle_beta                  95.599286
_cell_angle_gamma                 96.535529
_cell_volume                      691.563189144

loop_
_atom_site_label
_atom_site_type_symbol
_atom_type_description
_atom_site_fract_x
_atom_site_fract_y
_atom_site_fract_z
_atom_type_partial_charge
C1    C     C_R   0.496868 0.199834 0.453757 0.545731
C2    C     C_3   0.083526 0.483923 0.689216 0.270049
C3    C     C_3   0.940374 0.475339 0.684781 0.261314
C4    C     C_3   0.089136 0.648451 0.458758 -0.209636
C5    C     C_3   0.046437 0.354475 0.349528 -0.300536
C6    C     C_3   0.122455 0.494506 0.499290 0.012472
C7    C     C_3   0.552667 0.079637 0.781805 -0.247089
C8    C     C_3   0.585086 0.015042 0.943843 -0.440395
C9    C     C_3   0.620288 0.677710 0.077809 -0.052302
C10   C     C_3   0.749580 0.696875 0.017453 -0.423132
C11   C     C_3   0.932372 0.814809 0.615815 -0.286400
C12   C     C_3   0.879708 0.503696 0.501969 0.038330
C13   C     C_3   0.825868 0.896162 0.552725 -0.445479
C14   C     C_3   0.947317 0.661238 0.471310 -0.156437
C15   C     C_3   0.904012 0.365782 0.343185 -0.238448
C16   C     C_2   0.494448 0.032038 0.436310 -0.152322
C17   C     C_2   0.516342 0.971777 0.584526 -0.035733
C18   C     C_R   0.259887 0.493471 0.498847 0.549407
C19   C     C_R   0.504920 0.800948 0.549912 0.546264
C20   C     C_R   0.740607 0.503086 0.500867 0.557090
Cu1   Cu    Cu3+1 0.514070 0.517380 0.684380 0.966809
Cu2   Cu    Cu3+1 0.485930 0.482620 0.315620 0.930702
F1    F     F_    0.141880 0.613621 0.826697 -0.663119
F2    F     F_    0.889575 0.330355 0.704637 -0.698731
H1    H     H_    0.868204 0.384018 0.207925 0.143629
H2    H     H_    0.065268 0.242038 0.379972 0.117444
H3    H     H_    0.852381 0.252623 0.352745 0.167143
H4    H     H_    0.498371 0.947555 0.968844 0.183005
H5    H     H_    0.664774 0.948793 0.919923 0.150896
H6    H     H_    0.616968 0.113271 0.067879 0.157201
H7    H     H_    0.637709 0.163858 0.782378 0.213337
H8    H     H_    0.470684 0.140058 0.819222 0.168324
H9    H     H_    0.789195 0.585535 0.006006 0.172178
H10   H     H_    0.746007 0.734648 0.889402 0.168810
H11   H     H_    0.812805 0.791294 0.121255 0.074630
H12   H     H_    0.109753 0.651858 0.318187 0.146075
H13   H     H_    0.576173 0.783436 0.089080 0.112295
H14   H     H_    0.642452 0.670279 0.215108 0.195351
H15   H     H_    0.849680 0.944415 0.435959 0.151737
H16   H     H_    0.738852 0.811964 0.509392 0.148623
H17   H     H_    0.810478 0.994278 0.667140 0.188612
H18   H     H_    0.918037 0.793146 0.750382 0.151123
H19   H     H_    0.018331 0.903034 0.642144 0.171144
H20   H     H_    0.906497 0.670674 0.334485 0.143659
H21   H     H_    0.470449 0.956041 0.298564 0.110214
H22   H     H_    0.399570 0.372449 0.948004 0.218150
H23   H     H_    0.113790 0.377504 0.723763 0.159418
H24   H     H_    0.921640 0.564381 0.804381 0.161465
H25   H     H_    0.152688 0.748658 0.554469 0.162795
H26   H     H_    0.075463 0.353769 0.212148 0.164293
N1    N     N_2   0.464720 0.456420 0.038520 -0.235519
N2    N     N_2   0.535280 0.543580 0.961480 -0.134182
O1    O     O_R   0.509140 0.286130 0.619770 -0.521231
O2    O     O_R   0.485380 0.256770 0.308360 -0.511253
O3    O     O_R   0.329570 0.514650 0.655700 -0.453065
O4    O     O_R   0.305810 0.485300 0.344290 -0.500735
O5    O     O_R   0.514620 0.743230 0.691640 -0.496758
O6    O     O_R   0.490860 0.713870 0.380230 -0.541030
O7    O     O_R   0.694190 0.514700 0.655710 -0.490957
O8    O     O_R   0.670430 0.485350 0.344300 -0.545229

loop_
_geom_bond_atom_site_label_1
_geom_bond_atom_site_label_2
_ccdc_geom_bond_type
C16   H21   S    
Cu2   O6    S    
C1    O2    A    
C4    H12   S    
Cu1   O5    S    
C10   H11   S    
C7    H8    S    
C2    H23   S    
C20   O8    A    
C9    C10   S    
C15   H3    S    
C12   C15   S    
C18   O4    A    
C4    H25   S    
C8    H6    S    
C12   C20   S    
C9    H13   S    
C2    C3    S    
C4    C14   S    
C7    C8    S    
C10   H10   S    
C1    C16   S    
Cu1   Cu2   S    
C19   O5    A    
C20   O7    A    
Cu1   O1    S    
C11   C13   S    
C3    F2    S    
C2    C6    S    
C9    N2    S    
C18   O3    A    
C8    H4    S    
C8    H5    S    
C14   H20   S    
C9    H14   S    
C17   C19   S    
C12   C14   S    
Cu1   O7    S    
C10   H9    S    
Cu2   O2    S    
C19   O6    A    
Cu2   O8    S    
C5    C6    S    
C6    C18   S    
C11   C14   S    
C5    H26   S    
C5    C15   S    
C15   H1    S    
N1    N2    D    
C3    H24   S    
C7    H7    S    
C11   H18   S    
C4    C6    S    
C2    F1    S    
Cu1   O3    S    
C1    O1    A    
C13   H17   S    
C16   C17   D    
C13   H16   S    
Cu2   O4    S    
C3    C12   S    
H22   N1    S    
Cu1   N2    S    
C13   H15   S    
C5    H2    S    
Cu2   N1    S    
C7    C17   S    
C11   H19   S    
